MODEL 1
REMARK VINA RESULT:      -7.9      0.000      0.000
REMARK  Name = 
REMARK  11 active torsions:
REMARK  status: ('A' for Active; 'I' for Inactive)
REMARK    1  A    between atoms: C_1  and  N_2
REMARK    2  A    between atoms: N_5  and  C_6
REMARK    3  A    between atoms: C_6  and  C_7
REMARK    4  A    between atoms: C_7  and  O_8
REMARK    5  A    between atoms: O_8  and  C_9
REMARK    6  A    between atoms: C_9  and  C_10
REMARK    7  A    between atoms: C_10  and  N_11
REMARK    8  A    between atoms: C_15  and  C_16
REMARK    9  A    between atoms: C_19  and  C_20
REMARK   10  A    between atoms: C_25  and  O_26
REMARK   11  A    between atoms: N_30  and  C_31
REMARK                            x       y       z     vdW  Elec       q    Type
REMARK                         _______ _______ _______ _____ _____    ______ ____
ROOT
ATOM      1  N   UNL     1       0.609   9.368  20.594  0.00  0.00    +0.000 N 
ATOM      2  C   UNL     1       0.320   8.425  21.502  0.00  0.00    +0.000 A 
ATOM      3  C   UNL     1       0.847   7.151  21.380  0.00  0.00    +0.000 A 
ATOM      4  C   UNL     1       1.707   6.802  20.319  0.00  0.00    +0.000 A 
ATOM      5  C   UNL     1       2.265   5.495  20.180  0.00  0.00    +0.000 A 
ATOM      6  C   UNL     1       1.938   4.398  21.172  0.00  0.00    +0.000 C 
ATOM      7  C   UNL     1       3.135   5.255  19.072  0.00  0.00    +0.000 A 
ATOM      8  C   UNL     1       3.465   6.243  18.131  0.00  0.00    +0.000 A 
ATOM      9  C   UNL     1       2.895   7.546  18.277  0.00  0.00    +0.000 A 
ATOM     10  C   UNL     1       3.219   8.687  17.332  0.00  0.00    +0.000 C 
ATOM     11  C   UNL     1       2.003   7.805  19.370  0.00  0.00    +0.000 A 
ATOM     12  C   UNL     1       1.400   9.068  19.540  0.00  0.00    +0.000 A 
ATOM     13  C   UNL     1       4.376   5.642  17.168  0.00  0.00    +0.000 A 
ATOM     14  C   UNL     1       5.064   6.086  16.009  0.00  0.00    +0.000 A 
ATOM     15  C   UNL     1       5.882   5.209  15.290  0.00  0.00    +0.000 A 
ATOM     16  C   UNL     1       6.040   3.898  15.682  0.00  0.00    +0.000 A 
ATOM     17  C   UNL     1       5.383   3.427  16.814  0.00  0.00    +0.000 A 
ATOM     18  C   UNL     1       4.559   4.309  17.544  0.00  0.00    +0.000 A 
ATOM     19  N   UNL     1       3.811   4.100  18.681  0.00  0.00    +0.000 N 
ATOM     20  C   UNL     1       3.757   2.819  19.357  0.00  0.00    +0.000 C 
ENDROOT
BRANCH  15  21
ATOM     21  O   UNL     1       6.553   5.616  14.172  0.00  0.00    +0.000 OA
ATOM     22  H   UNL     1       6.072   6.352  13.762  0.00  0.00    +0.000 HD
ENDBRANCH  15  21
BRANCH   1  23
ATOM     23  C   UNL     1       0.062  10.744  20.753  0.00  0.00    +0.000 C 
BRANCH  23  24
ATOM     24  C   UNL     1       1.174  11.783  20.634  0.00  0.00    +0.000 C 
BRANCH  24  25
ATOM     25  O   UNL     1       1.192  12.326  19.315  0.00  0.00    +0.000 OA
BRANCH  25  26
ATOM     26  C   UNL     1       0.694  13.670  19.326  0.00  0.00    +0.000 C 
BRANCH  26  27
ATOM     27  C   UNL     1      -0.775  13.684  18.925  0.00  0.00    +0.000 C 
BRANCH  27  32
ATOM     28  C   UNL     1      -3.014  10.305  16.210  0.00  0.00    +0.000 C 
ATOM     29  N   UNL     1      -2.036  11.332  16.467  0.00  0.00    +0.000 N 
ATOM     30  C   UNL     1      -1.932  11.909  17.697  0.00  0.00    +0.000 C 
ATOM     31  O   UNL     1      -2.614  11.600  18.675  0.00  0.00    +0.000 OA
ATOM     32  N   UNL     1      -1.001  12.910  17.721  0.00  0.00    +0.000 N 
ATOM     33  H   UNL     1      -1.176  11.261  15.942  0.00  0.00    +0.000 HD
ATOM     34  H   UNL     1      -0.387  13.022  16.925  0.00  0.00    +0.000 HD
ENDBRANCH  27  32
ENDBRANCH  26  27
ENDBRANCH  25  26
ENDBRANCH  24  25
ENDBRANCH  23  24
ENDBRANCH   1  23
TORSDOF 7
ENDMDL
MODEL 2
REMARK VINA RESULT:      -7.7      1.049      1.250
REMARK  Name = 
REMARK  11 active torsions:
REMARK  status: ('A' for Active; 'I' for Inactive)
REMARK    1  A    between atoms: C_1  and  N_2
REMARK    2  A    between atoms: N_5  and  C_6
REMARK    3  A    between atoms: C_6  and  C_7
REMARK    4  A    between atoms: C_7  and  O_8
REMARK    5  A    between atoms: O_8  and  C_9
REMARK    6  A    between atoms: C_9  and  C_10
REMARK    7  A    between atoms: C_10  and  N_11
REMARK    8  A    between atoms: C_15  and  C_16
REMARK    9  A    between atoms: C_19  and  C_20
REMARK   10  A    between atoms: C_25  and  O_26
REMARK   11  A    between atoms: N_30  and  C_31
REMARK                            x       y       z     vdW  Elec       q    Type
REMARK                         _______ _______ _______ _____ _____    ______ ____
ROOT
ATOM      1  N   UNL     1       0.909   9.431  20.634  0.00  0.00    +0.000 N 
ATOM      2  C   UNL     1       0.514   8.477  21.487  0.00  0.00    +0.000 A 
ATOM      3  C   UNL     1       0.918   7.166  21.308  0.00  0.00    +0.000 A 
ATOM      4  C   UNL     1       1.760   6.788  20.242  0.00  0.00    +0.000 A 
ATOM      5  C   UNL     1       2.193   5.442  20.045  0.00  0.00    +0.000 A 
ATOM      6  C   UNL     1       1.744   4.333  20.974  0.00  0.00    +0.000 C 
ATOM      7  C   UNL     1       3.056   5.174  18.938  0.00  0.00    +0.000 A 
ATOM      8  C   UNL     1       3.497   6.171  18.053  0.00  0.00    +0.000 A 
ATOM      9  C   UNL     1       3.052   7.514  18.257  0.00  0.00    +0.000 A 
ATOM     10  C   UNL     1       3.501   8.664  17.377  0.00  0.00    +0.000 C 
ATOM     11  C   UNL     1       2.169   7.804  19.350  0.00  0.00    +0.000 A 
ATOM     12  C   UNL     1       1.687   9.109  19.576  0.00  0.00    +0.000 A 
ATOM     13  C   UNL     1       4.364   5.533  17.073  0.00  0.00    +0.000 A 
ATOM     14  C   UNL     1       5.113   5.965  15.948  0.00  0.00    +0.000 A 
ATOM     15  C   UNL     1       5.856   5.051  15.196  0.00  0.00    +0.000 A 
ATOM     16  C   UNL     1       5.881   3.712  15.523  0.00  0.00    +0.000 A 
ATOM     17  C   UNL     1       5.160   3.252  16.620  0.00  0.00    +0.000 A 
ATOM     18  C   UNL     1       4.411   4.171  17.383  0.00  0.00    +0.000 A 
ATOM     19  N   UNL     1       3.626   3.980  18.497  0.00  0.00    +0.000 N 
ATOM     20  C   UNL     1       3.436   2.678  19.106  0.00  0.00    +0.000 C 
ENDROOT
BRANCH  15  21
ATOM     21  O   UNL     1       6.583   5.445  14.110  0.00  0.00    +0.000 OA
ATOM     22  H   UNL     1       6.907   4.660  13.640  0.00  0.00    +0.000 HD
ENDBRANCH  15  21
BRANCH   1  23
ATOM     23  C   UNL     1       0.493  10.845  20.855  0.00  0.00    +0.000 C 
BRANCH  23  24
ATOM     24  C   UNL     1      -0.501  11.287  19.784  0.00  0.00    +0.000 C 
BRANCH  24  25
ATOM     25  O   UNL     1      -0.835  12.662  19.970  0.00  0.00    +0.000 OA
BRANCH  25  26
ATOM     26  C   UNL     1      -2.186  12.904  19.554  0.00  0.00    +0.000 C 
BRANCH  26  27
ATOM     27  C   UNL     1      -2.771  11.646  18.925  0.00  0.00    +0.000 C 
BRANCH  27  32
ATOM     28  C   UNL     1      -3.170  10.215  14.278  0.00  0.00    +0.000 C 
ATOM     29  N   UNL     1      -3.211  11.172  15.355  0.00  0.00    +0.000 N 
ATOM     30  C   UNL     1      -2.861  10.816  16.623  0.00  0.00    +0.000 C 
ATOM     31  O   UNL     1      -2.465   9.697  16.952  0.00  0.00    +0.000 OA
ATOM     32  N   UNL     1      -3.037  11.838  17.513  0.00  0.00    +0.000 N 
ATOM     33  H   UNL     1      -3.015  12.130  15.099  0.00  0.00    +0.000 HD
ATOM     34  H   UNL     1      -3.237  12.763  17.158  0.00  0.00    +0.000 HD
ENDBRANCH  27  32
ENDBRANCH  26  27
ENDBRANCH  25  26
ENDBRANCH  24  25
ENDBRANCH  23  24
ENDBRANCH   1  23
TORSDOF 7
ENDMDL
MODEL 3
REMARK VINA RESULT:      -7.6      2.984      3.284
REMARK  Name = 
REMARK  11 active torsions:
REMARK  status: ('A' for Active; 'I' for Inactive)
REMARK    1  A    between atoms: C_1  and  N_2
REMARK    2  A    between atoms: N_5  and  C_6
REMARK    3  A    between atoms: C_6  and  C_7
REMARK    4  A    between atoms: C_7  and  O_8
REMARK    5  A    between atoms: O_8  and  C_9
REMARK    6  A    between atoms: C_9  and  C_10
REMARK    7  A    between atoms: C_10  and  N_11
REMARK    8  A    between atoms: C_15  and  C_16
REMARK    9  A    between atoms: C_19  and  C_20
REMARK   10  A    between atoms: C_25  and  O_26
REMARK   11  A    between atoms: N_30  and  C_31
REMARK                            x       y       z     vdW  Elec       q    Type
REMARK                         _______ _______ _______ _____ _____    ______ ____
ROOT
ATOM      1  N   UNL     1       0.718   9.430  20.583  0.00  0.00    +0.000 N 
ATOM      2  C   UNL     1       0.387   8.486  21.473  0.00  0.00    +0.000 A 
ATOM      3  C   UNL     1       0.866   7.194  21.336  0.00  0.00    +0.000 A 
ATOM      4  C   UNL     1       1.719   6.828  20.275  0.00  0.00    +0.000 A 
ATOM      5  C   UNL     1       2.229   5.504  20.120  0.00  0.00    +0.000 A 
ATOM      6  C   UNL     1       1.853   4.405  21.091  0.00  0.00    +0.000 C 
ATOM      7  C   UNL     1       3.096   5.247  19.014  0.00  0.00    +0.000 A 
ATOM      8  C   UNL     1       3.471   6.236  18.090  0.00  0.00    +0.000 A 
ATOM      9  C   UNL     1       2.950   7.557  18.252  0.00  0.00    +0.000 A 
ATOM     10  C   UNL     1       3.324   8.700  17.328  0.00  0.00    +0.000 C 
ATOM     11  C   UNL     1       2.061   7.834  19.343  0.00  0.00    +0.000 A 
ATOM     12  C   UNL     1       1.505   9.117  19.529  0.00  0.00    +0.000 A 
ATOM     13  C   UNL     1       4.365   5.616  17.124  0.00  0.00    +0.000 A 
ATOM     14  C   UNL     1       5.078   6.051  15.976  0.00  0.00    +0.000 A 
ATOM     15  C   UNL     1       5.867   5.155  15.249  0.00  0.00    +0.000 A 
ATOM     16  C   UNL     1       5.972   3.832  15.622  0.00  0.00    +0.000 A 
ATOM     17  C   UNL     1       5.289   3.370  16.742  0.00  0.00    +0.000 A 
ATOM     18  C   UNL     1       4.494   4.271  17.480  0.00  0.00    +0.000 A 
ATOM     19  N   UNL     1       3.731   4.074  18.609  0.00  0.00    +0.000 N 
ATOM     20  C   UNL     1       3.623   2.786  19.265  0.00  0.00    +0.000 C 
ENDROOT
BRANCH  15  21
ATOM     21  O   UNL     1       6.560   5.552  14.142  0.00  0.00    +0.000 OA
ATOM     22  H   UNL     1       6.566   6.522  14.100  0.00  0.00    +0.000 HD
ENDBRANCH  15  21
BRANCH   1  23
ATOM     23  C   UNL     1       0.222  10.824  20.759  0.00  0.00    +0.000 C 
BRANCH  23  24
ATOM     24  C   UNL     1      -0.840  10.882  21.854  0.00  0.00    +0.000 C 
BRANCH  24  25
ATOM     25  O   UNL     1      -0.426  11.779  22.884  0.00  0.00    +0.000 OA
BRANCH  25  26
ATOM     26  C   UNL     1      -1.435  12.772  23.112  0.00  0.00    +0.000 C 
BRANCH  26  27
ATOM     27  C   UNL     1      -2.752  12.327  22.491  0.00  0.00    +0.000 C 
BRANCH  27  32
ATOM     28  C   UNL     1      -7.247  13.108  24.220  0.00  0.00    +0.000 C 
ATOM     29  N   UNL     1      -5.890  12.628  24.288  0.00  0.00    +0.000 N 
ATOM     30  C   UNL     1      -5.016  12.849  23.267  0.00  0.00    +0.000 C 
ATOM     31  O   UNL     1      -5.281  13.480  22.242  0.00  0.00    +0.000 OA
ATOM     32  N   UNL     1      -3.805  12.253  23.485  0.00  0.00    +0.000 N 
ATOM     33  H   UNL     1      -5.483  12.590  25.212  0.00  0.00    +0.000 HD
ATOM     34  H   UNL     1      -3.612  11.865  24.399  0.00  0.00    +0.000 HD
ENDBRANCH  27  32
ENDBRANCH  26  27
ENDBRANCH  25  26
ENDBRANCH  24  25
ENDBRANCH  23  24
ENDBRANCH   1  23
TORSDOF 7
ENDMDL
MODEL 4
REMARK VINA RESULT:      -7.6      2.604      9.245
REMARK  Name = 
REMARK  11 active torsions:
REMARK  status: ('A' for Active; 'I' for Inactive)
REMARK    1  A    between atoms: C_1  and  N_2
REMARK    2  A    between atoms: N_5  and  C_6
REMARK    3  A    between atoms: C_6  and  C_7
REMARK    4  A    between atoms: C_7  and  O_8
REMARK    5  A    between atoms: O_8  and  C_9
REMARK    6  A    between atoms: C_9  and  C_10
REMARK    7  A    between atoms: C_10  and  N_11
REMARK    8  A    between atoms: C_15  and  C_16
REMARK    9  A    between atoms: C_19  and  C_20
REMARK   10  A    between atoms: C_25  and  O_26
REMARK   11  A    between atoms: N_30  and  C_31
REMARK                            x       y       z     vdW  Elec       q    Type
REMARK                         _______ _______ _______ _____ _____    ______ ____
ROOT
ATOM      1  N   UNL     1       1.841   6.232  20.501  0.00  0.00    +0.000 N 
ATOM      2  C   UNL     1       2.377   6.556  19.317  0.00  0.00    +0.000 A 
ATOM      3  C   UNL     1       2.256   7.844  18.822  0.00  0.00    +0.000 A 
ATOM      4  C   UNL     1       1.583   8.854  19.540  0.00  0.00    +0.000 A 
ATOM      5  C   UNL     1       1.453  10.188  19.049  0.00  0.00    +0.000 A 
ATOM      6  C   UNL     1       2.023  10.584  17.703  0.00  0.00    +0.000 C 
ATOM      7  C   UNL     1       0.761  11.135  19.866  0.00  0.00    +0.000 A 
ATOM      8  C   UNL     1       0.218  10.812  21.120  0.00  0.00    +0.000 A 
ATOM      9  C   UNL     1       0.350   9.471  21.597  0.00  0.00    +0.000 A 
ATOM     10  C   UNL     1      -0.172   9.034  22.953  0.00  0.00    +0.000 C 
ATOM     11  C   UNL     1       1.022   8.498  20.787  0.00  0.00    +0.000 A 
ATOM     12  C   UNL     1       1.155   7.158  21.207  0.00  0.00    +0.000 A 
ATOM     13  C   UNL     1      -0.389  12.020  21.658  0.00  0.00    +0.000 A 
ATOM     14  C   UNL     1      -1.080  12.364  22.849  0.00  0.00    +0.000 A 
ATOM     15  C   UNL     1      -1.554  13.665  23.044  0.00  0.00    +0.000 A 
ATOM     16  C   UNL     1      -1.367  14.642  22.091  0.00  0.00    +0.000 A 
ATOM     17  C   UNL     1      -0.693  14.342  20.912  0.00  0.00    +0.000 A 
ATOM     18  C   UNL     1      -0.211  13.032  20.711  0.00  0.00    +0.000 A 
ATOM     19  N   UNL     1       0.477  12.483  19.653  0.00  0.00    +0.000 N 
ATOM     20  C   UNL     1       0.841  13.248  18.476  0.00  0.00    +0.000 C 
ENDROOT
BRANCH  15  21
ATOM     21  O   UNL     1      -2.221  14.016  24.182  0.00  0.00    +0.000 OA
ATOM     22  H   UNL     1      -2.171  13.287  24.820  0.00  0.00    +0.000 HD
ENDBRANCH  15  21
BRANCH   1  23
ATOM     23  C   UNL     1       2.005   4.851  21.037  0.00  0.00    +0.000 C 
BRANCH  23  24
ATOM     24  C   UNL     1       1.414   3.826  20.074  0.00  0.00    +0.000 C 
BRANCH  24  25
ATOM     25  O   UNL     1       2.431   2.923  19.641  0.00  0.00    +0.000 OA
BRANCH  25  26
ATOM     26  C   UNL     1       2.195   2.525  18.284  0.00  0.00    +0.000 C 
BRANCH  26  27
ATOM     27  C   UNL     1       3.124   3.288  17.348  0.00  0.00    +0.000 C 
BRANCH  27  32
ATOM     28  C   UNL     1       7.520   5.194  18.266  0.00  0.00    +0.000 C 
ATOM     29  N   UNL     1       6.537   4.141  18.236  0.00  0.00    +0.000 N 
ATOM     30  C   UNL     1       5.307   4.345  17.687  0.00  0.00    +0.000 C 
ATOM     31  O   UNL     1       4.942   5.396  17.157  0.00  0.00    +0.000 OA
ATOM     32  N   UNL     1       4.493   3.255  17.822  0.00  0.00    +0.000 N 
ATOM     33  H   UNL     1       6.901   3.202  18.158  0.00  0.00    +0.000 HD
ATOM     34  H   UNL     1       4.895   2.386  18.146  0.00  0.00    +0.000 HD
ENDBRANCH  27  32
ENDBRANCH  26  27
ENDBRANCH  25  26
ENDBRANCH  24  25
ENDBRANCH  23  24
ENDBRANCH   1  23
TORSDOF 7
ENDMDL
MODEL 5
REMARK VINA RESULT:      -7.5      1.620      1.983
REMARK  Name = 
REMARK  11 active torsions:
REMARK  status: ('A' for Active; 'I' for Inactive)
REMARK    1  A    between atoms: C_1  and  N_2
REMARK    2  A    between atoms: N_5  and  C_6
REMARK    3  A    between atoms: C_6  and  C_7
REMARK    4  A    between atoms: C_7  and  O_8
REMARK    5  A    between atoms: O_8  and  C_9
REMARK    6  A    between atoms: C_9  and  C_10
REMARK    7  A    between atoms: C_10  and  N_11
REMARK    8  A    between atoms: C_15  and  C_16
REMARK    9  A    between atoms: C_19  and  C_20
REMARK   10  A    between atoms: C_25  and  O_26
REMARK   11  A    between atoms: N_30  and  C_31
REMARK                            x       y       z     vdW  Elec       q    Type
REMARK                         _______ _______ _______ _____ _____    ______ ____
ROOT
ATOM      1  N   UNL     1       0.850   9.223  20.562  0.00  0.00    +0.000 N 
ATOM      2  C   UNL     1       0.534   8.258  21.435  0.00  0.00    +0.000 A 
ATOM      3  C   UNL     1       1.023   6.974  21.268  0.00  0.00    +0.000 A 
ATOM      4  C   UNL     1       1.871   6.637  20.193  0.00  0.00    +0.000 A 
ATOM      5  C   UNL     1       2.390   5.320  20.007  0.00  0.00    +0.000 A 
ATOM      6  C   UNL     1       2.031   4.198  20.959  0.00  0.00    +0.000 C 
ATOM      7  C   UNL     1       3.250   5.093  18.889  0.00  0.00    +0.000 A 
ATOM      8  C   UNL     1       3.609   6.104  17.982  0.00  0.00    +0.000 A 
ATOM      9  C   UNL     1       3.078   7.417  18.176  0.00  0.00    +0.000 A 
ATOM     10  C   UNL     1       3.435   8.582  17.272  0.00  0.00    +0.000 C 
ATOM     11  C   UNL     1       2.196   7.664  19.279  0.00  0.00    +0.000 A 
ATOM     12  C   UNL     1       1.631   8.938  19.495  0.00  0.00    +0.000 A 
ATOM     13  C   UNL     1       4.501   5.511  16.997  0.00  0.00    +0.000 A 
ATOM     14  C   UNL     1       5.201   5.975  15.853  0.00  0.00    +0.000 A 
ATOM     15  C   UNL     1       5.991   5.101  15.101  0.00  0.00    +0.000 A 
ATOM     16  C   UNL     1       6.110   3.772  15.446  0.00  0.00    +0.000 A 
ATOM     17  C   UNL     1       5.440   3.281  16.562  0.00  0.00    +0.000 A 
ATOM     18  C   UNL     1       4.644   4.160  17.325  0.00  0.00    +0.000 A 
ATOM     19  N   UNL     1       3.892   3.934  18.455  0.00  0.00    +0.000 N 
ATOM     20  C   UNL     1       3.800   2.632  19.086  0.00  0.00    +0.000 C 
ENDROOT
BRANCH  15  21
ATOM     21  O   UNL     1       6.672   5.527  13.997  0.00  0.00    +0.000 OA
ATOM     22  H   UNL     1       6.037   5.792  13.313  0.00  0.00    +0.000 HD
ENDBRANCH  15  21
BRANCH   1  23
ATOM     23  C   UNL     1       0.344  10.609  20.770  0.00  0.00    +0.000 C 
BRANCH  23  24
ATOM     24  C   UNL     1      -0.142  11.208  19.453  0.00  0.00    +0.000 C 
BRANCH  24  25
ATOM     25  O   UNL     1      -1.460  10.743  19.166  0.00  0.00    +0.000 OA
BRANCH  25  26
ATOM     26  C   UNL     1      -2.196  11.749  18.457  0.00  0.00    +0.000 C 
BRANCH  26  27
ATOM     27  C   UNL     1      -3.025  11.106  17.352  0.00  0.00    +0.000 C 
BRANCH  27  32
ATOM     28  C   UNL     1      -7.396  13.257  17.610  0.00  0.00    +0.000 C 
ATOM     29  N   UNL     1      -6.113  12.982  17.016  0.00  0.00    +0.000 N 
ATOM     30  C   UNL     1      -5.272  12.057  17.559  0.00  0.00    +0.000 C 
ATOM     31  O   UNL     1      -5.530  11.374  18.552  0.00  0.00    +0.000 OA
ATOM     32  N   UNL     1      -4.077  11.993  16.899  0.00  0.00    +0.000 N 
ATOM     33  H   UNL     1      -6.062  13.083  16.012  0.00  0.00    +0.000 HD
ATOM     34  H   UNL     1      -3.982  12.482  16.019  0.00  0.00    +0.000 HD
ENDBRANCH  27  32
ENDBRANCH  26  27
ENDBRANCH  25  26
ENDBRANCH  24  25
ENDBRANCH  23  24
ENDBRANCH   1  23
TORSDOF 7
ENDMDL
MODEL 6
REMARK VINA RESULT:      -7.4      2.711      9.761
REMARK  Name = 
REMARK  11 active torsions:
REMARK  status: ('A' for Active; 'I' for Inactive)
REMARK    1  A    between atoms: C_1  and  N_2
REMARK    2  A    between atoms: N_5  and  C_6
REMARK    3  A    between atoms: C_6  and  C_7
REMARK    4  A    between atoms: C_7  and  O_8
REMARK    5  A    between atoms: O_8  and  C_9
REMARK    6  A    between atoms: C_9  and  C_10
REMARK    7  A    between atoms: C_10  and  N_11
REMARK    8  A    between atoms: C_15  and  C_16
REMARK    9  A    between atoms: C_19  and  C_20
REMARK   10  A    between atoms: C_25  and  O_26
REMARK   11  A    between atoms: N_30  and  C_31
REMARK                            x       y       z     vdW  Elec       q    Type
REMARK                         _______ _______ _______ _____ _____    ______ ____
ROOT
ATOM      1  N   UNL     1       2.266   7.558  19.333  0.00  0.00    +0.000 N 
ATOM      2  C   UNL     1       2.687   8.345  18.335  0.00  0.00    +0.000 A 
ATOM      3  C   UNL     1       2.210   9.639  18.213  0.00  0.00    +0.000 A 
ATOM      4  C   UNL     1       1.283  10.176  19.130  0.00  0.00    +0.000 A 
ATOM      5  C   UNL     1       0.783  11.510  19.025  0.00  0.00    +0.000 A 
ATOM      6  C   UNL     1       1.216  12.418  17.893  0.00  0.00    +0.000 C 
ATOM      7  C   UNL     1      -0.144  11.955  20.017  0.00  0.00    +0.000 A 
ATOM      8  C   UNL     1      -0.571  11.147  21.082  0.00  0.00    +0.000 A 
ATOM      9  C   UNL     1      -0.069   9.811  21.173  0.00  0.00    +0.000 A 
ATOM     10  C   UNL     1      -0.444   8.875  22.306  0.00  0.00    +0.000 C 
ATOM     11  C   UNL     1       0.847   9.335  20.178  0.00  0.00    +0.000 A 
ATOM     12  C   UNL     1       1.351   8.018  20.215  0.00  0.00    +0.000 A 
ATOM     13  C   UNL     1      -1.491  11.936  21.888  0.00  0.00    +0.000 A 
ATOM     14  C   UNL     1      -2.248  11.719  23.069  0.00  0.00    +0.000 A 
ATOM     15  C   UNL     1      -3.066  12.729  23.583  0.00  0.00    +0.000 A 
ATOM     16  C   UNL     1      -3.162  13.955  22.960  0.00  0.00    +0.000 A 
ATOM     17  C   UNL     1      -2.434  14.204  21.802  0.00  0.00    +0.000 A 
ATOM     18  C   UNL     1      -1.606  13.189  21.281  0.00  0.00    +0.000 A 
ATOM     19  N   UNL     1      -0.794  13.179  20.169  0.00  0.00    +0.000 N 
ATOM     20  C   UNL     1      -0.662  14.321  19.287  0.00  0.00    +0.000 C 
ENDROOT
BRANCH  15  21
ATOM     21  O   UNL     1      -3.802  12.541  24.717  0.00  0.00    +0.000 OA
ATOM     22  H   UNL     1      -4.740  12.688  24.517  0.00  0.00    +0.000 HD
ENDBRANCH  15  21
BRANCH   1  23
ATOM     23  C   UNL     1       2.812   6.178  19.472  0.00  0.00    +0.000 C 
BRANCH  23  24
ATOM     24  C   UNL     1       3.193   5.611  18.107  0.00  0.00    +0.000 C 
BRANCH  24  25
ATOM     25  O   UNL     1       4.313   4.736  18.240  0.00  0.00    +0.000 OA
BRANCH  25  26
ATOM     26  C   UNL     1       5.534   5.488  18.224  0.00  0.00    +0.000 C 
BRANCH  26  27
ATOM     27  C   UNL     1       6.661   4.639  17.653  0.00  0.00    +0.000 C 
BRANCH  27  32
ATOM     28  C   UNL     1       6.591   3.808  12.846  0.00  0.00    +0.000 C 
ATOM     29  N   UNL     1       6.205   3.574  14.214  0.00  0.00    +0.000 N 
ATOM     30  C   UNL     1       6.658   4.377  15.218  0.00  0.00    +0.000 C 
ATOM     31  O   UNL     1       7.385   5.358  15.056  0.00  0.00    +0.000 OA
ATOM     32  N   UNL     1       6.244   3.949  16.448  0.00  0.00    +0.000 N 
ATOM     33  H   UNL     1       5.285   3.179  14.350  0.00  0.00    +0.000 HD
ATOM     34  H   UNL     1       5.545   3.220  16.500  0.00  0.00    +0.000 HD
ENDBRANCH  27  32
ENDBRANCH  26  27
ENDBRANCH  25  26
ENDBRANCH  24  25
ENDBRANCH  23  24
ENDBRANCH   1  23
TORSDOF 7
ENDMDL
MODEL 7
REMARK VINA RESULT:      -7.3      1.697      1.734
REMARK  Name = 
REMARK  11 active torsions:
REMARK  status: ('A' for Active; 'I' for Inactive)
REMARK    1  A    between atoms: C_1  and  N_2
REMARK    2  A    between atoms: N_5  and  C_6
REMARK    3  A    between atoms: C_6  and  C_7
REMARK    4  A    between atoms: C_7  and  O_8
REMARK    5  A    between atoms: O_8  and  C_9
REMARK    6  A    between atoms: C_9  and  C_10
REMARK    7  A    between atoms: C_10  and  N_11
REMARK    8  A    between atoms: C_15  and  C_16
REMARK    9  A    between atoms: C_19  and  C_20
REMARK   10  A    between atoms: C_25  and  O_26
REMARK   11  A    between atoms: N_30  and  C_31
REMARK                            x       y       z     vdW  Elec       q    Type
REMARK                         _______ _______ _______ _____ _____    ______ ____
ROOT
ATOM      1  N   UNL     1       0.707   9.414  20.634  0.00  0.00    +0.000 N 
ATOM      2  C   UNL     1       0.397   8.469  21.531  0.00  0.00    +0.000 A 
ATOM      3  C   UNL     1       0.892   7.183  21.394  0.00  0.00    +0.000 A 
ATOM      4  C   UNL     1       1.739   6.825  20.325  0.00  0.00    +0.000 A 
ATOM      5  C   UNL     1       2.264   5.506  20.170  0.00  0.00    +0.000 A 
ATOM      6  C   UNL     1       1.913   4.406  21.150  0.00  0.00    +0.000 C 
ATOM      7  C   UNL     1       3.124   5.257  19.056  0.00  0.00    +0.000 A 
ATOM      8  C   UNL     1       3.475   6.247  18.124  0.00  0.00    +0.000 A 
ATOM      9  C   UNL     1       2.938   7.562  18.287  0.00  0.00    +0.000 A 
ATOM     10  C   UNL     1       3.287   8.706  17.354  0.00  0.00    +0.000 C 
ATOM     11  C   UNL     1       2.057   7.831  19.386  0.00  0.00    +0.000 A 
ATOM     12  C   UNL     1       1.486   9.107  19.573  0.00  0.00    +0.000 A 
ATOM     13  C   UNL     1       4.368   5.635  17.152  0.00  0.00    +0.000 A 
ATOM     14  C   UNL     1       5.062   6.075  15.995  0.00  0.00    +0.000 A 
ATOM     15  C   UNL     1       5.856   5.186  15.263  0.00  0.00    +0.000 A 
ATOM     16  C   UNL     1       5.983   3.867  15.639  0.00  0.00    +0.000 A 
ATOM     17  C   UNL     1       5.317   3.400  16.769  0.00  0.00    +0.000 A 
ATOM     18  C   UNL     1       4.519   4.293  17.512  0.00  0.00    +0.000 A 
ATOM     19  N   UNL     1       3.770   4.091  18.649  0.00  0.00    +0.000 N 
ATOM     20  C   UNL     1       3.686   2.804  19.311  0.00  0.00    +0.000 C 
ENDROOT
BRANCH  15  21
ATOM     21  O   UNL     1       6.532   5.588  14.147  0.00  0.00    +0.000 OA
ATOM     22  H   UNL     1       6.960   4.819  13.739  0.00  0.00    +0.000 HD
ENDBRANCH  15  21
BRANCH   1  23
ATOM     23  C   UNL     1       0.194  10.802  20.810  0.00  0.00    +0.000 C 
BRANCH  23  24
ATOM     24  C   UNL     1      -0.523  10.945  22.150  0.00  0.00    +0.000 C 
BRANCH  24  25
ATOM     25  O   UNL     1      -0.469  12.302  22.587  0.00  0.00    +0.000 OA
BRANCH  25  26
ATOM     26  C   UNL     1      -0.320  13.179  21.462  0.00  0.00    +0.000 C 
BRANCH  26  27
ATOM     27  C   UNL     1      -1.572  14.030  21.296  0.00  0.00    +0.000 C 
BRANCH  27  32
ATOM     28  C   UNL     1      -5.461  11.937  19.222  0.00  0.00    +0.000 C 
ATOM     29  N   UNL     1      -4.177  12.592  19.219  0.00  0.00    +0.000 N 
ATOM     30  C   UNL     1      -3.540  12.890  20.386  0.00  0.00    +0.000 C 
ATOM     31  O   UNL     1      -3.967  12.613  21.508  0.00  0.00    +0.000 OA
ATOM     32  N   UNL     1      -2.375  13.574  20.178  0.00  0.00    +0.000 N 
ATOM     33  H   UNL     1      -3.578  12.380  18.434  0.00  0.00    +0.000 HD
ATOM     34  H   UNL     1      -2.019  13.652  19.235  0.00  0.00    +0.000 HD
ENDBRANCH  27  32
ENDBRANCH  26  27
ENDBRANCH  25  26
ENDBRANCH  24  25
ENDBRANCH  23  24
ENDBRANCH   1  23
TORSDOF 7
ENDMDL
MODEL 8
REMARK VINA RESULT:      -7.3      2.470      8.917
REMARK  Name = 
REMARK  11 active torsions:
REMARK  status: ('A' for Active; 'I' for Inactive)
REMARK    1  A    between atoms: C_1  and  N_2
REMARK    2  A    between atoms: N_5  and  C_6
REMARK    3  A    between atoms: C_6  and  C_7
REMARK    4  A    between atoms: C_7  and  O_8
REMARK    5  A    between atoms: O_8  and  C_9
REMARK    6  A    between atoms: C_9  and  C_10
REMARK    7  A    between atoms: C_10  and  N_11
REMARK    8  A    between atoms: C_15  and  C_16
REMARK    9  A    between atoms: C_19  and  C_20
REMARK   10  A    between atoms: C_25  and  O_26
REMARK   11  A    between atoms: N_30  and  C_31
REMARK                            x       y       z     vdW  Elec       q    Type
REMARK                         _______ _______ _______ _____ _____    ______ ____
ROOT
ATOM      1  N   UNL     1       2.488   6.837  19.040  0.00  0.00    +0.000 N 
ATOM      2  C   UNL     1       2.028   6.348  20.199  0.00  0.00    +0.000 A 
ATOM      3  C   UNL     1       1.291   7.149  21.054  0.00  0.00    +0.000 A 
ATOM      4  C   UNL     1       0.988   8.490  20.738  0.00  0.00    +0.000 A 
ATOM      5  C   UNL     1       0.223   9.329  21.604  0.00  0.00    +0.000 A 
ATOM      6  C   UNL     1      -0.289   8.818  22.934  0.00  0.00    +0.000 C 
ATOM      7  C   UNL     1      -0.034  10.669  21.178  0.00  0.00    +0.000 A 
ATOM      8  C   UNL     1       0.421  11.183  19.953  0.00  0.00    +0.000 A 
ATOM      9  C   UNL     1       1.190  10.334  19.098  0.00  0.00    +0.000 A 
ATOM     10  C   UNL     1       1.695  10.787  17.741  0.00  0.00    +0.000 C 
ATOM     11  C   UNL     1       1.479   8.992  19.513  0.00  0.00    +0.000 A 
ATOM     12  C   UNL     1       2.253   8.128  18.712  0.00  0.00    +0.000 A 
ATOM     13  C   UNL     1      -0.043  12.559  19.858  0.00  0.00    +0.000 A 
ATOM     14  C   UNL     1       0.067  13.602  18.902  0.00  0.00    +0.000 A 
ATOM     15  C   UNL     1      -0.513  14.851  19.144  0.00  0.00    +0.000 A 
ATOM     16  C   UNL     1      -1.201  15.103  20.312  0.00  0.00    +0.000 A 
ATOM     17  C   UNL     1      -1.330  14.104  21.271  0.00  0.00    +0.000 A 
ATOM     18  C   UNL     1      -0.749  12.843  21.030  0.00  0.00    +0.000 A 
ATOM     19  N   UNL     1      -0.732  11.703  21.800  0.00  0.00    +0.000 N 
ATOM     20  C   UNL     1      -1.372  11.627  23.099  0.00  0.00    +0.000 C 
ENDROOT
BRANCH  15  21
ATOM     21  O   UNL     1      -0.419  15.868  18.239  0.00  0.00    +0.000 OA
ATOM     22  H   UNL     1      -0.384  16.715  18.712  0.00  0.00    +0.000 HD
ENDBRANCH  15  21
BRANCH   1  23
ATOM     23  C   UNL     1       3.253   5.956  18.113  0.00  0.00    +0.000 C 
BRANCH  23  24
ATOM     24  C   UNL     1       4.718   5.875  18.535  0.00  0.00    +0.000 C 
BRANCH  24  25
ATOM     25  O   UNL     1       5.557   6.298  17.462  0.00  0.00    +0.000 OA
BRANCH  25  26
ATOM     26  C   UNL     1       6.934   6.239  17.856  0.00  0.00    +0.000 C 
BRANCH  26  27
ATOM     27  C   UNL     1       7.478   4.833  17.636  0.00  0.00    +0.000 C 
BRANCH  27  32
ATOM     28  C   UNL     1       6.321   3.724  13.029  0.00  0.00    +0.000 C 
ATOM     29  N   UNL     1       6.197   3.632  14.461  0.00  0.00    +0.000 N 
ATOM     30  C   UNL     1       6.944   4.423  15.282  0.00  0.00    +0.000 C 
ATOM     31  O   UNL     1       7.742   5.278  14.895  0.00  0.00    +0.000 OA
ATOM     32  N   UNL     1       6.738   4.137  16.603  0.00  0.00    +0.000 N 
ATOM     33  H   UNL     1       5.281   3.383  14.808  0.00  0.00    +0.000 HD
ATOM     34  H   UNL     1       5.977   3.520  16.854  0.00  0.00    +0.000 HD
ENDBRANCH  27  32
ENDBRANCH  26  27
ENDBRANCH  25  26
ENDBRANCH  24  25
ENDBRANCH  23  24
ENDBRANCH   1  23
TORSDOF 7
ENDMDL
MODEL 9
REMARK VINA RESULT:      -7.3      2.242      2.453
REMARK  Name = 
REMARK  11 active torsions:
REMARK  status: ('A' for Active; 'I' for Inactive)
REMARK    1  A    between atoms: C_1  and  N_2
REMARK    2  A    between atoms: N_5  and  C_6
REMARK    3  A    between atoms: C_6  and  C_7
REMARK    4  A    between atoms: C_7  and  O_8
REMARK    5  A    between atoms: O_8  and  C_9
REMARK    6  A    between atoms: C_9  and  C_10
REMARK    7  A    between atoms: C_10  and  N_11
REMARK    8  A    between atoms: C_15  and  C_16
REMARK    9  A    between atoms: C_19  and  C_20
REMARK   10  A    between atoms: C_25  and  O_26
REMARK   11  A    between atoms: N_30  and  C_31
REMARK                            x       y       z     vdW  Elec       q    Type
REMARK                         _______ _______ _______ _____ _____    ______ ____
ROOT
ATOM      1  N   UNL     1       0.669   9.348  20.563  0.00  0.00    +0.000 N 
ATOM      2  C   UNL     1       0.370   8.405  21.466  0.00  0.00    +0.000 A 
ATOM      3  C   UNL     1       0.887   7.127  21.341  0.00  0.00    +0.000 A 
ATOM      4  C   UNL     1       1.747   6.775  20.280  0.00  0.00    +0.000 A 
ATOM      5  C   UNL     1       2.296   5.465  20.138  0.00  0.00    +0.000 A 
ATOM      6  C   UNL     1       1.958   4.366  21.124  0.00  0.00    +0.000 C 
ATOM      7  C   UNL     1       3.166   5.222  19.031  0.00  0.00    +0.000 A 
ATOM      8  C   UNL     1       3.507   6.211  18.094  0.00  0.00    +0.000 A 
ATOM      9  C   UNL     1       2.947   7.518  18.244  0.00  0.00    +0.000 A 
ATOM     10  C   UNL     1       3.282   8.660  17.305  0.00  0.00    +0.000 C 
ATOM     11  C   UNL     1       2.054   7.780  19.336  0.00  0.00    +0.000 A 
ATOM     12  C   UNL     1       1.460   9.047  19.509  0.00  0.00    +0.000 A 
ATOM     13  C   UNL     1       4.416   5.607  17.132  0.00  0.00    +0.000 A 
ATOM     14  C   UNL     1       5.110   6.050  15.976  0.00  0.00    +0.000 A 
ATOM     15  C   UNL     1       5.923   5.170  15.255  0.00  0.00    +0.000 A 
ATOM     16  C   UNL     1       6.070   3.855  15.643  0.00  0.00    +0.000 A 
ATOM     17  C   UNL     1       5.405   3.386  16.771  0.00  0.00    +0.000 A 
ATOM     18  C   UNL     1       4.587   4.270  17.503  0.00  0.00    +0.000 A 
ATOM     19  N   UNL     1       3.835   4.064  18.637  0.00  0.00    +0.000 N 
ATOM     20  C   UNL     1       3.769   2.780  19.308  0.00  0.00    +0.000 C 
ENDROOT
BRANCH  15  21
ATOM     21  O   UNL     1       6.599   5.575  14.141  0.00  0.00    +0.000 OA
ATOM     22  H   UNL     1       6.522   6.538  14.054  0.00  0.00    +0.000 HD
ENDBRANCH  15  21
BRANCH   1  23
ATOM     23  C   UNL     1       0.132  10.729  20.726  0.00  0.00    +0.000 C 
BRANCH  23  24
ATOM     24  C   UNL     1      -0.322  11.291  19.381  0.00  0.00    +0.000 C 
BRANCH  24  25
ATOM     25  O   UNL     1      -1.637  10.825  19.079  0.00  0.00    +0.000 OA
BRANCH  25  26
ATOM     26  C   UNL     1      -2.476  11.923  18.697  0.00  0.00    +0.000 C 
BRANCH  26  27
ATOM     27  C   UNL     1      -3.143  12.522  19.929  0.00  0.00    +0.000 C 
BRANCH  27  32
ATOM     28  C   UNL     1      -7.818  12.946  21.259  0.00  0.00    +0.000 C 
ATOM     29  N   UNL     1      -6.725  12.948  20.319  0.00  0.00    +0.000 N 
ATOM     30  C   UNL     1      -5.460  12.631  20.714  0.00  0.00    +0.000 C 
ATOM     31  O   UNL     1      -5.146  12.297  21.858  0.00  0.00    +0.000 OA
ATOM     32  N   UNL     1      -4.554  12.762  19.699  0.00  0.00    +0.000 N 
ATOM     33  H   UNL     1      -6.962  12.699  19.369  0.00  0.00    +0.000 HD
ATOM     34  H   UNL     1      -4.895  12.910  18.759  0.00  0.00    +0.000 HD
ENDBRANCH  27  32
ENDBRANCH  26  27
ENDBRANCH  25  26
ENDBRANCH  24  25
ENDBRANCH  23  24
ENDBRANCH   1  23
TORSDOF 7
ENDMDL
