MODEL 1
REMARK VINA RESULT:      -8.4      0.000      0.000
REMARK  Name = 
REMARK  7 active torsions:
REMARK  status: ('A' for Active; 'I' for Inactive)
REMARK    1  A    between atoms: C_4  and  S_5
REMARK    2  A    between atoms: S_5  and  C_6
REMARK    3  A    between atoms: C_6  and  C_7
REMARK    4  A    between atoms: C_11  and  O_12
REMARK    5  A    between atoms: C_15  and  S_16
REMARK    6  A    between atoms: S_16  and  C_17
REMARK    7  A    between atoms: C_17  and  C_18
REMARK                            x       y       z     vdW  Elec       q    Type
REMARK                         _______ _______ _______ _____ _____    ______ ____
ROOT
ATOM      1  O   UNL     1       8.276   5.178  19.708  0.00  0.00    +0.000 OA
ATOM      2  C   UNL     1       7.878   5.925  18.818  0.00  0.00    +0.000 A 
ATOM      3  N   UNL     1       8.228   7.238  18.740  0.00  0.00    +0.000 NA
ATOM      4  C   UNL     1       7.728   7.946  17.790  0.00  0.00    +0.000 A 
ATOM      5  N   UNL     1       6.891   7.478  16.822  0.00  0.00    +0.000 NA
ATOM      6  C   UNL     1       6.589   6.238  16.903  0.00  0.00    +0.000 A 
ATOM      7  N   UNL     1       7.043   5.432  17.874  0.00  0.00    +0.000 N 
ATOM      8  H   UNL     1       6.764   4.466  17.933  0.00  0.00    +0.000 HD
ENDROOT
BRANCH   4   9
ATOM      9  S   UNL     1       8.060   9.668  17.747  0.00  0.00    +0.000 S 
BRANCH   9  10
ATOM     10  C   UNL     1       9.245   9.812  19.112  0.00  0.00    +0.000 C 
BRANCH  10  11
ATOM     11  C   UNL     1      10.051  11.091  19.006  0.00  0.00    +0.000 A 
ATOM     12  C   UNL     1      10.648  11.654  20.146  0.00  0.00    +0.000 A 
ATOM     13  C   UNL     1      11.374  12.847  20.057  0.00  0.00    +0.000 A 
ATOM     14  C   UNL     1      11.510  13.501  18.833  0.00  0.00    +0.000 A 
ATOM     15  C   UNL     1      10.913  12.949  17.704  0.00  0.00    +0.000 A 
ATOM     16  C   UNL     1      10.189  11.760  17.780  0.00  0.00    +0.000 A 
BRANCH  15  17
ATOM     17  O   UNL     1      11.015  13.558  16.486  0.00  0.00    +0.000 OA
ATOM     18  H   UNL     1      11.927  13.875  16.374  0.00  0.00    +0.000 HD
ENDBRANCH  15  17
ENDBRANCH  10  11
ENDBRANCH   9  10
ENDBRANCH   4   9
BRANCH   6  19
ATOM     19  S   UNL     1       5.534   5.412  15.806  0.00  0.00    +0.000 S 
BRANCH  19  20
ATOM     20  C   UNL     1       5.339   3.807  16.625  0.00  0.00    +0.000 C 
BRANCH  20  21
ATOM     21  C   UNL     1       4.216   3.758  17.634  0.00  0.00    +0.000 A 
ATOM     22  C   UNL     1       4.395   3.182  18.903  0.00  0.00    +0.000 A 
ATOM     23  C   UNL     1       3.339   3.137  19.817  0.00  0.00    +0.000 A 
ATOM     24  C   UNL     1       2.104   3.685  19.476  0.00  0.00    +0.000 A 
ATOM     25 CL   UNL     1       0.803   3.624  20.600  0.00  0.00    +0.000 Cl
ATOM     26  C   UNL     1       1.917   4.282  18.233  0.00  0.00    +0.000 A 
ATOM     27  C   UNL     1       2.969   4.319  17.316  0.00  0.00    +0.000 A 
ENDBRANCH  20  21
ENDBRANCH  19  20
ENDBRANCH   6  19
TORSDOF 7
ENDMDL
MODEL 2
REMARK VINA RESULT:      -8.3      3.797      9.748
REMARK  Name = 
REMARK  7 active torsions:
REMARK  status: ('A' for Active; 'I' for Inactive)
REMARK    1  A    between atoms: C_4  and  S_5
REMARK    2  A    between atoms: S_5  and  C_6
REMARK    3  A    between atoms: C_6  and  C_7
REMARK    4  A    between atoms: C_11  and  O_12
REMARK    5  A    between atoms: C_15  and  S_16
REMARK    6  A    between atoms: S_16  and  C_17
REMARK    7  A    between atoms: C_17  and  C_18
REMARK                            x       y       z     vdW  Elec       q    Type
REMARK                         _______ _______ _______ _____ _____    ______ ____
ROOT
ATOM      1  O   UNL     1       8.449   5.247  19.891  0.00  0.00    +0.000 OA
ATOM      2  C   UNL     1       7.833   5.888  19.044  0.00  0.00    +0.000 A 
ATOM      3  N   UNL     1       6.763   5.386  18.368  0.00  0.00    +0.000 NA
ATOM      4  C   UNL     1       6.208   6.124  17.473  0.00  0.00    +0.000 A 
ATOM      5  N   UNL     1       6.584   7.396  17.164  0.00  0.00    +0.000 NA
ATOM      6  C   UNL     1       7.579   7.855  17.823  0.00  0.00    +0.000 A 
ATOM      7  N   UNL     1       8.235   7.147  18.754  0.00  0.00    +0.000 N 
ATOM      8  H   UNL     1       9.035   7.522  19.237  0.00  0.00    +0.000 HD
ENDROOT
BRANCH   4   9
ATOM      9  S   UNL     1       4.914   5.451  16.498  0.00  0.00    +0.000 S 
BRANCH   9  10
ATOM     10  C   UNL     1       4.664   3.859  17.331  0.00  0.00    +0.000 C 
BRANCH  10  11
ATOM     11  C   UNL     1       3.415   3.878  18.188  0.00  0.00    +0.000 A 
ATOM     12  C   UNL     1       3.314   4.754  19.281  0.00  0.00    +0.000 A 
ATOM     13  C   UNL     1       2.172   4.759  20.090  0.00  0.00    +0.000 A 
ATOM     14  C   UNL     1       1.116   3.886  19.825  0.00  0.00    +0.000 A 
ATOM     15  C   UNL     1       1.217   3.013  18.747  0.00  0.00    +0.000 A 
ATOM     16  C   UNL     1       2.350   3.001  17.934  0.00  0.00    +0.000 A 
BRANCH  15  17
ATOM     17  O   UNL     1       0.211   2.138  18.454  0.00  0.00    +0.000 OA
ATOM     18  H   UNL     1      -0.282   2.479  17.690  0.00  0.00    +0.000 HD
ENDBRANCH  15  17
ENDBRANCH  10  11
ENDBRANCH   9  10
ENDBRANCH   4   9
BRANCH   6  19
ATOM     19  S   UNL     1       8.256   9.434  17.604  0.00  0.00    +0.000 S 
BRANCH  19  20
ATOM     20  C   UNL     1       9.158   9.664  19.159  0.00  0.00    +0.000 C 
BRANCH  20  21
ATOM     21  C   UNL     1       9.942  10.953  19.237  0.00  0.00    +0.000 A 
ATOM     22  C   UNL     1      10.072  11.661  20.444  0.00  0.00    +0.000 A 
ATOM     23  C   UNL     1      10.793  12.857  20.490  0.00  0.00    +0.000 A 
ATOM     24  C   UNL     1      11.403  13.344  19.337  0.00  0.00    +0.000 A 
ATOM     25 CL   UNL     1      12.285  14.820  19.393  0.00  0.00    +0.000 Cl
ATOM     26  C   UNL     1      11.305  12.643  18.138  0.00  0.00    +0.000 A 
ATOM     27  C   UNL     1      10.578  11.452  18.089  0.00  0.00    +0.000 A 
ENDBRANCH  20  21
ENDBRANCH  19  20
ENDBRANCH   6  19
TORSDOF 7
ENDMDL
MODEL 3
REMARK VINA RESULT:      -8.3      3.762      9.719
REMARK  Name = 
REMARK  7 active torsions:
REMARK  status: ('A' for Active; 'I' for Inactive)
REMARK    1  A    between atoms: C_4  and  S_5
REMARK    2  A    between atoms: S_5  and  C_6
REMARK    3  A    between atoms: C_6  and  C_7
REMARK    4  A    between atoms: C_11  and  O_12
REMARK    5  A    between atoms: C_15  and  S_16
REMARK    6  A    between atoms: S_16  and  C_17
REMARK    7  A    between atoms: C_17  and  C_18
REMARK                            x       y       z     vdW  Elec       q    Type
REMARK                         _______ _______ _______ _____ _____    ______ ____
ROOT
ATOM      1  O   UNL     1       8.519   5.132  19.772  0.00  0.00    +0.000 OA
ATOM      2  C   UNL     1       7.835   5.769  18.977  0.00  0.00    +0.000 A 
ATOM      3  N   UNL     1       6.735   5.252  18.364  0.00  0.00    +0.000 NA
ATOM      4  C   UNL     1       6.107   5.988  17.518  0.00  0.00    +0.000 A 
ATOM      5  N   UNL     1       6.434   7.273  17.203  0.00  0.00    +0.000 NA
ATOM      6  C   UNL     1       7.459   7.746  17.804  0.00  0.00    +0.000 A 
ATOM      7  N   UNL     1       8.190   7.041  18.680  0.00  0.00    +0.000 N 
ATOM      8  H   UNL     1       9.011   7.427  19.115  0.00  0.00    +0.000 HD
ENDROOT
BRANCH   4   9
ATOM      9  S   UNL     1       4.768   5.298  16.619  0.00  0.00    +0.000 S 
BRANCH   9  10
ATOM     10  C   UNL     1       4.682   3.648  17.364  0.00  0.00    +0.000 C 
BRANCH  10  11
ATOM     11  C   UNL     1       3.524   3.543  18.335  0.00  0.00    +0.000 A 
ATOM     12  C   UNL     1       2.236   3.956  17.957  0.00  0.00    +0.000 A 
ATOM     13  C   UNL     1       1.168   3.882  18.857  0.00  0.00    +0.000 A 
ATOM     14  C   UNL     1       1.368   3.401  20.151  0.00  0.00    +0.000 A 
ATOM     15  C   UNL     1       2.644   2.998  20.531  0.00  0.00    +0.000 A 
ATOM     16  C   UNL     1       3.715   3.065  19.641  0.00  0.00    +0.000 A 
BRANCH  15  17
ATOM     17  O   UNL     1       2.888   2.526  21.789  0.00  0.00    +0.000 OA
ATOM     18  H   UNL     1       2.973   1.559  21.745  0.00  0.00    +0.000 HD
ENDBRANCH  15  17
ENDBRANCH  10  11
ENDBRANCH   9  10
ENDBRANCH   4   9
BRANCH   6  19
ATOM     19  S   UNL     1       8.085   9.343  17.564  0.00  0.00    +0.000 S 
BRANCH  19  20
ATOM     20  C   UNL     1       9.003   9.610  19.104  0.00  0.00    +0.000 C 
BRANCH  20  21
ATOM     21  C   UNL     1       9.841  10.866  19.116  0.00  0.00    +0.000 A 
ATOM     22  C   UNL     1      10.241  11.470  20.321  0.00  0.00    +0.000 A 
ATOM     23  C   UNL     1      11.007  12.639  20.308  0.00  0.00    +0.000 A 
ATOM     24  C   UNL     1      11.395  13.200  19.094  0.00  0.00    +0.000 A 
ATOM     25 CL   UNL     1      12.333  14.642  19.080  0.00  0.00    +0.000 Cl
ATOM     26  C   UNL     1      11.029  12.602  17.892  0.00  0.00    +0.000 A 
ATOM     27  C   UNL     1      10.256  11.439  17.903  0.00  0.00    +0.000 A 
ENDBRANCH  20  21
ENDBRANCH  19  20
ENDBRANCH   6  19
TORSDOF 7
ENDMDL
MODEL 4
REMARK VINA RESULT:      -8.3      3.802      9.864
REMARK  Name = 
REMARK  7 active torsions:
REMARK  status: ('A' for Active; 'I' for Inactive)
REMARK    1  A    between atoms: C_4  and  S_5
REMARK    2  A    between atoms: S_5  and  C_6
REMARK    3  A    between atoms: C_6  and  C_7
REMARK    4  A    between atoms: C_11  and  O_12
REMARK    5  A    between atoms: C_15  and  S_16
REMARK    6  A    between atoms: S_16  and  C_17
REMARK    7  A    between atoms: C_17  and  C_18
REMARK                            x       y       z     vdW  Elec       q    Type
REMARK                         _______ _______ _______ _____ _____    ______ ____
ROOT
ATOM      1  O   UNL     1       8.384   5.105  20.101  0.00  0.00    +0.000 OA
ATOM      2  C   UNL     1       7.738   5.699  19.244  0.00  0.00    +0.000 A 
ATOM      3  N   UNL     1       6.626   5.176  18.657  0.00  0.00    +0.000 NA
ATOM      4  C   UNL     1       6.040   5.862  17.742  0.00  0.00    +0.000 A 
ATOM      5  N   UNL     1       6.424   7.102  17.327  0.00  0.00    +0.000 NA
ATOM      6  C   UNL     1       7.459   7.583  17.902  0.00  0.00    +0.000 A 
ATOM      7  N   UNL     1       8.148   6.926  18.847  0.00  0.00    +0.000 N 
ATOM      8  H   UNL     1       8.978   7.315  19.263  0.00  0.00    +0.000 HD
ENDROOT
BRANCH   4   9
ATOM      9  S   UNL     1       4.686   5.152  16.881  0.00  0.00    +0.000 S 
BRANCH   9  10
ATOM     10  C   UNL     1       4.664   3.491  17.608  0.00  0.00    +0.000 C 
BRANCH  10  11
ATOM     11  C   UNL     1       3.414   3.269  18.433  0.00  0.00    +0.000 A 
ATOM     12  C   UNL     1       2.145   3.304  17.831  0.00  0.00    +0.000 A 
ATOM     13  C   UNL     1       0.986   3.122  18.593  0.00  0.00    +0.000 A 
ATOM     14  C   UNL     1       1.073   2.909  19.969  0.00  0.00    +0.000 A 
ATOM     15  C   UNL     1       2.327   2.881  20.569  0.00  0.00    +0.000 A 
ATOM     16  C   UNL     1       3.489   3.059  19.819  0.00  0.00    +0.000 A 
BRANCH  15  17
ATOM     17  O   UNL     1       2.459   2.682  21.914  0.00  0.00    +0.000 OA
ATOM     18  H   UNL     1       1.572   2.617  22.305  0.00  0.00    +0.000 HD
ENDBRANCH  15  17
ENDBRANCH  10  11
ENDBRANCH   9  10
ENDBRANCH   4   9
BRANCH   6  19
ATOM     19  S   UNL     1       8.153   9.128  17.540  0.00  0.00    +0.000 S 
BRANCH  19  20
ATOM     20  C   UNL     1       8.906   9.571  19.128  0.00  0.00    +0.000 C 
BRANCH  20  21
ATOM     21  C   UNL     1       9.760  10.816  19.084  0.00  0.00    +0.000 A 
ATOM     22  C   UNL     1      10.230  11.340  17.868  0.00  0.00    +0.000 A 
ATOM     23  C   UNL     1      11.028  12.487  17.851  0.00  0.00    +0.000 A 
ATOM     24  C   UNL     1      11.346  13.128  19.046  0.00  0.00    +0.000 A 
ATOM     25 CL   UNL     1      12.333  14.537  19.025  0.00  0.00    +0.000 Cl
ATOM     26  C   UNL     1      10.868  12.637  20.258  0.00  0.00    +0.000 A 
ATOM     27  C   UNL     1      10.078  11.486  20.276  0.00  0.00    +0.000 A 
ENDBRANCH  20  21
ENDBRANCH  19  20
ENDBRANCH   6  19
TORSDOF 7
ENDMDL
MODEL 5
REMARK VINA RESULT:      -8.3      3.688      9.561
REMARK  Name = 
REMARK  7 active torsions:
REMARK  status: ('A' for Active; 'I' for Inactive)
REMARK    1  A    between atoms: C_4  and  S_5
REMARK    2  A    between atoms: S_5  and  C_6
REMARK    3  A    between atoms: C_6  and  C_7
REMARK    4  A    between atoms: C_11  and  O_12
REMARK    5  A    between atoms: C_15  and  S_16
REMARK    6  A    between atoms: S_16  and  C_17
REMARK    7  A    between atoms: C_17  and  C_18
REMARK                            x       y       z     vdW  Elec       q    Type
REMARK                         _______ _______ _______ _____ _____    ______ ____
ROOT
ATOM      1  O   UNL     1       8.373   5.272  19.795  0.00  0.00    +0.000 OA
ATOM      2  C   UNL     1       7.889   5.943  18.889  0.00  0.00    +0.000 A 
ATOM      3  N   UNL     1       7.022   5.434  17.970  0.00  0.00    +0.000 NA
ATOM      4  C   UNL     1       6.599   6.209  17.036  0.00  0.00    +0.000 A 
ATOM      5  N   UNL     1       6.923   7.526  16.905  0.00  0.00    +0.000 NA
ATOM      6  C   UNL     1       7.723   7.990  17.788  0.00  0.00    +0.000 A 
ATOM      7  N   UNL     1       8.235   7.247  18.781  0.00  0.00    +0.000 N 
ATOM      8  H   UNL     1       8.888   7.630  19.445  0.00  0.00    +0.000 HD
ENDROOT
BRANCH   4   9
ATOM      9  S   UNL     1       5.588   5.540  15.768  0.00  0.00    +0.000 S 
BRANCH   9  10
ATOM     10  C   UNL     1       5.229   3.902  16.458  0.00  0.00    +0.000 C 
BRANCH  10  11
ATOM     11  C   UNL     1       3.900   3.891  17.185  0.00  0.00    +0.000 A 
ATOM     12  C   UNL     1       3.279   5.096  17.555  0.00  0.00    +0.000 A 
ATOM     13  C   UNL     1       2.063   5.090  18.247  0.00  0.00    +0.000 A 
ATOM     14  C   UNL     1       1.451   3.884  18.586  0.00  0.00    +0.000 A 
ATOM     15  C   UNL     1       2.066   2.690  18.228  0.00  0.00    +0.000 A 
ATOM     16  C   UNL     1       3.277   2.683  17.536  0.00  0.00    +0.000 A 
BRANCH  15  17
ATOM     17  O   UNL     1       1.506   1.486  18.544  0.00  0.00    +0.000 OA
ATOM     18  H   UNL     1       0.601   1.464  18.191  0.00  0.00    +0.000 HD
ENDBRANCH  15  17
ENDBRANCH  10  11
ENDBRANCH   9  10
ENDBRANCH   4   9
BRANCH   6  19
ATOM     19  S   UNL     1       8.297   9.623  17.829  0.00  0.00    +0.000 S 
BRANCH  19  20
ATOM     20  C   UNL     1       9.306   9.618  19.335  0.00  0.00    +0.000 C 
BRANCH  20  21
ATOM     21  C   UNL     1       9.688  10.993  19.831  0.00  0.00    +0.000 A 
ATOM     22  C   UNL     1       9.121  11.536  20.996  0.00  0.00    +0.000 A 
ATOM     23  C   UNL     1       9.481  12.815  21.430  0.00  0.00    +0.000 A 
ATOM     24  C   UNL     1      10.423  13.550  20.714  0.00  0.00    +0.000 A 
ATOM     25 CL   UNL     1      10.861  15.127  21.246  0.00  0.00    +0.000 Cl
ATOM     26  C   UNL     1      11.013  13.017  19.572  0.00  0.00    +0.000 A 
ATOM     27  C   UNL     1      10.648  11.743  19.133  0.00  0.00    +0.000 A 
ENDBRANCH  20  21
ENDBRANCH  19  20
ENDBRANCH   6  19
TORSDOF 7
ENDMDL
MODEL 6
REMARK VINA RESULT:      -7.9      3.812      9.286
REMARK  Name = 
REMARK  7 active torsions:
REMARK  status: ('A' for Active; 'I' for Inactive)
REMARK    1  A    between atoms: C_4  and  S_5
REMARK    2  A    between atoms: S_5  and  C_6
REMARK    3  A    between atoms: C_6  and  C_7
REMARK    4  A    between atoms: C_11  and  O_12
REMARK    5  A    between atoms: C_15  and  S_16
REMARK    6  A    between atoms: S_16  and  C_17
REMARK    7  A    between atoms: C_17  and  C_18
REMARK                            x       y       z     vdW  Elec       q    Type
REMARK                         _______ _______ _______ _____ _____    ______ ____
ROOT
ATOM      1  O   UNL     1       8.255   5.294  20.252  0.00  0.00    +0.000 OA
ATOM      2  C   UNL     1       7.882   5.768  19.183  0.00  0.00    +0.000 A 
ATOM      3  N   UNL     1       7.241   5.036  18.230  0.00  0.00    +0.000 NA
ATOM      4  C   UNL     1       6.924   5.615  17.128  0.00  0.00    +0.000 A 
ATOM      5  N   UNL     1       7.148   6.929  16.841  0.00  0.00    +0.000 NA
ATOM      6  C   UNL     1       7.734   7.603  17.755  0.00  0.00    +0.000 A 
ATOM      7  N   UNL     1       8.125   7.074  18.924  0.00  0.00    +0.000 N 
ATOM      8  H   UNL     1       8.613   7.620  19.615  0.00  0.00    +0.000 HD
ENDROOT
BRANCH   4   9
ATOM      9  S   UNL     1       6.217   4.660  15.837  0.00  0.00    +0.000 S 
BRANCH   9  10
ATOM     10  C   UNL     1       5.367   3.380  16.798  0.00  0.00    +0.000 C 
BRANCH  10  11
ATOM     11  C   UNL     1       4.018   3.866  17.289  0.00  0.00    +0.000 A 
ATOM     12  C   UNL     1       2.964   2.960  17.489  0.00  0.00    +0.000 A 
ATOM     13  C   UNL     1       1.710   3.408  17.921  0.00  0.00    +0.000 A 
ATOM     14  C   UNL     1       1.486   4.765  18.152  0.00  0.00    +0.000 A 
ATOM     15  C   UNL     1       2.527   5.664  17.947  0.00  0.00    +0.000 A 
ATOM     16  C   UNL     1       3.781   5.230  17.520  0.00  0.00    +0.000 A 
BRANCH  15  17
ATOM     17  O   UNL     1       2.352   7.002  18.155  0.00  0.00    +0.000 OA
ATOM     18  H   UNL     1       1.416   7.163  18.362  0.00  0.00    +0.000 HD
ENDBRANCH  15  17
ENDBRANCH  10  11
ENDBRANCH   9  10
ENDBRANCH   4   9
BRANCH   6  19
ATOM     19  S   UNL     1       8.144   9.281  17.626  0.00  0.00    +0.000 S 
BRANCH  19  20
ATOM     20  C   UNL     1       8.984   9.574  19.205  0.00  0.00    +0.000 C 
BRANCH  20  21
ATOM     21  C   UNL     1       9.810  10.838  19.243  0.00  0.00    +0.000 A 
ATOM     22  C   UNL     1      10.288  11.438  18.065  0.00  0.00    +0.000 A 
ATOM     23  C   UNL     1      11.060  12.601  18.124  0.00  0.00    +0.000 A 
ATOM     24  C   UNL     1      11.342  13.184  19.358  0.00  0.00    +0.000 A 
ATOM     25 CL   UNL     1      12.298  14.613  19.430  0.00  0.00    +0.000 Cl
ATOM     26  C   UNL     1      10.856  12.617  20.533  0.00  0.00    +0.000 A 
ATOM     27  C   UNL     1      10.092  11.450  20.475  0.00  0.00    +0.000 A 
ENDBRANCH  20  21
ENDBRANCH  19  20
ENDBRANCH   6  19
TORSDOF 7
ENDMDL
MODEL 7
REMARK VINA RESULT:      -7.8      3.878      8.743
REMARK  Name = 
REMARK  7 active torsions:
REMARK  status: ('A' for Active; 'I' for Inactive)
REMARK    1  A    between atoms: C_4  and  S_5
REMARK    2  A    between atoms: S_5  and  C_6
REMARK    3  A    between atoms: C_6  and  C_7
REMARK    4  A    between atoms: C_11  and  O_12
REMARK    5  A    between atoms: C_15  and  S_16
REMARK    6  A    between atoms: S_16  and  C_17
REMARK    7  A    between atoms: C_17  and  C_18
REMARK                            x       y       z     vdW  Elec       q    Type
REMARK                         _______ _______ _______ _____ _____    ______ ____
ROOT
ATOM      1  O   UNL     1       8.425   5.139  20.164  0.00  0.00    +0.000 OA
ATOM      2  C   UNL     1       7.840   5.708  19.247  0.00  0.00    +0.000 A 
ATOM      3  N   UNL     1       6.828   5.132  18.542  0.00  0.00    +0.000 NA
ATOM      4  C   UNL     1       6.304   5.796  17.574  0.00  0.00    +0.000 A 
ATOM      5  N   UNL     1       6.660   7.060  17.210  0.00  0.00    +0.000 NA
ATOM      6  C   UNL     1       7.600   7.590  17.896  0.00  0.00    +0.000 A 
ATOM      7  N   UNL     1       8.221   6.961  18.904  0.00  0.00    +0.000 N 
ATOM      8  H   UNL     1       8.980   7.389  19.408  0.00  0.00    +0.000 HD
ENDROOT
BRANCH   4   9
ATOM      9  S   UNL     1       5.091   5.024  16.570  0.00  0.00    +0.000 S 
BRANCH   9  10
ATOM     10  C   UNL     1       3.867   4.560  17.825  0.00  0.00    +0.000 C 
BRANCH  10  11
ATOM     11  C   UNL     1       3.195   5.783  18.415  0.00  0.00    +0.000 A 
ATOM     12  C   UNL     1       2.688   5.757  19.724  0.00  0.00    +0.000 A 
ATOM     13  C   UNL     1       2.047   6.877  20.266  0.00  0.00    +0.000 A 
ATOM     14  C   UNL     1       1.895   8.037  19.508  0.00  0.00    +0.000 A 
ATOM     15  C   UNL     1       2.390   8.064  18.208  0.00  0.00    +0.000 A 
ATOM     16  C   UNL     1       3.033   6.955  17.659  0.00  0.00    +0.000 A 
BRANCH  15  17
ATOM     17  O   UNL     1       2.259   9.177  17.428  0.00  0.00    +0.000 OA
ATOM     18  H   UNL     1       2.584   8.969  16.536  0.00  0.00    +0.000 HD
ENDBRANCH  15  17
ENDBRANCH  10  11
ENDBRANCH   9  10
ENDBRANCH   4   9
BRANCH   6  19
ATOM     19  S   UNL     1       8.240   9.176  17.620  0.00  0.00    +0.000 S 
BRANCH  19  20
ATOM     20  C   UNL     1       8.996   9.548  19.225  0.00  0.00    +0.000 C 
BRANCH  20  21
ATOM     21  C   UNL     1       9.830  10.808  19.240  0.00  0.00    +0.000 A 
ATOM     22  C   UNL     1      10.411  11.318  18.067  0.00  0.00    +0.000 A 
ATOM     23  C   UNL     1      11.187  12.479  18.106  0.00  0.00    +0.000 A 
ATOM     24  C   UNL     1      11.372  13.148  19.314  0.00  0.00    +0.000 A 
ATOM     25 CL   UNL     1      12.333  14.574  19.363  0.00  0.00    +0.000 Cl
ATOM     26  C   UNL     1      10.784  12.671  20.482  0.00  0.00    +0.000 A 
ATOM     27  C   UNL     1      10.015  11.506  20.444  0.00  0.00    +0.000 A 
ENDBRANCH  20  21
ENDBRANCH  19  20
ENDBRANCH   6  19
TORSDOF 7
ENDMDL
MODEL 8
REMARK VINA RESULT:      -7.7      3.811      9.016
REMARK  Name = 
REMARK  7 active torsions:
REMARK  status: ('A' for Active; 'I' for Inactive)
REMARK    1  A    between atoms: C_4  and  S_5
REMARK    2  A    between atoms: S_5  and  C_6
REMARK    3  A    between atoms: C_6  and  C_7
REMARK    4  A    between atoms: C_11  and  O_12
REMARK    5  A    between atoms: C_15  and  S_16
REMARK    6  A    between atoms: S_16  and  C_17
REMARK    7  A    between atoms: C_17  and  C_18
REMARK                            x       y       z     vdW  Elec       q    Type
REMARK                         _______ _______ _______ _____ _____    ______ ____
ROOT
ATOM      1  O   UNL     1       7.691   5.481  14.041  0.00  0.00    +0.000 OA
ATOM      2  C   UNL     1       7.224   5.357  15.170  0.00  0.00    +0.000 A 
ATOM      3  N   UNL     1       6.251   4.455  15.475  0.00  0.00    +0.000 NA
ATOM      4  C   UNL     1       5.802   4.427  16.679  0.00  0.00    +0.000 A 
ATOM      5  N   UNL     1       6.248   5.213  17.699  0.00  0.00    +0.000 NA
ATOM      6  C   UNL     1       7.175   6.040  17.396  0.00  0.00    +0.000 A 
ATOM      7  N   UNL     1       7.684   6.156  16.161  0.00  0.00    +0.000 N 
ATOM      8  H   UNL     1       8.392   6.838  15.942  0.00  0.00    +0.000 HD
ENDROOT
BRANCH   4   9
ATOM      9  S   UNL     1       4.458   3.367  17.062  0.00  0.00    +0.000 S 
BRANCH   9  10
ATOM     10  C   UNL     1       4.580   3.316  18.870  0.00  0.00    +0.000 C 
BRANCH  10  11
ATOM     11  C   UNL     1       3.281   3.745  19.520  0.00  0.00    +0.000 A 
ATOM     12  C   UNL     1       2.222   2.834  19.669  0.00  0.00    +0.000 A 
ATOM     13  C   UNL     1       1.012   3.232  20.249  0.00  0.00    +0.000 A 
ATOM     14  C   UNL     1       0.837   4.546  20.683  0.00  0.00    +0.000 A 
ATOM     15  C   UNL     1       1.881   5.452  20.530  0.00  0.00    +0.000 A 
ATOM     16  C   UNL     1       3.092   5.066  19.956  0.00  0.00    +0.000 A 
BRANCH  15  17
ATOM     17  O   UNL     1       1.752   6.750  20.935  0.00  0.00    +0.000 OA
ATOM     18  H   UNL     1       1.532   7.295  20.161  0.00  0.00    +0.000 HD
ENDBRANCH  15  17
ENDBRANCH  10  11
ENDBRANCH   9  10
ENDBRANCH   4   9
BRANCH   6  19
ATOM     19  S   UNL     1       7.895   7.155  18.509  0.00  0.00    +0.000 S 
BRANCH  19  20
ATOM     20  C   UNL     1       7.945   8.674  17.522  0.00  0.00    +0.000 C 
BRANCH  20  21
ATOM     21  C   UNL     1       8.537   9.863  18.242  0.00  0.00    +0.000 A 
ATOM     22  C   UNL     1       9.218   9.716  19.463  0.00  0.00    +0.000 A 
ATOM     23  C   UNL     1       9.749  10.831  20.117  0.00  0.00    +0.000 A 
ATOM     24  C   UNL     1       9.620  12.096  19.548  0.00  0.00    +0.000 A 
ATOM     25 CL   UNL     1      10.268  13.468  20.357  0.00  0.00    +0.000 Cl
ATOM     26  C   UNL     1       8.970  12.256  18.327  0.00  0.00    +0.000 A 
ATOM     27  C   UNL     1       8.432  11.144  17.677  0.00  0.00    +0.000 A 
ENDBRANCH  20  21
ENDBRANCH  19  20
ENDBRANCH   6  19
TORSDOF 7
ENDMDL
MODEL 9
REMARK VINA RESULT:      -7.6      4.715      7.188
REMARK  Name = 
REMARK  7 active torsions:
REMARK  status: ('A' for Active; 'I' for Inactive)
REMARK    1  A    between atoms: C_4  and  S_5
REMARK    2  A    between atoms: S_5  and  C_6
REMARK    3  A    between atoms: C_6  and  C_7
REMARK    4  A    between atoms: C_11  and  O_12
REMARK    5  A    between atoms: C_15  and  S_16
REMARK    6  A    between atoms: S_16  and  C_17
REMARK    7  A    between atoms: C_17  and  C_18
REMARK                            x       y       z     vdW  Elec       q    Type
REMARK                         _______ _______ _______ _____ _____    ______ ____
ROOT
ATOM      1  O   UNL     1       0.097   2.227  18.936  0.00  0.00    +0.000 OA
ATOM      2  C   UNL     1       1.041   3.012  18.927  0.00  0.00    +0.000 A 
ATOM      3  N   UNL     1       2.161   2.818  18.177  0.00  0.00    +0.000 NA
ATOM      4  C   UNL     1       3.110   3.680  18.266  0.00  0.00    +0.000 A 
ATOM      5  N   UNL     1       3.076   4.806  19.033  0.00  0.00    +0.000 NA
ATOM      6  C   UNL     1       2.008   4.980  19.715  0.00  0.00    +0.000 A 
ATOM      7  N   UNL     1       0.980   4.119  19.704  0.00  0.00    +0.000 N 
ATOM      8  H   UNL     1       0.163   4.263  20.275  0.00  0.00    +0.000 HD
ENDROOT
BRANCH   4   9
ATOM      9  S   UNL     1       4.613   3.382  17.412  0.00  0.00    +0.000 S 
BRANCH   9  10
ATOM     10  C   UNL     1       4.918   5.018  16.693  0.00  0.00    +0.000 C 
BRANCH  10  11
ATOM     11  C   UNL     1       6.039   5.736  17.416  0.00  0.00    +0.000 A 
ATOM     12  C   UNL     1       6.581   6.922  16.894  0.00  0.00    +0.000 A 
ATOM     13  C   UNL     1       7.633   7.576  17.546  0.00  0.00    +0.000 A 
ATOM     14  C   UNL     1       8.164   7.054  18.725  0.00  0.00    +0.000 A 
ATOM     15  C   UNL     1       7.634   5.876  19.241  0.00  0.00    +0.000 A 
ATOM     16  C   UNL     1       6.585   5.217  18.601  0.00  0.00    +0.000 A 
BRANCH  15  17
ATOM     17  O   UNL     1       8.127   5.326  20.390  0.00  0.00    +0.000 OA
ATOM     18  H   UNL     1       7.435   5.362  21.071  0.00  0.00    +0.000 HD
ENDBRANCH  15  17
ENDBRANCH  10  11
ENDBRANCH   9  10
ENDBRANCH   4   9
BRANCH   6  19
ATOM     19  S   UNL     1       1.730   6.320  20.776  0.00  0.00    +0.000 S 
BRANCH  19  20
ATOM     20  C   UNL     1       2.177   7.722  19.717  0.00  0.00    +0.000 C 
BRANCH  20  21
ATOM     21  C   UNL     1       1.186   8.861  19.745  0.00  0.00    +0.000 A 
ATOM     22  C   UNL     1       0.510   9.217  20.924  0.00  0.00    +0.000 A 
ATOM     23  C   UNL     1      -0.412  10.268  20.924  0.00  0.00    +0.000 A 
ATOM     24  C   UNL     1      -0.649  10.981  19.751  0.00  0.00    +0.000 A 
ATOM     25 CL   UNL     1      -1.788  12.270  19.751  0.00  0.00    +0.000 Cl
ATOM     26  C   UNL     1       0.030  10.658  18.580  0.00  0.00    +0.000 A 
ATOM     27  C   UNL     1       0.944   9.603  18.577  0.00  0.00    +0.000 A 
ENDBRANCH  20  21
ENDBRANCH  19  20
ENDBRANCH   6  19
TORSDOF 7
ENDMDL
