MODEL 1
REMARK VINA RESULT:      -7.0      0.000      0.000
REMARK  Name = 
REMARK  11 active torsions:
REMARK  status: ('A' for Active; 'I' for Inactive)
REMARK    1  A    between atoms: C_1  and  O_2
REMARK    2  A    between atoms: O_2  and  C_3
REMARK    3  A    between atoms: C_6  and  C_7
REMARK    4  A    between atoms: C_11  and  C_12
REMARK    5  A    between atoms: C_12  and  C_13
REMARK    6  A    between atoms: C_14  and  C_15
REMARK    7  A    between atoms: C_14  and  C_16
REMARK    8  A    between atoms: C_17  and  O_18
REMARK    9  A    between atoms: O_18  and  C_19
REMARK   10  A    between atoms: C_21  and  O_22
REMARK   11  A    between atoms: O_22  and  C_23
REMARK                            x       y       z     vdW  Elec       q    Type
REMARK                         _______ _______ _______ _____ _____    ______ ____
ROOT
ATOM      1  C   UNL     1       2.272   7.785  18.431  0.00  0.00    +0.000 A 
ATOM      2  C   UNL     1       2.231   8.756  17.504  0.00  0.00    +0.000 A 
ATOM      3  O   UNL     1       1.991  10.078  17.737  0.00  0.00    +0.000 OA
ATOM      4  C   UNL     1       1.311  10.397  18.882  0.00  0.00    +0.000 A 
ATOM      5  C   UNL     1       0.946  11.738  19.023  0.00  0.00    +0.000 A 
ATOM      6  C   UNL     1      -0.006  12.081  19.997  0.00  0.00    +0.000 A 
ATOM      7  C   UNL     1      -0.488  11.086  20.852  0.00  0.00    +0.000 A 
ATOM      8  C   UNL     1       0.023   9.769  20.807  0.00  0.00    +0.000 A 
ATOM      9  C   UNL     1       0.980   9.442  19.839  0.00  0.00    +0.000 A 
ATOM     10  C   UNL     1       1.802   8.203  19.788  0.00  0.00    +0.000 A 
ATOM     11  O   UNL     1       2.101   7.596  20.809  0.00  0.00    +0.000 OA
ENDROOT
BRANCH   1  15
ATOM     12  C   UNL     1       3.520   3.751  17.638  0.00  0.00    +0.000 A 
ATOM     13  C   UNL     1       2.182   4.037  17.874  0.00  0.00    +0.000 A 
ATOM     14  C   UNL     1       1.770   5.355  18.046  0.00  0.00    +0.000 A 
ATOM     15  C   UNL     1       2.692   6.420  18.049  0.00  0.00    +0.000 A 
ATOM     16  C   UNL     1       4.021   6.124  17.730  0.00  0.00    +0.000 A 
ATOM     17  C   UNL     1       4.435   4.800  17.529  0.00  0.00    +0.000 A 
BRANCH  12  19
ATOM     18  C   UNL     1       3.452   1.638  18.685  0.00  0.00    +0.000 C 
ATOM     19  O   UNL     1       3.810   2.419  17.560  0.00  0.00    +0.000 OA
ENDBRANCH  12  19
ENDBRANCH   1  15
BRANCH   6  20
ATOM     20  O   UNL     1      -0.365  13.398  20.000  0.00  0.00    +0.000 OA
ATOM     21  C   UNL     1      -1.712  13.743  20.270  0.00  0.00    +0.000 C 
ENDBRANCH   6  20
BRANCH   8  22
ATOM     22  O   UNL     1      -0.495   8.960  21.783  0.00  0.00    +0.000 OA
ATOM     23  C   UNL     1      -0.400   9.399  23.135  0.00  0.00    +0.000 C 
ENDBRANCH   8  22
BRANCH   5  24
ATOM     24  C   UNL     1       1.646  12.786  18.189  0.00  0.00    +0.000 C 
BRANCH  24  25
ATOM     25  C   UNL     1       2.844  13.400  18.845  0.00  0.00    +0.000 C 
ATOM     26  C   UNL     1       3.003  14.719  19.067  0.00  0.00    +0.000 C 
ATOM     27  C   UNL     1       1.978  15.769  18.721  0.00  0.00    +0.000 C 
ATOM     28  C   UNL     1       4.277  15.246  19.659  0.00  0.00    +0.000 C 
ENDBRANCH  24  25
ENDBRANCH   5  24
TORSDOF 6
ENDMDL
MODEL 2
REMARK VINA RESULT:      -6.6      2.597      4.207
REMARK  Name = 
REMARK  11 active torsions:
REMARK  status: ('A' for Active; 'I' for Inactive)
REMARK    1  A    between atoms: C_1  and  O_2
REMARK    2  A    between atoms: O_2  and  C_3
REMARK    3  A    between atoms: C_6  and  C_7
REMARK    4  A    between atoms: C_11  and  C_12
REMARK    5  A    between atoms: C_12  and  C_13
REMARK    6  A    between atoms: C_14  and  C_15
REMARK    7  A    between atoms: C_14  and  C_16
REMARK    8  A    between atoms: C_17  and  O_18
REMARK    9  A    between atoms: O_18  and  C_19
REMARK   10  A    between atoms: C_21  and  O_22
REMARK   11  A    between atoms: O_22  and  C_23
REMARK                            x       y       z     vdW  Elec       q    Type
REMARK                         _______ _______ _______ _____ _____    ______ ____
ROOT
ATOM      1  C   UNL     1       3.898   6.426  17.542  0.00  0.00    +0.000 A 
ATOM      2  C   UNL     1       3.199   7.481  17.092  0.00  0.00    +0.000 A 
ATOM      3  O   UNL     1       2.515   8.377  17.859  0.00  0.00    +0.000 OA
ATOM      4  C   UNL     1       2.120   7.960  19.103  0.00  0.00    +0.000 A 
ATOM      5  C   UNL     1       1.294   8.838  19.809  0.00  0.00    +0.000 A 
ATOM      6  C   UNL     1       0.605   8.360  20.935  0.00  0.00    +0.000 A 
ATOM      7  C   UNL     1       0.840   7.051  21.367  0.00  0.00    +0.000 A 
ATOM      8  C   UNL     1       1.811   6.236  20.744  0.00  0.00    +0.000 A 
ATOM      9  C   UNL     1       2.498   6.727  19.628  0.00  0.00    +0.000 A 
ATOM     10  C   UNL     1       3.705   6.129  18.995  0.00  0.00    +0.000 A 
ATOM     11  O   UNL     1       4.504   5.469  19.648  0.00  0.00    +0.000 OA
ENDROOT
BRANCH   1  15
ATOM     12  C   UNL     1       6.012   4.111  14.604  0.00  0.00    +0.000 A 
ATOM     13  C   UNL     1       6.008   5.497  14.533  0.00  0.00    +0.000 A 
ATOM     14  C   UNL     1       5.394   6.246  15.534  0.00  0.00    +0.000 A 
ATOM     15  C   UNL     1       4.713   5.628  16.601  0.00  0.00    +0.000 A 
ATOM     16  C   UNL     1       4.796   4.236  16.701  0.00  0.00    +0.000 A 
ATOM     17  C   UNL     1       5.437   3.481  15.710  0.00  0.00    +0.000 A 
BRANCH  12  19
ATOM     18  C   UNL     1       5.754   3.343  12.389  0.00  0.00    +0.000 C 
ATOM     19  O   UNL     1       6.580   3.490  13.529  0.00  0.00    +0.000 OA
ENDBRANCH  12  19
ENDBRANCH   1  15
BRANCH   6  20
ATOM     20  O   UNL     1      -0.245   9.263  21.505  0.00  0.00    +0.000 OA
ATOM     21  C   UNL     1      -0.311   9.350  22.917  0.00  0.00    +0.000 C 
ENDBRANCH   6  20
BRANCH   8  22
ATOM     22  O   UNL     1       1.972   5.026  21.364  0.00  0.00    +0.000 OA
ATOM     23  C   UNL     1       1.310   3.895  20.806  0.00  0.00    +0.000 C 
ENDBRANCH   8  22
BRANCH   5  24
ATOM     24  C   UNL     1       1.232  10.290  19.393  0.00  0.00    +0.000 C 
BRANCH  24  25
ATOM     25  C   UNL     1       0.110  10.617  18.457  0.00  0.00    +0.000 C 
ATOM     26  C   UNL     1      -0.876  11.495  18.722  0.00  0.00    +0.000 C 
ATOM     27  C   UNL     1      -0.975  12.306  19.989  0.00  0.00    +0.000 C 
ATOM     28  C   UNL     1      -2.003  11.695  17.751  0.00  0.00    +0.000 C 
ENDBRANCH  24  25
ENDBRANCH   5  24
TORSDOF 6
ENDMDL
MODEL 3
REMARK VINA RESULT:      -6.5      0.822      1.343
REMARK  Name = 
REMARK  11 active torsions:
REMARK  status: ('A' for Active; 'I' for Inactive)
REMARK    1  A    between atoms: C_1  and  O_2
REMARK    2  A    between atoms: O_2  and  C_3
REMARK    3  A    between atoms: C_6  and  C_7
REMARK    4  A    between atoms: C_11  and  C_12
REMARK    5  A    between atoms: C_12  and  C_13
REMARK    6  A    between atoms: C_14  and  C_15
REMARK    7  A    between atoms: C_14  and  C_16
REMARK    8  A    between atoms: C_17  and  O_18
REMARK    9  A    between atoms: O_18  and  C_19
REMARK   10  A    between atoms: C_21  and  O_22
REMARK   11  A    between atoms: O_22  and  C_23
REMARK                            x       y       z     vdW  Elec       q    Type
REMARK                         _______ _______ _______ _____ _____    ______ ____
ROOT
ATOM      1  C   UNL     1       2.337   8.115  18.543  0.00  0.00    +0.000 A 
ATOM      2  C   UNL     1       2.211   9.064  17.601  0.00  0.00    +0.000 A 
ATOM      3  O   UNL     1       1.790  10.345  17.803  0.00  0.00    +0.000 OA
ATOM      4  C   UNL     1       1.024  10.582  18.913  0.00  0.00    +0.000 A 
ATOM      5  C   UNL     1       0.482  11.865  19.019  0.00  0.00    +0.000 A 
ATOM      6  C   UNL     1      -0.549  12.089  19.946  0.00  0.00    +0.000 A 
ATOM      7  C   UNL     1      -0.935  11.047  20.795  0.00  0.00    +0.000 A 
ATOM      8  C   UNL     1      -0.254   9.808  20.791  0.00  0.00    +0.000 A 
ATOM      9  C   UNL     1       0.779   9.601  19.870  0.00  0.00    +0.000 A 
ATOM     10  C   UNL     1       1.758   8.480  19.872  0.00  0.00    +0.000 A 
ATOM     11  O   UNL     1       2.088   7.927  20.914  0.00  0.00    +0.000 OA
ENDROOT
BRANCH   1  15
ATOM     12  C   UNL     1       4.057   4.403  17.229  0.00  0.00    +0.000 A 
ATOM     13  C   UNL     1       4.832   5.553  17.284  0.00  0.00    +0.000 A 
ATOM     14  C   UNL     1       4.295   6.734  17.791  0.00  0.00    +0.000 A 
ATOM     15  C   UNL     1       2.949   6.813  18.199  0.00  0.00    +0.000 A 
ATOM     16  C   UNL     1       2.206   5.629  18.212  0.00  0.00    +0.000 A 
ATOM     17  C   UNL     1       2.754   4.432  17.729  0.00  0.00    +0.000 A 
BRANCH  12  19
ATOM     18  C   UNL     1       5.759   3.631  15.789  0.00  0.00    +0.000 C 
ATOM     19  O   UNL     1       4.672   3.333  16.645  0.00  0.00    +0.000 OA
ENDBRANCH  12  19
ENDBRANCH   1  15
BRANCH   6  20
ATOM     20  O   UNL     1      -1.077  13.348  19.914  0.00  0.00    +0.000 OA
ATOM     21  C   UNL     1      -2.195  13.646  20.732  0.00  0.00    +0.000 C 
ENDBRANCH   6  20
BRANCH   8  22
ATOM     22  O   UNL     1      -0.705   8.948  21.756  0.00  0.00    +0.000 OA
ATOM     23  C   UNL     1      -0.416   9.257  23.116  0.00  0.00    +0.000 C 
ENDBRANCH   8  22
BRANCH   5  24
ATOM     24  C   UNL     1       1.075  12.989  18.200  0.00  0.00    +0.000 C 
BRANCH  24  25
ATOM     25  C   UNL     1       2.324  13.580  18.776  0.00  0.00    +0.000 C 
ATOM     26  C   UNL     1       2.445  14.856  19.190  0.00  0.00    +0.000 C 
ATOM     27  C   UNL     1       1.327  15.867  19.170  0.00  0.00    +0.000 C 
ATOM     28  C   UNL     1       3.765  15.379  19.679  0.00  0.00    +0.000 C 
ENDBRANCH  24  25
ENDBRANCH   5  24
TORSDOF 6
ENDMDL
MODEL 4
REMARK VINA RESULT:      -6.5      1.372      1.678
REMARK  Name = 
REMARK  11 active torsions:
REMARK  status: ('A' for Active; 'I' for Inactive)
REMARK    1  A    between atoms: C_1  and  O_2
REMARK    2  A    between atoms: O_2  and  C_3
REMARK    3  A    between atoms: C_6  and  C_7
REMARK    4  A    between atoms: C_11  and  C_12
REMARK    5  A    between atoms: C_12  and  C_13
REMARK    6  A    between atoms: C_14  and  C_15
REMARK    7  A    between atoms: C_14  and  C_16
REMARK    8  A    between atoms: C_17  and  O_18
REMARK    9  A    between atoms: O_18  and  C_19
REMARK   10  A    between atoms: C_21  and  O_22
REMARK   11  A    between atoms: O_22  and  C_23
REMARK                            x       y       z     vdW  Elec       q    Type
REMARK                         _______ _______ _______ _____ _____    ______ ____
ROOT
ATOM      1  C   UNL     1       1.830   8.196  19.389  0.00  0.00    +0.000 A 
ATOM      2  C   UNL     1       2.010   8.895  18.256  0.00  0.00    +0.000 A 
ATOM      3  O   UNL     1       1.972  10.253  18.136  0.00  0.00    +0.000 OA
ATOM      4  C   UNL     1       1.277  10.944  19.092  0.00  0.00    +0.000 A 
ATOM      5  C   UNL     1       1.126  12.315  18.866  0.00  0.00    +0.000 A 
ATOM      6  C   UNL     1       0.178  13.025  19.622  0.00  0.00    +0.000 A 
ATOM      7  C   UNL     1      -0.515  12.357  20.636  0.00  0.00    +0.000 A 
ATOM      8  C   UNL     1      -0.222  11.014  20.964  0.00  0.00    +0.000 A 
ATOM      9  C   UNL     1       0.732  10.322  20.211  0.00  0.00    +0.000 A 
ATOM     10  C   UNL     1       1.344   9.007  20.547  0.00  0.00    +0.000 A 
ATOM     11  O   UNL     1       1.471   8.644  21.710  0.00  0.00    +0.000 OA
ENDROOT
BRANCH   1  15
ATOM     12  C   UNL     1       2.172   3.915  19.258  0.00  0.00    +0.000 A 
ATOM     13  C   UNL     1       2.556   4.682  18.167  0.00  0.00    +0.000 A 
ATOM     14  C   UNL     1       2.525   6.072  18.244  0.00  0.00    +0.000 A 
ATOM     15  C   UNL     1       2.048   6.733  19.393  0.00  0.00    +0.000 A 
ATOM     16  C   UNL     1       1.741   5.950  20.510  0.00  0.00    +0.000 A 
ATOM     17  C   UNL     1       1.799   4.551  20.444  0.00  0.00    +0.000 A 
BRANCH  12  19
ATOM     18  C   UNL     1       2.689   2.147  17.784  0.00  0.00    +0.000 C 
ATOM     19  O   UNL     1       2.176   2.568  19.034  0.00  0.00    +0.000 OA
ENDBRANCH  12  19
ENDBRANCH   1  15
BRANCH   6  20
ATOM     20  O   UNL     1       0.039  14.336  19.269  0.00  0.00    +0.000 OA
ATOM     21  C   UNL     1       0.351  15.340  20.218  0.00  0.00    +0.000 C 
ENDBRANCH   6  20
BRANCH   8  22
ATOM     22  O   UNL     1      -0.930  10.562  22.046  0.00  0.00    +0.000 OA
ATOM     23  C   UNL     1      -1.422  11.525  22.973  0.00  0.00    +0.000 C 
ENDBRANCH   8  22
BRANCH   5  24
ATOM     24  C   UNL     1       2.041  13.008  17.883  0.00  0.00    +0.000 C 
BRANCH  24  25
ATOM     25  C   UNL     1       3.326  13.499  18.474  0.00  0.00    +0.000 C 
ATOM     26  C   UNL     1       3.842  14.726  18.269  0.00  0.00    +0.000 C 
ATOM     27  C   UNL     1       3.182  15.799  17.442  0.00  0.00    +0.000 C 
ATOM     28  C   UNL     1       5.179  15.099  18.842  0.00  0.00    +0.000 C 
ENDBRANCH  24  25
ENDBRANCH   5  24
TORSDOF 6
ENDMDL
MODEL 5
REMARK VINA RESULT:      -6.4      5.663      9.897
REMARK  Name = 
REMARK  11 active torsions:
REMARK  status: ('A' for Active; 'I' for Inactive)
REMARK    1  A    between atoms: C_1  and  O_2
REMARK    2  A    between atoms: O_2  and  C_3
REMARK    3  A    between atoms: C_6  and  C_7
REMARK    4  A    between atoms: C_11  and  C_12
REMARK    5  A    between atoms: C_12  and  C_13
REMARK    6  A    between atoms: C_14  and  C_15
REMARK    7  A    between atoms: C_14  and  C_16
REMARK    8  A    between atoms: C_17  and  O_18
REMARK    9  A    between atoms: O_18  and  C_19
REMARK   10  A    between atoms: C_21  and  O_22
REMARK   11  A    between atoms: O_22  and  C_23
REMARK                            x       y       z     vdW  Elec       q    Type
REMARK                         _______ _______ _______ _____ _____    ______ ____
ROOT
ATOM      1  C   UNL     1      -3.105  13.464  21.812  0.00  0.00    +0.000 A 
ATOM      2  C   UNL     1      -4.300  13.691  21.241  0.00  0.00    +0.000 A 
ATOM      3  O   UNL     1      -4.836  12.996  20.197  0.00  0.00    +0.000 OA
ATOM      4  C   UNL     1      -3.963  12.332  19.377  0.00  0.00    +0.000 A 
ATOM      5  C   UNL     1      -4.520  11.754  18.233  0.00  0.00    +0.000 A 
ATOM      6  C   UNL     1      -3.664  11.334  17.202  0.00  0.00    +0.000 A 
ATOM      7  C   UNL     1      -2.281  11.423  17.393  0.00  0.00    +0.000 A 
ATOM      8  C   UNL     1      -1.736  11.848  18.625  0.00  0.00    +0.000 A 
ATOM      9  C   UNL     1      -2.601  12.253  19.648  0.00  0.00    +0.000 A 
ATOM     10  C   UNL     1      -2.239  12.496  21.072  0.00  0.00    +0.000 A 
ATOM     11  O   UNL     1      -1.309  11.900  21.601  0.00  0.00    +0.000 OA
ENDROOT
BRANCH   1  15
ATOM     12  C   UNL     1      -1.793  15.361  25.436  0.00  0.00    +0.000 A 
ATOM     13  C   UNL     1      -1.063  15.509  24.265  0.00  0.00    +0.000 A 
ATOM     14  C   UNL     1      -1.536  14.964  23.074  0.00  0.00    +0.000 A 
ATOM     15  C   UNL     1      -2.721  14.203  23.034  0.00  0.00    +0.000 A 
ATOM     16  C   UNL     1      -3.484  14.132  24.203  0.00  0.00    +0.000 A 
ATOM     17  C   UNL     1      -3.024  14.703  25.397  0.00  0.00    +0.000 A 
BRANCH  12  19
ATOM     18  C   UNL     1      -0.109  16.760  26.317  0.00  0.00    +0.000 C 
ATOM     19  O   UNL     1      -1.190  15.875  26.548  0.00  0.00    +0.000 OA
ENDBRANCH  12  19
ENDBRANCH   1  15
BRANCH   6  20
ATOM     20  O   UNL     1      -4.302  10.867  16.090  0.00  0.00    +0.000 OA
ATOM     21  C   UNL     1      -3.533  10.305  15.041  0.00  0.00    +0.000 C 
ENDBRANCH   6  20
BRANCH   8  22
ATOM     22  O   UNL     1      -0.369  11.775  18.659  0.00  0.00    +0.000 OA
ATOM     23  C   UNL     1       0.367  12.988  18.537  0.00  0.00    +0.000 C 
ENDBRANCH   8  22
BRANCH   5  24
ATOM     24  C   UNL     1      -6.012  11.520  18.174  0.00  0.00    +0.000 C 
BRANCH  24  25
ATOM     25  C   UNL     1      -6.452  10.199  18.725  0.00  0.00    +0.000 C 
ATOM     26  C   UNL     1      -7.155  10.041  19.864  0.00  0.00    +0.000 C 
ATOM     27  C   UNL     1      -7.635  11.177  20.731  0.00  0.00    +0.000 C 
ATOM     28  C   UNL     1      -7.481   8.669  20.377  0.00  0.00    +0.000 C 
ENDBRANCH  24  25
ENDBRANCH   5  24
TORSDOF 6
ENDMDL
MODEL 6
REMARK VINA RESULT:      -6.4      2.182      4.602
REMARK  Name = 
REMARK  11 active torsions:
REMARK  status: ('A' for Active; 'I' for Inactive)
REMARK    1  A    between atoms: C_1  and  O_2
REMARK    2  A    between atoms: O_2  and  C_3
REMARK    3  A    between atoms: C_6  and  C_7
REMARK    4  A    between atoms: C_11  and  C_12
REMARK    5  A    between atoms: C_12  and  C_13
REMARK    6  A    between atoms: C_14  and  C_15
REMARK    7  A    between atoms: C_14  and  C_16
REMARK    8  A    between atoms: C_17  and  O_18
REMARK    9  A    between atoms: O_18  and  C_19
REMARK   10  A    between atoms: C_21  and  O_22
REMARK   11  A    between atoms: O_22  and  C_23
REMARK                            x       y       z     vdW  Elec       q    Type
REMARK                         _______ _______ _______ _____ _____    ______ ____
ROOT
ATOM      1  C   UNL     1       1.111   8.849  20.441  0.00  0.00    +0.000 A 
ATOM      2  C   UNL     1       0.852   9.092  21.736  0.00  0.00    +0.000 A 
ATOM      3  O   UNL     1       0.143  10.148  22.228  0.00  0.00    +0.000 OA
ATOM      4  C   UNL     1       0.065  11.267  21.443  0.00  0.00    +0.000 A 
ATOM      5  C   UNL     1      -0.536  12.384  22.028  0.00  0.00    +0.000 A 
ATOM      6  C   UNL     1      -0.377  13.637  21.415  0.00  0.00    +0.000 A 
ATOM      7  C   UNL     1       0.298  13.711  20.193  0.00  0.00    +0.000 A 
ATOM      8  C   UNL     1       0.747  12.547  19.531  0.00  0.00    +0.000 A 
ATOM      9  C   UNL     1       0.573  11.303  20.147  0.00  0.00    +0.000 A 
ATOM     10  C   UNL     1       0.752   9.967  19.516  0.00  0.00    +0.000 A 
ATOM     11  O   UNL     1       0.572   9.802  18.315  0.00  0.00    +0.000 OA
ENDROOT
BRANCH   1  15
ATOM     12  C   UNL     1       2.762   5.117  19.096  0.00  0.00    +0.000 A 
ATOM     13  C   UNL     1       3.005   6.285  18.387  0.00  0.00    +0.000 A 
ATOM     14  C   UNL     1       2.540   7.505  18.872  0.00  0.00    +0.000 A 
ATOM     15  C   UNL     1       1.766   7.582  20.047  0.00  0.00    +0.000 A 
ATOM     16  C   UNL     1       1.600   6.409  20.790  0.00  0.00    +0.000 A 
ATOM     17  C   UNL     1       2.091   5.185  20.318  0.00  0.00    +0.000 A 
BRANCH  12  19
ATOM     18  C   UNL     1       4.569   3.659  18.673  0.00  0.00    +0.000 C 
ATOM     19  O   UNL     1       3.204   3.980  18.481  0.00  0.00    +0.000 OA
ENDBRANCH  12  19
ENDBRANCH   1  15
BRANCH   6  20
ATOM     20  O   UNL     1      -0.922  14.680  22.106  0.00  0.00    +0.000 OA
ATOM     21  C   UNL     1      -1.835  15.540  21.447  0.00  0.00    +0.000 C 
ENDBRANCH   6  20
BRANCH   8  22
ATOM     22  O   UNL     1       1.295  12.807  18.303  0.00  0.00    +0.000 OA
ATOM     23  C   UNL     1       2.694  13.065  18.237  0.00  0.00    +0.000 C 
ENDBRANCH   8  22
BRANCH   5  24
ATOM     24  C   UNL     1      -1.408  12.199  23.249  0.00  0.00    +0.000 C 
BRANCH  24  25
ATOM     25  C   UNL     1      -2.878  12.222  22.968  0.00  0.00    +0.000 C 
ATOM     26  C   UNL     1      -3.760  13.043  23.570  0.00  0.00    +0.000 C 
ATOM     27  C   UNL     1      -3.388  14.090  24.589  0.00  0.00    +0.000 C 
ATOM     28  C   UNL     1      -5.228  12.935  23.278  0.00  0.00    +0.000 C 
ENDBRANCH  24  25
ENDBRANCH   5  24
TORSDOF 6
ENDMDL
MODEL 7
REMARK VINA RESULT:      -6.4      2.187      4.488
REMARK  Name = 
REMARK  11 active torsions:
REMARK  status: ('A' for Active; 'I' for Inactive)
REMARK    1  A    between atoms: C_1  and  O_2
REMARK    2  A    between atoms: O_2  and  C_3
REMARK    3  A    between atoms: C_6  and  C_7
REMARK    4  A    between atoms: C_11  and  C_12
REMARK    5  A    between atoms: C_12  and  C_13
REMARK    6  A    between atoms: C_14  and  C_15
REMARK    7  A    between atoms: C_14  and  C_16
REMARK    8  A    between atoms: C_17  and  O_18
REMARK    9  A    between atoms: O_18  and  C_19
REMARK   10  A    between atoms: C_21  and  O_22
REMARK   11  A    between atoms: O_22  and  C_23
REMARK                            x       y       z     vdW  Elec       q    Type
REMARK                         _______ _______ _______ _____ _____    ______ ____
ROOT
ATOM      1  C   UNL     1       1.156   8.779  20.334  0.00  0.00    +0.000 A 
ATOM      2  C   UNL     1       0.878   9.001  21.629  0.00  0.00    +0.000 A 
ATOM      3  O   UNL     1       0.185  10.063  22.130  0.00  0.00    +0.000 OA
ATOM      4  C   UNL     1       0.150  11.200  21.369  0.00  0.00    +0.000 A 
ATOM      5  C   UNL     1      -0.435  12.319  21.967  0.00  0.00    +0.000 A 
ATOM      6  C   UNL     1      -0.233  13.581  21.385  0.00  0.00    +0.000 A 
ATOM      7  C   UNL     1       0.467  13.664  20.178  0.00  0.00    +0.000 A 
ATOM      8  C   UNL     1       0.900  12.503  19.498  0.00  0.00    +0.000 A 
ATOM      9  C   UNL     1       0.683  11.251  20.084  0.00  0.00    +0.000 A 
ATOM     10  C   UNL     1       0.842   9.925  19.427  0.00  0.00    +0.000 A 
ATOM     11  O   UNL     1       0.682   9.791  18.220  0.00  0.00    +0.000 OA
ENDROOT
BRANCH   1  15
ATOM     12  C   UNL     1       3.226   5.140  19.363  0.00  0.00    +0.000 A 
ATOM     13  C   UNL     1       2.324   5.173  20.418  0.00  0.00    +0.000 A 
ATOM     14  C   UNL     1       1.593   6.330  20.676  0.00  0.00    +0.000 A 
ATOM     15  C   UNL     1       1.788   7.505  19.924  0.00  0.00    +0.000 A 
ATOM     16  C   UNL     1       2.638   7.431  18.817  0.00  0.00    +0.000 A 
ATOM     17  C   UNL     1       3.355   6.260  18.539  0.00  0.00    +0.000 A 
BRANCH  12  19
ATOM     18  C   UNL     1       3.551   2.935  20.136  0.00  0.00    +0.000 C 
ATOM     19  O   UNL     1       3.934   3.978  19.259  0.00  0.00    +0.000 OA
ENDBRANCH  12  19
ENDBRANCH   1  15
BRANCH   6  20
ATOM     20  O   UNL     1      -0.766  14.622  22.089  0.00  0.00    +0.000 OA
ATOM     21  C   UNL     1      -1.558  15.578  21.407  0.00  0.00    +0.000 C 
ENDBRANCH   6  20
BRANCH   8  22
ATOM     22  O   UNL     1       1.478  12.776  18.287  0.00  0.00    +0.000 OA
ATOM     23  C   UNL     1       2.832  13.217  18.277  0.00  0.00    +0.000 C 
ENDBRANCH   8  22
BRANCH   5  24
ATOM     24  C   UNL     1      -1.334  12.130  23.168  0.00  0.00    +0.000 C 
BRANCH  24  25
ATOM     25  C   UNL     1      -2.798  12.188  22.858  0.00  0.00    +0.000 C 
ATOM     26  C   UNL     1      -3.672  13.024  23.450  0.00  0.00    +0.000 C 
ATOM     27  C   UNL     1      -3.297  14.053  24.485  0.00  0.00    +0.000 C 
ATOM     28  C   UNL     1      -5.137  12.951  23.129  0.00  0.00    +0.000 C 
ENDBRANCH  24  25
ENDBRANCH   5  24
TORSDOF 6
ENDMDL
MODEL 8
REMARK VINA RESULT:      -6.2      1.815      8.147
REMARK  Name = 
REMARK  11 active torsions:
REMARK  status: ('A' for Active; 'I' for Inactive)
REMARK    1  A    between atoms: C_1  and  O_2
REMARK    2  A    between atoms: O_2  and  C_3
REMARK    3  A    between atoms: C_6  and  C_7
REMARK    4  A    between atoms: C_11  and  C_12
REMARK    5  A    between atoms: C_12  and  C_13
REMARK    6  A    between atoms: C_14  and  C_15
REMARK    7  A    between atoms: C_14  and  C_16
REMARK    8  A    between atoms: C_17  and  O_18
REMARK    9  A    between atoms: O_18  and  C_19
REMARK   10  A    between atoms: C_21  and  O_22
REMARK   11  A    between atoms: O_22  and  C_23
REMARK                            x       y       z     vdW  Elec       q    Type
REMARK                         _______ _______ _______ _____ _____    ______ ____
ROOT
ATOM      1  C   UNL     1       1.155  12.650  19.020  0.00  0.00    +0.000 A 
ATOM      2  C   UNL     1       1.954  11.969  18.184  0.00  0.00    +0.000 A 
ATOM      3  O   UNL     1       2.041  10.612  18.084  0.00  0.00    +0.000 OA
ATOM      4  C   UNL     1       1.653   9.880  19.175  0.00  0.00    +0.000 A 
ATOM      5  C   UNL     1       1.892   8.505  19.105  0.00  0.00    +0.000 A 
ATOM      6  C   UNL     1       1.812   7.745  20.283  0.00  0.00    +0.000 A 
ATOM      7  C   UNL     1       1.408   8.370  21.466  0.00  0.00    +0.000 A 
ATOM      8  C   UNL     1       1.002   9.723  21.479  0.00  0.00    +0.000 A 
ATOM      9  C   UNL     1       1.076  10.468  20.297  0.00  0.00    +0.000 A 
ATOM     10  C   UNL     1       0.477  11.809  20.054  0.00  0.00    +0.000 A 
ATOM     11  O   UNL     1      -0.533  12.170  20.645  0.00  0.00    +0.000 OA
ENDROOT
BRANCH   1  15
ATOM     12  C   UNL     1       0.839  16.887  18.380  0.00  0.00    +0.000 A 
ATOM     13  C   UNL     1      -0.304  16.117  18.546  0.00  0.00    +0.000 A 
ATOM     14  C   UNL     1      -0.195  14.760  18.838  0.00  0.00    +0.000 A 
ATOM     15  C   UNL     1       1.059  14.122  18.911  0.00  0.00    +0.000 A 
ATOM     16  C   UNL     1       2.200  14.926  18.822  0.00  0.00    +0.000 A 
ATOM     17  C   UNL     1       2.092  16.298  18.555  0.00  0.00    +0.000 A 
BRANCH  12  19
ATOM     18  C   UNL     1      -0.028  18.381  16.772  0.00  0.00    +0.000 C 
ATOM     19  O   UNL     1       0.602  18.184  18.025  0.00  0.00    +0.000 OA
ENDBRANCH  12  19
ENDBRANCH   1  15
BRANCH   6  20
ATOM     20  O   UNL     1       2.149   6.430  20.133  0.00  0.00    +0.000 OA
ATOM     21  C   UNL     1       1.361   5.441  20.771  0.00  0.00    +0.000 C 
ENDBRANCH   6  20
BRANCH   8  22
ATOM     22  O   UNL     1       0.546  10.133  22.703  0.00  0.00    +0.000 OA
ATOM     23  C   UNL     1      -0.762   9.730  23.098  0.00  0.00    +0.000 C 
ENDBRANCH   8  22
BRANCH   5  24
ATOM     24  C   UNL     1       2.142   7.866  17.758  0.00  0.00    +0.000 C 
BRANCH  24  25
ATOM     25  C   UNL     1       3.588   7.750  17.389  0.00  0.00    +0.000 C 
ATOM     26  C   UNL     1       4.262   6.588  17.291  0.00  0.00    +0.000 C 
ATOM     27  C   UNL     1       3.648   5.228  17.503  0.00  0.00    +0.000 C 
ATOM     28  C   UNL     1       5.733   6.581  16.992  0.00  0.00    +0.000 C 
ENDBRANCH  24  25
ENDBRANCH   5  24
TORSDOF 6
ENDMDL
MODEL 9
REMARK VINA RESULT:      -6.2      2.495      8.855
REMARK  Name = 
REMARK  11 active torsions:
REMARK  status: ('A' for Active; 'I' for Inactive)
REMARK    1  A    between atoms: C_1  and  O_2
REMARK    2  A    between atoms: O_2  and  C_3
REMARK    3  A    between atoms: C_6  and  C_7
REMARK    4  A    between atoms: C_11  and  C_12
REMARK    5  A    between atoms: C_12  and  C_13
REMARK    6  A    between atoms: C_14  and  C_15
REMARK    7  A    between atoms: C_14  and  C_16
REMARK    8  A    between atoms: C_17  and  O_18
REMARK    9  A    between atoms: O_18  and  C_19
REMARK   10  A    between atoms: C_21  and  O_22
REMARK   11  A    between atoms: O_22  and  C_23
REMARK                            x       y       z     vdW  Elec       q    Type
REMARK                         _______ _______ _______ _____ _____    ______ ____
ROOT
ATOM      1  C   UNL     1      -0.361  10.946  22.087  0.00  0.00    +0.000 A 
ATOM      2  C   UNL     1      -0.480   9.626  22.303  0.00  0.00    +0.000 A 
ATOM      3  O   UNL     1       0.320   8.652  21.782  0.00  0.00    +0.000 OA
ATOM      4  C   UNL     1       0.997   8.952  20.629  0.00  0.00    +0.000 A 
ATOM      5  C   UNL     1       1.689   7.894  20.034  0.00  0.00    +0.000 A 
ATOM      6  C   UNL     1       2.139   8.039  18.712  0.00  0.00    +0.000 A 
ATOM      7  C   UNL     1       1.962   9.267  18.068  0.00  0.00    +0.000 A 
ATOM      8  C   UNL     1       1.417  10.380  18.747  0.00  0.00    +0.000 A 
ATOM      9  C   UNL     1       0.981  10.225  20.068  0.00  0.00    +0.000 A 
ATOM     10  C   UNL     1       0.612  11.314  21.014  0.00  0.00    +0.000 A 
ATOM     11  O   UNL     1       1.115  12.427  20.928  0.00  0.00    +0.000 OA
ENDROOT
BRANCH   1  15
ATOM     12  C   UNL     1      -2.987  13.761  23.996  0.00  0.00    +0.000 A 
ATOM     13  C   UNL     1      -3.369  12.435  23.850  0.00  0.00    +0.000 A 
ATOM     14  C   UNL     1      -2.482  11.508  23.308  0.00  0.00    +0.000 A 
ATOM     15  C   UNL     1      -1.211  11.894  22.841  0.00  0.00    +0.000 A 
ATOM     16  C   UNL     1      -0.811  13.214  23.068  0.00  0.00    +0.000 A 
ATOM     17  C   UNL     1      -1.692  14.143  23.639  0.00  0.00    +0.000 A 
BRANCH  12  19
ATOM     18  C   UNL     1      -4.527  15.487  23.534  0.00  0.00    +0.000 C 
ATOM     19  O   UNL     1      -3.967  14.584  24.470  0.00  0.00    +0.000 OA
ENDBRANCH  12  19
ENDBRANCH   1  15
BRANCH   6  20
ATOM     20  O   UNL     1       2.724   6.923  18.187  0.00  0.00    +0.000 OA
ATOM     21  C   UNL     1       3.997   7.036  17.576  0.00  0.00    +0.000 C 
ENDBRANCH   6  20
BRANCH   8  22
ATOM     22  O   UNL     1       1.413  11.520  17.989  0.00  0.00    +0.000 OA
ATOM     23  C   UNL     1       2.576  12.342  18.012  0.00  0.00    +0.000 C 
ENDBRANCH   8  22
BRANCH   5  24
ATOM     24  C   UNL     1       2.007   6.664  20.854  0.00  0.00    +0.000 C 
BRANCH  24  25
ATOM     25  C   UNL     1       1.178   5.465  20.515  0.00  0.00    +0.000 C 
ATOM     26  C   UNL     1       1.677   4.260  20.178  0.00  0.00    +0.000 C 
ATOM     27  C   UNL     1       3.147   3.932  20.131  0.00  0.00    +0.000 C 
ATOM     28  C   UNL     1       0.764   3.138  19.776  0.00  0.00    +0.000 C 
ENDBRANCH  24  25
ENDBRANCH   5  24
TORSDOF 6
ENDMDL
