MODEL 1
REMARK VINA RESULT:      -7.9      0.000      0.000
REMARK  Name = 
REMARK  9 active torsions:
REMARK  status: ('A' for Active; 'I' for Inactive)
REMARK    1  A    between atoms: C_1  and  C_2
REMARK    2  A    between atoms: C_2  and  O_3
REMARK    3  A    between atoms: O_3  and  C_4
REMARK    4  A    between atoms: C_4  and  C_6
REMARK    5  A    between atoms: C_6  and  C_7
REMARK    6  A    between atoms: C_6  and  N_13
REMARK    7  A    between atoms: C_7  and  N_8
REMARK    8  A    between atoms: C_14  and  C_16
REMARK    9  A    between atoms: C_19  and  C_20
REMARK                            x       y       z     vdW  Elec       q    Type
REMARK                         _______ _______ _______ _____ _____    ______ ____
ROOT
ATOM      1  N   UNL     1       3.451   5.511  18.324  0.00  0.00    +0.000 N 
ATOM      2  C   UNL     1       3.396   6.831  17.934  0.00  0.00    +0.000 C 
ATOM      3  O   UNL     1       3.999   7.261  16.960  0.00  0.00    +0.000 OA
ATOM      4  H   UNL     1       2.861   5.179  19.083  0.00  0.00    +0.000 HD
ENDROOT
BRANCH   2   5
ATOM      5  C   UNL     1       2.490   7.701  18.720  0.00  0.00    +0.000 A 
ATOM      6  C   UNL     1       2.135   7.382  20.031  0.00  0.00    +0.000 A 
ATOM      7  C   UNL     1       1.255   8.208  20.734  0.00  0.00    +0.000 A 
ATOM      8  C   UNL     1       0.724   9.384  20.171  0.00  0.00    +0.000 A 
ATOM      9  C   UNL     1       1.103   9.690  18.850  0.00  0.00    +0.000 A 
ATOM     10  C   UNL     1       1.976   8.861  18.131  0.00  0.00    +0.000 A 
BRANCH   8  11
ATOM     11  C   UNL     1      -0.190  10.250  20.955  0.00  0.00    +0.000 A 
ATOM     12  C   UNL     1      -0.904  11.296  20.338  0.00  0.00    +0.000 A 
ATOM     13  C   UNL     1      -1.726  12.159  21.068  0.00  0.00    +0.000 A 
ATOM     14  C   UNL     1      -1.876  11.981  22.437  0.00  0.00    +0.000 A 
ATOM     15  C   UNL     1      -1.206  10.939  23.073  0.00  0.00    +0.000 A 
ATOM     16  C   UNL     1      -0.371  10.087  22.340  0.00  0.00    +0.000 A 
ENDBRANCH   8  11
ENDBRANCH   2   5
BRANCH   1  17
ATOM     17  C   UNL     1       4.222   4.492  17.598  0.00  0.00    +0.000 C 
BRANCH  17  18
ATOM     18  C   UNL     1       5.624   4.447  18.220  0.00  0.00    +0.000 C 
ATOM     19  O   UNL     1       5.876   3.907  19.293  0.00  0.00    +0.000 OA
BRANCH  18  20
ATOM     20  O   UNL     1       6.535   5.108  17.452  0.00  0.00    +0.000 OA
BRANCH  20  22
ATOM     21  C   UNL     1       7.523   7.302  17.551  0.00  0.00    +0.000 C 
ATOM     22  C   UNL     1       7.490   5.917  18.158  0.00  0.00    +0.000 C 
ENDBRANCH  20  22
ENDBRANCH  18  20
ENDBRANCH  17  18
BRANCH  17  23
ATOM     23  C   UNL     1       3.548   3.109  17.586  0.00  0.00    +0.000 C 
BRANCH  23  24
ATOM     24  N   UNL     1       2.585   2.928  18.655  0.00  0.00    +0.000 N 
ATOM     25  C   UNL     1       2.856   2.553  19.940  0.00  0.00    +0.000 A 
ATOM     26  C   UNL     1       1.648   2.614  20.590  0.00  0.00    +0.000 A 
ATOM     27  N   UNL     1       0.647   2.962  19.722  0.00  0.00    +0.000 NA
ATOM     28  C   UNL     1       1.235   3.115  18.558  0.00  0.00    +0.000 A 
ENDBRANCH  23  24
ENDBRANCH  17  23
ENDBRANCH   1  17
TORSDOF 8
ENDMDL
MODEL 2
REMARK VINA RESULT:      -7.9      0.939      1.473
REMARK  Name = 
REMARK  9 active torsions:
REMARK  status: ('A' for Active; 'I' for Inactive)
REMARK    1  A    between atoms: C_1  and  C_2
REMARK    2  A    between atoms: C_2  and  O_3
REMARK    3  A    between atoms: O_3  and  C_4
REMARK    4  A    between atoms: C_4  and  C_6
REMARK    5  A    between atoms: C_6  and  C_7
REMARK    6  A    between atoms: C_6  and  N_13
REMARK    7  A    between atoms: C_7  and  N_8
REMARK    8  A    between atoms: C_14  and  C_16
REMARK    9  A    between atoms: C_19  and  C_20
REMARK                            x       y       z     vdW  Elec       q    Type
REMARK                         _______ _______ _______ _____ _____    ______ ____
ROOT
ATOM      1  N   UNL     1       3.643   5.509  18.289  0.00  0.00    +0.000 N 
ATOM      2  C   UNL     1       3.452   6.794  17.832  0.00  0.00    +0.000 C 
ATOM      3  O   UNL     1       3.939   7.209  16.789  0.00  0.00    +0.000 OA
ATOM      4  H   UNL     1       3.143   5.180  19.111  0.00  0.00    +0.000 HD
ENDROOT
BRANCH   2   5
ATOM      5  C   UNL     1       2.543   7.640  18.642  0.00  0.00    +0.000 A 
ATOM      6  C   UNL     1       1.974   8.801  18.116  0.00  0.00    +0.000 A 
ATOM      7  C   UNL     1       1.146   9.593  18.915  0.00  0.00    +0.000 A 
ATOM      8  C   UNL     1       0.837   9.246  20.244  0.00  0.00    +0.000 A 
ATOM      9  C   UNL     1       1.416   8.067  20.750  0.00  0.00    +0.000 A 
ATOM     10  C   UNL     1       2.259   7.271  19.960  0.00  0.00    +0.000 A 
BRANCH   8  11
ATOM     11  C   UNL     1      -0.065  10.099  21.056  0.00  0.00    +0.000 A 
ATOM     12  C   UNL     1      -0.697  11.226  20.493  0.00  0.00    +0.000 A 
ATOM     13  C   UNL     1      -1.504  12.076  21.254  0.00  0.00    +0.000 A 
ATOM     14  C   UNL     1      -1.722  11.804  22.599  0.00  0.00    +0.000 A 
ATOM     15  C   UNL     1      -1.136  10.683  23.178  0.00  0.00    +0.000 A 
ATOM     16  C   UNL     1      -0.314   9.843  22.416  0.00  0.00    +0.000 A 
ENDBRANCH   8  11
ENDBRANCH   2   5
BRANCH   1  17
ATOM     17  C   UNL     1       4.434   4.509  17.558  0.00  0.00    +0.000 C 
BRANCH  17  18
ATOM     18  C   UNL     1       5.840   4.496  18.173  0.00  0.00    +0.000 C 
ATOM     19  O   UNL     1       6.058   4.605  19.376  0.00  0.00    +0.000 OA
BRANCH  18  20
ATOM     20  O   UNL     1       6.805   4.386  17.217  0.00  0.00    +0.000 OA
BRANCH  20  22
ATOM     21  C   UNL     1       6.982   4.642  14.830  0.00  0.00    +0.000 C 
ATOM     22  C   UNL     1       6.749   5.345  16.148  0.00  0.00    +0.000 C 
ENDBRANCH  20  22
ENDBRANCH  18  20
ENDBRANCH  17  18
BRANCH  17  23
ATOM     23  C   UNL     1       3.793   3.110  17.548  0.00  0.00    +0.000 C 
BRANCH  23  24
ATOM     24  N   UNL     1       2.773   2.937  18.565  0.00  0.00    +0.000 N 
ATOM     25  C   UNL     1       1.422   3.045  18.389  0.00  0.00    +0.000 A 
ATOM     26  C   UNL     1       0.878   2.703  19.603  0.00  0.00    +0.000 A 
ATOM     27  N   UNL     1       1.862   2.446  20.520  0.00  0.00    +0.000 NA
ATOM     28  C   UNL     1       2.993   2.624  19.876  0.00  0.00    +0.000 A 
ENDBRANCH  23  24
ENDBRANCH  17  23
ENDBRANCH   1  17
TORSDOF 8
ENDMDL
MODEL 3
REMARK VINA RESULT:      -7.8      1.862      3.982
REMARK  Name = 
REMARK  9 active torsions:
REMARK  status: ('A' for Active; 'I' for Inactive)
REMARK    1  A    between atoms: C_1  and  C_2
REMARK    2  A    between atoms: C_2  and  O_3
REMARK    3  A    between atoms: O_3  and  C_4
REMARK    4  A    between atoms: C_4  and  C_6
REMARK    5  A    between atoms: C_6  and  C_7
REMARK    6  A    between atoms: C_6  and  N_13
REMARK    7  A    between atoms: C_7  and  N_8
REMARK    8  A    between atoms: C_14  and  C_16
REMARK    9  A    between atoms: C_19  and  C_20
REMARK                            x       y       z     vdW  Elec       q    Type
REMARK                         _______ _______ _______ _____ _____    ______ ____
ROOT
ATOM      1  N   UNL     1       3.406   5.481  18.709  0.00  0.00    +0.000 N 
ATOM      2  C   UNL     1       3.551   6.751  18.199  0.00  0.00    +0.000 C 
ATOM      3  O   UNL     1       4.427   7.050  17.398  0.00  0.00    +0.000 OA
ATOM      4  H   UNL     1       2.609   5.256  19.298  0.00  0.00    +0.000 HD
ENDROOT
BRANCH   2   5
ATOM      5  C   UNL     1       2.525   7.737  18.613  0.00  0.00    +0.000 A 
ATOM      6  C   UNL     1       2.001   8.661  17.707  0.00  0.00    +0.000 A 
ATOM      7  C   UNL     1       1.056   9.596  18.137  0.00  0.00    +0.000 A 
ATOM      8  C   UNL     1       0.586   9.627  19.463  0.00  0.00    +0.000 A 
ATOM      9  C   UNL     1       1.122   8.680  20.356  0.00  0.00    +0.000 A 
ATOM     10  C   UNL     1       2.080   7.745  19.938  0.00  0.00    +0.000 A 
BRANCH   8  11
ATOM     11  C   UNL     1      -0.435  10.620  19.878  0.00  0.00    +0.000 A 
ATOM     12  C   UNL     1      -0.521  11.055  21.216  0.00  0.00    +0.000 A 
ATOM     13  C   UNL     1      -1.511  11.946  21.640  0.00  0.00    +0.000 A 
ATOM     14  C   UNL     1      -2.429  12.447  20.727  0.00  0.00    +0.000 A 
ATOM     15  C   UNL     1      -2.355  12.060  19.392  0.00  0.00    +0.000 A 
ATOM     16  C   UNL     1      -1.372  11.154  18.975  0.00  0.00    +0.000 A 
ENDBRANCH   8  11
ENDBRANCH   2   5
BRANCH   1  17
ATOM     17  C   UNL     1       4.277   4.360  18.328  0.00  0.00    +0.000 C 
BRANCH  17  18
ATOM     18  C   UNL     1       3.922   3.173  19.235  0.00  0.00    +0.000 C 
ATOM     19  O   UNL     1       4.735   2.597  19.951  0.00  0.00    +0.000 OA
BRANCH  18  20
ATOM     20  O   UNL     1       2.609   2.826  19.117  0.00  0.00    +0.000 OA
BRANCH  20  22
ATOM     21  C   UNL     1       1.503   3.639  21.094  0.00  0.00    +0.000 C 
ATOM     22  C   UNL     1       1.952   2.416  20.327  0.00  0.00    +0.000 C 
ENDBRANCH  20  22
ENDBRANCH  18  20
ENDBRANCH  17  18
BRANCH  17  23
ATOM     23  C   UNL     1       4.189   3.996  16.836  0.00  0.00    +0.000 C 
BRANCH  23  24
ATOM     24  N   UNL     1       5.418   4.247  16.109  0.00  0.00    +0.000 N 
ATOM     25  C   UNL     1       5.560   4.327  14.752  0.00  0.00    +0.000 A 
ATOM     26  C   UNL     1       6.874   4.673  14.552  0.00  0.00    +0.000 A 
ATOM     27  N   UNL     1       7.542   4.749  15.746  0.00  0.00    +0.000 NA
ATOM     28  C   UNL     1       6.649   4.457  16.663  0.00  0.00    +0.000 A 
ENDBRANCH  23  24
ENDBRANCH  17  23
ENDBRANCH   1  17
TORSDOF 8
ENDMDL
MODEL 4
REMARK VINA RESULT:      -7.8      0.849      1.066
REMARK  Name = 
REMARK  9 active torsions:
REMARK  status: ('A' for Active; 'I' for Inactive)
REMARK    1  A    between atoms: C_1  and  C_2
REMARK    2  A    between atoms: C_2  and  O_3
REMARK    3  A    between atoms: O_3  and  C_4
REMARK    4  A    between atoms: C_4  and  C_6
REMARK    5  A    between atoms: C_6  and  C_7
REMARK    6  A    between atoms: C_6  and  N_13
REMARK    7  A    between atoms: C_7  and  N_8
REMARK    8  A    between atoms: C_14  and  C_16
REMARK    9  A    between atoms: C_19  and  C_20
REMARK                            x       y       z     vdW  Elec       q    Type
REMARK                         _______ _______ _______ _____ _____    ______ ____
ROOT
ATOM      1  N   UNL     1       4.046   5.763  19.221  0.00  0.00    +0.000 N 
ATOM      2  C   UNL     1       3.316   6.605  18.412  0.00  0.00    +0.000 C 
ATOM      3  O   UNL     1       3.352   6.551  17.190  0.00  0.00    +0.000 OA
ATOM      4  H   UNL     1       3.914   5.782  20.229  0.00  0.00    +0.000 HD
ENDROOT
BRANCH   2   5
ATOM      5  C   UNL     1       2.404   7.543  19.110  0.00  0.00    +0.000 A 
ATOM      6  C   UNL     1       2.008   7.322  20.430  0.00  0.00    +0.000 A 
ATOM      7  C   UNL     1       1.124   8.208  21.048  0.00  0.00    +0.000 A 
ATOM      8  C   UNL     1       0.628   9.350  20.389  0.00  0.00    +0.000 A 
ATOM      9  C   UNL     1       1.047   9.556  19.061  0.00  0.00    +0.000 A 
ATOM     10  C   UNL     1       1.925   8.665  18.427  0.00  0.00    +0.000 A 
BRANCH   8  11
ATOM     11  C   UNL     1      -0.292  10.282  21.086  0.00  0.00    +0.000 A 
ATOM     12  C   UNL     1      -0.971  11.294  20.377  0.00  0.00    +0.000 A 
ATOM     13  C   UNL     1      -1.797  12.218  21.022  0.00  0.00    +0.000 A 
ATOM     14  C   UNL     1      -1.987  12.139  22.395  0.00  0.00    +0.000 A 
ATOM     15  C   UNL     1      -1.352  11.134  23.121  0.00  0.00    +0.000 A 
ATOM     16  C   UNL     1      -0.512  10.220  22.473  0.00  0.00    +0.000 A 
ENDBRANCH   8  11
ENDBRANCH   2   5
BRANCH   1  17
ATOM     17  C   UNL     1       4.925   4.710  18.695  0.00  0.00    +0.000 C 
BRANCH  17  18
ATOM     18  C   UNL     1       6.374   5.172  18.902  0.00  0.00    +0.000 C 
ATOM     19  O   UNL     1       6.878   5.357  20.006  0.00  0.00    +0.000 OA
BRANCH  18  20
ATOM     20  O   UNL     1       7.008   5.383  17.714  0.00  0.00    +0.000 OA
BRANCH  20  22
ATOM     21  C   UNL     1       7.726   7.681  17.668  0.00  0.00    +0.000 C 
ATOM     22  C   UNL     1       6.775   6.656  17.090  0.00  0.00    +0.000 C 
ENDBRANCH  20  22
ENDBRANCH  18  20
ENDBRANCH  17  18
BRANCH  17  23
ATOM     23  C   UNL     1       4.663   3.327  19.317  0.00  0.00    +0.000 C 
BRANCH  23  24
ATOM     24  N   UNL     1       3.255   2.989  19.397  0.00  0.00    +0.000 N 
ATOM     25  C   UNL     1       2.431   2.682  18.350  0.00  0.00    +0.000 A 
ATOM     26  C   UNL     1       1.233   2.344  18.930  0.00  0.00    +0.000 A 
ATOM     27  N   UNL     1       1.293   2.493  20.290  0.00  0.00    +0.000 NA
ATOM     28  C   UNL     1       2.512   2.912  20.540  0.00  0.00    +0.000 A 
ENDBRANCH  23  24
ENDBRANCH  17  23
ENDBRANCH   1  17
TORSDOF 8
ENDMDL
MODEL 5
REMARK VINA RESULT:      -7.8      1.008      1.792
REMARK  Name = 
REMARK  9 active torsions:
REMARK  status: ('A' for Active; 'I' for Inactive)
REMARK    1  A    between atoms: C_1  and  C_2
REMARK    2  A    between atoms: C_2  and  O_3
REMARK    3  A    between atoms: O_3  and  C_4
REMARK    4  A    between atoms: C_4  and  C_6
REMARK    5  A    between atoms: C_6  and  C_7
REMARK    6  A    between atoms: C_6  and  N_13
REMARK    7  A    between atoms: C_7  and  N_8
REMARK    8  A    between atoms: C_14  and  C_16
REMARK    9  A    between atoms: C_19  and  C_20
REMARK                            x       y       z     vdW  Elec       q    Type
REMARK                         _______ _______ _______ _____ _____    ______ ____
ROOT
ATOM      1  N   UNL     1       3.982   5.519  19.139  0.00  0.00    +0.000 N 
ATOM      2  C   UNL     1       3.430   6.479  18.320  0.00  0.00    +0.000 C 
ATOM      3  O   UNL     1       3.613   6.506  17.110  0.00  0.00    +0.000 OA
ATOM      4  H   UNL     1       3.729   5.480  20.122  0.00  0.00    +0.000 HD
ENDROOT
BRANCH   2   5
ATOM      5  C   UNL     1       2.521   7.446  18.978  0.00  0.00    +0.000 A 
ATOM      6  C   UNL     1       2.077   8.591  18.314  0.00  0.00    +0.000 A 
ATOM      7  C   UNL     1       1.245   9.498  18.973  0.00  0.00    +0.000 A 
ATOM      8  C   UNL     1       0.808   9.286  20.295  0.00  0.00    +0.000 A 
ATOM      9  C   UNL     1       1.262   8.121  20.942  0.00  0.00    +0.000 A 
ATOM     10  C   UNL     1       2.108   7.210  20.293  0.00  0.00    +0.000 A 
BRANCH   8  11
ATOM     11  C   UNL     1      -0.095  10.261  20.956  0.00  0.00    +0.000 A 
ATOM     12  C   UNL     1      -0.310  10.220  22.348  0.00  0.00    +0.000 A 
ATOM     13  C   UNL     1      -1.200  11.091  22.983  0.00  0.00    +0.000 A 
ATOM     14  C   UNL     1      -1.882  12.047  22.241  0.00  0.00    +0.000 A 
ATOM     15  C   UNL     1      -1.671  12.132  20.867  0.00  0.00    +0.000 A 
ATOM     16  C   UNL     1      -0.791  11.246  20.233  0.00  0.00    +0.000 A 
ENDBRANCH   8  11
ENDBRANCH   2   5
BRANCH   1  17
ATOM     17  C   UNL     1       4.828   4.427  18.636  0.00  0.00    +0.000 C 
BRANCH  17  18
ATOM     18  C   UNL     1       6.288   4.811  18.914  0.00  0.00    +0.000 C 
ATOM     19  O   UNL     1       6.660   5.378  19.937  0.00  0.00    +0.000 OA
BRANCH  18  20
ATOM     20  O   UNL     1       7.101   4.476  17.873  0.00  0.00    +0.000 OA
BRANCH  20  22
ATOM     21  C   UNL     1       6.868   4.526  15.477  0.00  0.00    +0.000 C 
ATOM     22  C   UNL     1       7.061   5.349  16.732  0.00  0.00    +0.000 C 
ENDBRANCH  20  22
ENDBRANCH  18  20
ENDBRANCH  17  18
BRANCH  17  23
ATOM     23  C   UNL     1       4.468   3.052  19.226  0.00  0.00    +0.000 C 
BRANCH  23  24
ATOM     24  N   UNL     1       3.039   2.818  19.306  0.00  0.00    +0.000 N 
ATOM     25  C   UNL     1       2.200   2.540  18.264  0.00  0.00    +0.000 A 
ATOM     26  C   UNL     1       0.978   2.304  18.845  0.00  0.00    +0.000 A 
ATOM     27  N   UNL     1       1.043   2.485  20.201  0.00  0.00    +0.000 NA
ATOM     28  C   UNL     1       2.288   2.824  20.447  0.00  0.00    +0.000 A 
ENDBRANCH  23  24
ENDBRANCH  17  23
ENDBRANCH   1  17
TORSDOF 8
ENDMDL
MODEL 6
REMARK VINA RESULT:      -7.8      1.885      3.937
REMARK  Name = 
REMARK  9 active torsions:
REMARK  status: ('A' for Active; 'I' for Inactive)
REMARK    1  A    between atoms: C_1  and  C_2
REMARK    2  A    between atoms: C_2  and  O_3
REMARK    3  A    between atoms: O_3  and  C_4
REMARK    4  A    between atoms: C_4  and  C_6
REMARK    5  A    between atoms: C_6  and  C_7
REMARK    6  A    between atoms: C_6  and  N_13
REMARK    7  A    between atoms: C_7  and  N_8
REMARK    8  A    between atoms: C_14  and  C_16
REMARK    9  A    between atoms: C_19  and  C_20
REMARK                            x       y       z     vdW  Elec       q    Type
REMARK                         _______ _______ _______ _____ _____    ______ ____
ROOT
ATOM      1  N   UNL     1       3.510   5.449  18.804  0.00  0.00    +0.000 N 
ATOM      2  C   UNL     1       3.692   6.716  18.296  0.00  0.00    +0.000 C 
ATOM      3  O   UNL     1       4.626   7.011  17.562  0.00  0.00    +0.000 OA
ATOM      4  H   UNL     1       2.671   5.227  19.333  0.00  0.00    +0.000 HD
ENDROOT
BRANCH   2   5
ATOM      5  C   UNL     1       2.636   7.703  18.624  0.00  0.00    +0.000 A 
ATOM      6  C   UNL     1       2.057   7.749  19.893  0.00  0.00    +0.000 A 
ATOM      7  C   UNL     1       1.043   8.672  20.161  0.00  0.00    +0.000 A 
ATOM      8  C   UNL     1       0.593   9.589  19.192  0.00  0.00    +0.000 A 
ATOM      9  C   UNL     1       1.197   9.529  17.922  0.00  0.00    +0.000 A 
ATOM     10  C   UNL     1       2.208   8.599  17.640  0.00  0.00    +0.000 A 
BRANCH   8  11
ATOM     11  C   UNL     1      -0.471  10.570  19.520  0.00  0.00    +0.000 A 
ATOM     12  C   UNL     1      -0.501  11.216  20.772  0.00  0.00    +0.000 A 
ATOM     13  C   UNL     1      -1.526  12.099  21.122  0.00  0.00    +0.000 A 
ATOM     14  C   UNL     1      -2.538  12.380  20.214  0.00  0.00    +0.000 A 
ATOM     15  C   UNL     1      -2.523  11.781  18.958  0.00  0.00    +0.000 A 
ATOM     16  C   UNL     1      -1.504  10.883  18.617  0.00  0.00    +0.000 A 
ENDBRANCH   8  11
ENDBRANCH   2   5
BRANCH   1  17
ATOM     17  C   UNL     1       4.409   4.327  18.498  0.00  0.00    +0.000 C 
BRANCH  17  18
ATOM     18  C   UNL     1       4.113   3.212  19.510  0.00  0.00    +0.000 C 
ATOM     19  O   UNL     1       4.970   2.461  19.965  0.00  0.00    +0.000 OA
BRANCH  18  20
ATOM     20  O   UNL     1       2.784   3.143  19.806  0.00  0.00    +0.000 OA
BRANCH  20  22
ATOM     21  C   UNL     1       0.693   2.526  18.786  0.00  0.00    +0.000 C 
ATOM     22  C   UNL     1       2.061   2.049  19.219  0.00  0.00    +0.000 C 
ENDBRANCH  20  22
ENDBRANCH  18  20
ENDBRANCH  17  18
BRANCH  17  23
ATOM     23  C   UNL     1       4.300   3.835  17.044  0.00  0.00    +0.000 C 
BRANCH  23  24
ATOM     24  N   UNL     1       5.452   4.181  16.232  0.00  0.00    +0.000 N 
ATOM     25  C   UNL     1       5.466   4.367  14.879  0.00  0.00    +0.000 A 
ATOM     26  C   UNL     1       6.747   4.770  14.590  0.00  0.00    +0.000 A 
ATOM     27  N   UNL     1       7.519   4.780  15.721  0.00  0.00    +0.000 NA
ATOM     28  C   UNL     1       6.722   4.391  16.689  0.00  0.00    +0.000 A 
ENDBRANCH  23  24
ENDBRANCH  17  23
ENDBRANCH   1  17
TORSDOF 8
ENDMDL
MODEL 7
REMARK VINA RESULT:      -7.8      2.193      4.163
REMARK  Name = 
REMARK  9 active torsions:
REMARK  status: ('A' for Active; 'I' for Inactive)
REMARK    1  A    between atoms: C_1  and  C_2
REMARK    2  A    between atoms: C_2  and  O_3
REMARK    3  A    between atoms: O_3  and  C_4
REMARK    4  A    between atoms: C_4  and  C_6
REMARK    5  A    between atoms: C_6  and  C_7
REMARK    6  A    between atoms: C_6  and  N_13
REMARK    7  A    between atoms: C_7  and  N_8
REMARK    8  A    between atoms: C_14  and  C_16
REMARK    9  A    between atoms: C_19  and  C_20
REMARK                            x       y       z     vdW  Elec       q    Type
REMARK                         _______ _______ _______ _____ _____    ______ ____
ROOT
ATOM      1  N   UNL     1       3.025   4.957  17.923  0.00  0.00    +0.000 N 
ATOM      2  C   UNL     1       3.413   5.823  18.922  0.00  0.00    +0.000 C 
ATOM      3  O   UNL     1       4.392   5.626  19.629  0.00  0.00    +0.000 OA
ATOM      4  H   UNL     1       2.262   5.207  17.300  0.00  0.00    +0.000 HD
ENDROOT
BRANCH   2   5
ATOM      5  C   UNL     1       2.617   7.067  19.045  0.00  0.00    +0.000 A 
ATOM      6  C   UNL     1       1.999   7.416  20.247  0.00  0.00    +0.000 A 
ATOM      7  C   UNL     1       1.231   8.580  20.322  0.00  0.00    +0.000 A 
ATOM      8  C   UNL     1       1.076   9.443  19.220  0.00  0.00    +0.000 A 
ATOM      9  C   UNL     1       1.715   9.075  18.021  0.00  0.00    +0.000 A 
ATOM     10  C   UNL     1       2.477   7.902  17.932  0.00  0.00    +0.000 A 
BRANCH   8  11
ATOM     11  C   UNL     1       0.271  10.684  19.343  0.00  0.00    +0.000 A 
ATOM     12  C   UNL     1      -0.781  10.957  18.445  0.00  0.00    +0.000 A 
ATOM     13  C   UNL     1      -1.513  12.145  18.507  0.00  0.00    +0.000 A 
ATOM     14  C   UNL     1      -1.228  13.085  19.489  0.00  0.00    +0.000 A 
ATOM     15  C   UNL     1      -0.214  12.834  20.408  0.00  0.00    +0.000 A 
ATOM     16  C   UNL     1       0.529  11.649  20.333  0.00  0.00    +0.000 A 
ENDBRANCH   8  11
ENDBRANCH   2   5
BRANCH   1  17
ATOM     17  C   UNL     1       3.760   3.726  17.600  0.00  0.00    +0.000 C 
BRANCH  17  18
ATOM     18  C   UNL     1       2.888   2.542  18.039  0.00  0.00    +0.000 C 
ATOM     19  O   UNL     1       3.342   1.463  18.407  0.00  0.00    +0.000 OA
BRANCH  18  20
ATOM     20  O   UNL     1       1.560   2.830  17.934  0.00  0.00    +0.000 OA
BRANCH  20  22
ATOM     21  C   UNL     1       0.873   3.331  20.186  0.00  0.00    +0.000 C 
ATOM     22  C   UNL     1       0.728   2.383  19.017  0.00  0.00    +0.000 C 
ENDBRANCH  20  22
ENDBRANCH  18  20
ENDBRANCH  17  18
BRANCH  17  23
ATOM     23  C   UNL     1       4.169   3.628  16.120  0.00  0.00    +0.000 C 
BRANCH  23  24
ATOM     24  N   UNL     1       5.510   4.118  15.860  0.00  0.00    +0.000 N 
ATOM     25  C   UNL     1       6.048   4.405  14.638  0.00  0.00    +0.000 A 
ATOM     26  C   UNL     1       7.291   4.922  14.910  0.00  0.00    +0.000 A 
ATOM     27  N   UNL     1       7.539   4.904  16.257  0.00  0.00    +0.000 NA
ATOM     28  C   UNL     1       6.462   4.386  16.802  0.00  0.00    +0.000 A 
ENDBRANCH  23  24
ENDBRANCH  17  23
ENDBRANCH   1  17
TORSDOF 8
ENDMDL
MODEL 8
REMARK VINA RESULT:      -7.8      0.969      1.426
REMARK  Name = 
REMARK  9 active torsions:
REMARK  status: ('A' for Active; 'I' for Inactive)
REMARK    1  A    between atoms: C_1  and  C_2
REMARK    2  A    between atoms: C_2  and  O_3
REMARK    3  A    between atoms: O_3  and  C_4
REMARK    4  A    between atoms: C_4  and  C_6
REMARK    5  A    between atoms: C_6  and  C_7
REMARK    6  A    between atoms: C_6  and  N_13
REMARK    7  A    between atoms: C_7  and  N_8
REMARK    8  A    between atoms: C_14  and  C_16
REMARK    9  A    between atoms: C_19  and  C_20
REMARK                            x       y       z     vdW  Elec       q    Type
REMARK                         _______ _______ _______ _____ _____    ______ ____
ROOT
ATOM      1  N   UNL     1       3.634   5.294  18.561  0.00  0.00    +0.000 N 
ATOM      2  C   UNL     1       3.410   6.530  17.996  0.00  0.00    +0.000 C 
ATOM      3  O   UNL     1       3.830   6.841  16.889  0.00  0.00    +0.000 OA
ATOM      4  H   UNL     1       3.188   5.047  19.441  0.00  0.00    +0.000 HD
ENDROOT
BRANCH   2   5
ATOM      5  C   UNL     1       2.549   7.451  18.775  0.00  0.00    +0.000 A 
ATOM      6  C   UNL     1       2.201   7.174  20.097  0.00  0.00    +0.000 A 
ATOM      7  C   UNL     1       1.364   8.048  20.794  0.00  0.00    +0.000 A 
ATOM      8  C   UNL     1       0.870   9.231  20.212  0.00  0.00    +0.000 A 
ATOM      9  C   UNL     1       1.241   9.494  18.880  0.00  0.00    +0.000 A 
ATOM     10  C   UNL     1       2.071   8.617  18.168  0.00  0.00    +0.000 A 
BRANCH   8  11
ATOM     11  C   UNL     1       0.001  10.148  20.990  0.00  0.00    +0.000 A 
ATOM     12  C   UNL     1      -0.218   9.945  22.367  0.00  0.00    +0.000 A 
ATOM     13  C   UNL     1      -1.078  10.761  23.106  0.00  0.00    +0.000 A 
ATOM     14  C   UNL     1      -1.725  11.825  22.489  0.00  0.00    +0.000 A 
ATOM     15  C   UNL     1      -1.508  12.070  21.136  0.00  0.00    +0.000 A 
ATOM     16  C   UNL     1      -0.659  11.239  20.396  0.00  0.00    +0.000 A 
ENDBRANCH   8  11
ENDBRANCH   2   5
BRANCH   1  17
ATOM     17  C   UNL     1       4.384   4.227  17.883  0.00  0.00    +0.000 C 
BRANCH  17  18
ATOM     18  C   UNL     1       5.877   4.511  18.090  0.00  0.00    +0.000 C 
ATOM     19  O   UNL     1       6.433   4.466  19.184  0.00  0.00    +0.000 OA
BRANCH  18  20
ATOM     20  O   UNL     1       6.491   4.848  16.921  0.00  0.00    +0.000 OA
BRANCH  20  22
ATOM     21  C   UNL     1       6.525   4.762  14.515  0.00  0.00    +0.000 C 
ATOM     22  C   UNL     1       6.196   4.015  15.788  0.00  0.00    +0.000 C 
ENDBRANCH  20  22
ENDBRANCH  18  20
ENDBRANCH  17  18
BRANCH  17  23
ATOM     23  C   UNL     1       3.992   2.814  18.348  0.00  0.00    +0.000 C 
BRANCH  23  24
ATOM     24  N   UNL     1       2.777   2.785  19.140  0.00  0.00    +0.000 N 
ATOM     25  C   UNL     1       2.695   2.762  20.504  0.00  0.00    +0.000 A 
ATOM     26  C   UNL     1       1.351   2.838  20.780  0.00  0.00    +0.000 A 
ATOM     27  N   UNL     1       0.619   2.851  19.623  0.00  0.00    +0.000 NA
ATOM     28  C   UNL     1       1.501   2.786  18.652  0.00  0.00    +0.000 A 
ENDBRANCH  23  24
ENDBRANCH  17  23
ENDBRANCH   1  17
TORSDOF 8
ENDMDL
MODEL 9
REMARK VINA RESULT:      -7.7      0.942      1.134
REMARK  Name = 
REMARK  9 active torsions:
REMARK  status: ('A' for Active; 'I' for Inactive)
REMARK    1  A    between atoms: C_1  and  C_2
REMARK    2  A    between atoms: C_2  and  O_3
REMARK    3  A    between atoms: O_3  and  C_4
REMARK    4  A    between atoms: C_4  and  C_6
REMARK    5  A    between atoms: C_6  and  C_7
REMARK    6  A    between atoms: C_6  and  N_13
REMARK    7  A    between atoms: C_7  and  N_8
REMARK    8  A    between atoms: C_14  and  C_16
REMARK    9  A    between atoms: C_19  and  C_20
REMARK                            x       y       z     vdW  Elec       q    Type
REMARK                         _______ _______ _______ _____ _____    ______ ____
ROOT
ATOM      1  N   UNL     1       3.227   5.648  18.810  0.00  0.00    +0.000 N 
ATOM      2  C   UNL     1       3.137   6.918  18.286  0.00  0.00    +0.000 C 
ATOM      3  O   UNL     1       3.712   7.257  17.260  0.00  0.00    +0.000 OA
ATOM      4  H   UNL     1       2.659   5.385  19.610  0.00  0.00    +0.000 HD
ENDROOT
BRANCH   2   5
ATOM      5  C   UNL     1       2.226   7.848  18.995  0.00  0.00    +0.000 A 
ATOM      6  C   UNL     1       1.880   7.644  20.331  0.00  0.00    +0.000 A 
ATOM      7  C   UNL     1       0.995   8.522  20.962  0.00  0.00    +0.000 A 
ATOM      8  C   UNL     1       0.450   9.638  20.298  0.00  0.00    +0.000 A 
ATOM      9  C   UNL     1       0.819   9.827  18.953  0.00  0.00    +0.000 A 
ATOM     10  C   UNL     1       1.697   8.945  18.307  0.00  0.00    +0.000 A 
BRANCH   8  11
ATOM     11  C   UNL     1      -0.469  10.562  21.007  0.00  0.00    +0.000 A 
ATOM     12  C   UNL     1      -1.199  11.540  20.302  0.00  0.00    +0.000 A 
ATOM     13  C   UNL     1      -2.026  12.457  20.955  0.00  0.00    +0.000 A 
ATOM     14  C   UNL     1      -2.165  12.404  22.336  0.00  0.00    +0.000 A 
ATOM     15  C   UNL     1      -1.479  11.432  23.060  0.00  0.00    +0.000 A 
ATOM     16  C   UNL     1      -0.639  10.525  22.403  0.00  0.00    +0.000 A 
ENDBRANCH   8  11
ENDBRANCH   2   5
BRANCH   1  17
ATOM     17  C   UNL     1       4.008   4.575  18.178  0.00  0.00    +0.000 C 
BRANCH  17  18
ATOM     18  C   UNL     1       5.456   4.710  18.668  0.00  0.00    +0.000 C 
ATOM     19  O   UNL     1       5.762   5.123  19.782  0.00  0.00    +0.000 OA
BRANCH  18  20
ATOM     20  O   UNL     1       6.347   4.349  17.703  0.00  0.00    +0.000 OA
BRANCH  20  22
ATOM     21  C   UNL     1       7.214   6.512  17.096  0.00  0.00    +0.000 C 
ATOM     22  C   UNL     1       6.503   5.269  16.609  0.00  0.00    +0.000 C 
ENDBRANCH  20  22
ENDBRANCH  18  20
ENDBRANCH  17  18
BRANCH  17  23
ATOM     23  C   UNL     1       3.437   3.169  18.437  0.00  0.00    +0.000 C 
BRANCH  23  24
ATOM     24  N   UNL     1       2.795   3.039  19.731  0.00  0.00    +0.000 N 
ATOM     25  C   UNL     1       1.463   3.193  19.998  0.00  0.00    +0.000 A 
ATOM     26  C   UNL     1       1.329   2.878  21.328  0.00  0.00    +0.000 A 
ATOM     27  N   UNL     1       2.548   2.591  21.883  0.00  0.00    +0.000 NA
ATOM     28  C   UNL     1       3.416   2.726  20.907  0.00  0.00    +0.000 A 
ENDBRANCH  23  24
ENDBRANCH  17  23
ENDBRANCH   1  17
TORSDOF 8
ENDMDL
