MODEL 1
REMARK VINA RESULT:      -6.9      0.000      0.000
REMARK  Name = 
REMARK  4 active torsions:
REMARK  status: ('A' for Active; 'I' for Inactive)
REMARK    1  A    between atoms: C_1  and  C_2
REMARK    2  A    between atoms: C_2  and  C_3
REMARK    3  A    between atoms: C_17  and  N_18
REMARK    4  A    between atoms: N_18  and  N_19
REMARK                            x       y       z     vdW  Elec       q    Type
REMARK                         _______ _______ _______ _____ _____    ______ ____
ROOT
ATOM      1  C   UNL     1       2.806   2.541  21.257  0.00  0.00    +0.000 C 
ATOM      2  C   UNL     1       2.240   3.661  20.362  0.00  0.00    +0.000 C 
ATOM      3  C   UNL     1       0.699   3.514  20.425  0.00  0.00    +0.000 C 
ATOM      4  O   UNL     1       2.491   4.918  21.028  0.00  0.00    +0.000 OA
ATOM      5  C   UNL     1       2.352   5.979  20.106  0.00  0.00    +0.000 C 
ATOM      6  C   UNL     1       1.884   7.276  20.712  0.00  0.00    +0.000 C 
ATOM      7  O   UNL     1       1.599   7.480  21.876  0.00  0.00    +0.000 OA
ATOM      8  C   UNL     1       1.596   8.276  19.675  0.00  0.00    +0.000 A 
ATOM      9  C   UNL     1       0.498   9.122  19.859  0.00  0.00    +0.000 A 
ATOM     10  C   UNL     1       0.184  10.057  18.880  0.00  0.00    +0.000 A 
ATOM     11  C   UNL     1       0.986  10.163  17.744  0.00  0.00    +0.000 A 
ATOM     12  C   UNL     1       2.051   9.273  17.541  0.00  0.00    +0.000 A 
ATOM     13  C   UNL     1       2.335   8.283  18.488  0.00  0.00    +0.000 A 
ATOM     14  C   UNL     1       3.352   7.219  18.194  0.00  0.00    +0.000 C 
ATOM     15  O   UNL     1       3.961   7.291  17.128  0.00  0.00    +0.000 OA
ATOM     16  C   UNL     1       3.612   6.148  19.274  0.00  0.00    +0.000 C 
ATOM     17  C   UNL     1       4.078   4.731  18.765  0.00  0.00    +0.000 C 
ATOM     18  C   UNL     1       2.965   3.625  18.958  0.00  0.00    +0.000 C 
ATOM     19 BR   UNL     1       1.698   3.773  17.430  0.00  0.00    +0.000 Br
ENDROOT
BRANCH  17  20
ATOM     20  N   UNL     1       5.284   4.360  19.547  0.00  0.00    +0.000 NA
BRANCH  20  21
ATOM     21  N   UNL     1       6.482   4.464  18.783  0.00  0.00    +0.000 NA
ATOM     22  N   UNL     1       7.461   4.554  18.207  0.00  0.00    +0.000 NA
ENDBRANCH  20  21
ENDBRANCH  17  20
TORSDOF 2
ENDMDL
MODEL 2
REMARK VINA RESULT:      -6.8      3.319      5.350
REMARK  Name = 
REMARK  4 active torsions:
REMARK  status: ('A' for Active; 'I' for Inactive)
REMARK    1  A    between atoms: C_1  and  C_2
REMARK    2  A    between atoms: C_2  and  C_3
REMARK    3  A    between atoms: C_17  and  N_18
REMARK    4  A    between atoms: N_18  and  N_19
REMARK                            x       y       z     vdW  Elec       q    Type
REMARK                         _______ _______ _______ _____ _____    ______ ____
ROOT
ATOM      1  C   UNL     1       7.313   4.464  14.795  0.00  0.00    +0.000 C 
ATOM      2  C   UNL     1       5.965   4.661  15.516  0.00  0.00    +0.000 C 
ATOM      3  C   UNL     1       4.876   4.520  14.422  0.00  0.00    +0.000 C 
ATOM      4  O   UNL     1       5.751   3.509  16.362  0.00  0.00    +0.000 OA
ATOM      5  C   UNL     1       4.753   3.803  17.317  0.00  0.00    +0.000 C 
ATOM      6  C   UNL     1       3.942   2.612  17.759  0.00  0.00    +0.000 C 
ATOM      7  O   UNL     1       4.046   1.467  17.362  0.00  0.00    +0.000 OA
ATOM      8  C   UNL     1       2.819   3.019  18.614  0.00  0.00    +0.000 A 
ATOM      9  C   UNL     1       1.601   2.348  18.469  0.00  0.00    +0.000 A 
ATOM     10  C   UNL     1       0.513   2.732  19.242  0.00  0.00    +0.000 A 
ATOM     11  C   UNL     1       0.658   3.758  20.176  0.00  0.00    +0.000 A 
ATOM     12  C   UNL     1       1.865   4.464  20.274  0.00  0.00    +0.000 A 
ATOM     13  C   UNL     1       2.947   4.131  19.452  0.00  0.00    +0.000 A 
ATOM     14  C   UNL     1       4.175   4.993  19.426  0.00  0.00    +0.000 C 
ATOM     15  O   UNL     1       4.215   5.953  20.192  0.00  0.00    +0.000 OA
ATOM     16  C   UNL     1       5.330   4.579  18.490  0.00  0.00    +0.000 C 
ATOM     17  C   UNL     1       6.238   5.740  17.931  0.00  0.00    +0.000 C 
ATOM     18  C   UNL     1       6.025   5.981  16.383  0.00  0.00    +0.000 C 
ATOM     19 BR   UNL     1       4.408   7.121  16.168  0.00  0.00    +0.000 Br
ENDROOT
BRANCH  17  20
ATOM     20  N   UNL     1       7.649   5.352  18.182  0.00  0.00    +0.000 NA
BRANCH  20  21
ATOM     21  N   UNL     1       7.966   5.318  19.570  0.00  0.00    +0.000 NA
ATOM     22  N   UNL     1       8.235   5.253  20.675  0.00  0.00    +0.000 NA
ENDBRANCH  20  21
ENDBRANCH  17  20
TORSDOF 2
ENDMDL
MODEL 3
REMARK VINA RESULT:      -6.3      6.825      8.537
REMARK  Name = 
REMARK  4 active torsions:
REMARK  status: ('A' for Active; 'I' for Inactive)
REMARK    1  A    between atoms: C_1  and  C_2
REMARK    2  A    between atoms: C_2  and  C_3
REMARK    3  A    between atoms: C_17  and  N_18
REMARK    4  A    between atoms: N_18  and  N_19
REMARK                            x       y       z     vdW  Elec       q    Type
REMARK                         _______ _______ _______ _____ _____    ______ ____
ROOT
ATOM      1  C   UNL     1       2.885  13.654  20.954  0.00  0.00    +0.000 C 
ATOM      2  C   UNL     1       1.675  13.522  20.007  0.00  0.00    +0.000 C 
ATOM      3  C   UNL     1       2.241  13.689  18.574  0.00  0.00    +0.000 C 
ATOM      4  O   UNL     1       1.242  12.145  20.045  0.00  0.00    +0.000 OA
ATOM      5  C   UNL     1      -0.065  12.046  19.518  0.00  0.00    +0.000 C 
ATOM      6  C   UNL     1      -0.371  10.731  18.848  0.00  0.00    +0.000 C 
ATOM      7  O   UNL     1       0.387   9.791  18.701  0.00  0.00    +0.000 OA
ATOM      8  C   UNL     1      -1.676  10.765  18.175  0.00  0.00    +0.000 A 
ATOM      9  C   UNL     1      -1.804  10.111  16.947  0.00  0.00    +0.000 A 
ATOM     10  C   UNL     1      -3.019  10.153  16.273  0.00  0.00    +0.000 A 
ATOM     11  C   UNL     1      -4.103  10.817  16.846  0.00  0.00    +0.000 A 
ATOM     12  C   UNL     1      -3.950  11.519  18.051  0.00  0.00    +0.000 A 
ATOM     13  C   UNL     1      -2.713  11.541  18.704  0.00  0.00    +0.000 A 
ATOM     14  C   UNL     1      -2.495  12.433  19.891  0.00  0.00    +0.000 C 
ATOM     15  O   UNL     1      -3.455  13.085  20.297  0.00  0.00    +0.000 OA
ATOM     16  C   UNL     1      -1.105  12.421  20.561  0.00  0.00    +0.000 C 
ATOM     17  C   UNL     1      -0.652  13.752  21.272  0.00  0.00    +0.000 C 
ATOM     18  C   UNL     1       0.520  14.480  20.500  0.00  0.00    +0.000 C 
ATOM     19 BR   UNL     1      -0.297  15.531  19.020  0.00  0.00    +0.000 Br
ENDROOT
BRANCH  17  20
ATOM     20  N   UNL     1      -0.193  13.386  22.636  0.00  0.00    +0.000 NA
BRANCH  20  21
ATOM     21  N   UNL     1      -0.460  12.023  22.952  0.00  0.00    +0.000 NA
ATOM     22  N   UNL     1      -0.634  10.927  23.212  0.00  0.00    +0.000 NA
ENDBRANCH  20  21
ENDBRANCH  17  20
TORSDOF 2
ENDMDL
MODEL 4
REMARK VINA RESULT:      -6.2      7.045      8.879
REMARK  Name = 
REMARK  4 active torsions:
REMARK  status: ('A' for Active; 'I' for Inactive)
REMARK    1  A    between atoms: C_1  and  C_2
REMARK    2  A    between atoms: C_2  and  C_3
REMARK    3  A    between atoms: C_17  and  N_18
REMARK    4  A    between atoms: N_18  and  N_19
REMARK                            x       y       z     vdW  Elec       q    Type
REMARK                         _______ _______ _______ _____ _____    ______ ____
ROOT
ATOM      1  C   UNL     1       3.028  13.750  20.963  0.00  0.00    +0.000 C 
ATOM      2  C   UNL     1       1.823  13.560  20.020  0.00  0.00    +0.000 C 
ATOM      3  C   UNL     1       2.398  13.625  18.582  0.00  0.00    +0.000 C 
ATOM      4  O   UNL     1       1.382  12.190  20.150  0.00  0.00    +0.000 OA
ATOM      5  C   UNL     1       0.078  12.062  19.622  0.00  0.00    +0.000 C 
ATOM      6  C   UNL     1      -0.231  10.706  19.042  0.00  0.00    +0.000 C 
ATOM      7  O   UNL     1       0.522   9.755  18.964  0.00  0.00    +0.000 OA
ATOM      8  C   UNL     1      -1.532  10.701  18.361  0.00  0.00    +0.000 A 
ATOM      9  C   UNL     1      -1.657   9.965  17.179  0.00  0.00    +0.000 A 
ATOM     10  C   UNL     1      -2.867   9.966  16.497  0.00  0.00    +0.000 A 
ATOM     11  C   UNL     1      -3.951  10.673  17.017  0.00  0.00    +0.000 A 
ATOM     12  C   UNL     1      -3.802  11.456  18.171  0.00  0.00    +0.000 A 
ATOM     13  C   UNL     1      -2.568  11.516  18.828  0.00  0.00    +0.000 A 
ATOM     14  C   UNL     1      -2.352  12.486  19.953  0.00  0.00    +0.000 C 
ATOM     15  O   UNL     1      -3.311  13.170  20.308  0.00  0.00    +0.000 OA
ATOM     16  C   UNL     1      -0.966  12.513  20.630  0.00  0.00    +0.000 C 
ATOM     17  C   UNL     1      -0.510  13.888  21.252  0.00  0.00    +0.000 C 
ATOM     18  C   UNL     1       0.670  14.555  20.439  0.00  0.00    +0.000 C 
ATOM     19 BR   UNL     1      -0.132  15.506  18.885  0.00  0.00    +0.000 Br
ENDROOT
BRANCH  17  20
ATOM     20  N   UNL     1      -0.061  13.613  22.640  0.00  0.00    +0.000 NA
BRANCH  20  21
ATOM     21  N   UNL     1      -0.436  14.645  23.548  0.00  0.00    +0.000 NA
ATOM     22  N   UNL     1      -0.762  15.444  24.292  0.00  0.00    +0.000 NA
ENDBRANCH  20  21
ENDBRANCH  17  20
TORSDOF 2
ENDMDL
MODEL 5
REMARK VINA RESULT:      -5.9      3.240      4.576
REMARK  Name = 
REMARK  4 active torsions:
REMARK  status: ('A' for Active; 'I' for Inactive)
REMARK    1  A    between atoms: C_1  and  C_2
REMARK    2  A    between atoms: C_2  and  C_3
REMARK    3  A    between atoms: C_17  and  N_18
REMARK    4  A    between atoms: N_18  and  N_19
REMARK                            x       y       z     vdW  Elec       q    Type
REMARK                         _______ _______ _______ _____ _____    ______ ____
ROOT
ATOM      1  C   UNL     1       0.987   3.103  20.655  0.00  0.00    +0.000 C 
ATOM      2  C   UNL     1       2.038   4.208  20.428  0.00  0.00    +0.000 C 
ATOM      3  C   UNL     1       2.610   4.542  21.829  0.00  0.00    +0.000 C 
ATOM      4  O   UNL     1       3.156   3.609  19.736  0.00  0.00    +0.000 OA
ATOM      5  C   UNL     1       3.959   4.622  19.167  0.00  0.00    +0.000 C 
ATOM      6  C   UNL     1       5.421   4.275  19.060  0.00  0.00    +0.000 C 
ATOM      7  O   UNL     1       5.959   3.248  19.429  0.00  0.00    +0.000 OA
ATOM      8  C   UNL     1       6.214   5.431  18.625  0.00  0.00    +0.000 A 
ATOM      9  C   UNL     1       7.479   5.617  19.192  0.00  0.00    +0.000 A 
ATOM     10  C   UNL     1       8.238   6.720  18.822  0.00  0.00    +0.000 A 
ATOM     11  C   UNL     1       7.746   7.609  17.867  0.00  0.00    +0.000 A 
ATOM     12  C   UNL     1       6.454   7.447  17.346  0.00  0.00    +0.000 A 
ATOM     13  C   UNL     1       5.653   6.378  17.762  0.00  0.00    +0.000 A 
ATOM     14  C   UNL     1       4.213   6.301  17.347  0.00  0.00    +0.000 C 
ATOM     15  O   UNL     1       3.791   7.170  16.587  0.00  0.00    +0.000 OA
ATOM     16  C   UNL     1       3.378   5.103  17.848  0.00  0.00    +0.000 C 
ATOM     17  C   UNL     1       1.832   5.348  18.034  0.00  0.00    +0.000 C 
ATOM     18  C   UNL     1       1.403   5.362  19.555  0.00  0.00    +0.000 C 
ATOM     19 BR   UNL     1       1.791   7.177  20.273  0.00  0.00    +0.000 Br
ENDROOT
BRANCH  17  20
ATOM     20  N   UNL     1       1.127   4.246  17.331  0.00  0.00    +0.000 NA
BRANCH  20  21
ATOM     21  N   UNL     1       1.969   3.120  17.103  0.00  0.00    +0.000 NA
ATOM     22  N   UNL     1       2.609   2.194  16.926  0.00  0.00    +0.000 NA
ENDBRANCH  20  21
ENDBRANCH  17  20
TORSDOF 2
ENDMDL
MODEL 6
REMARK VINA RESULT:      -5.8      7.623      9.275
REMARK  Name = 
REMARK  4 active torsions:
REMARK  status: ('A' for Active; 'I' for Inactive)
REMARK    1  A    between atoms: C_1  and  C_2
REMARK    2  A    between atoms: C_2  and  C_3
REMARK    3  A    between atoms: C_17  and  N_18
REMARK    4  A    between atoms: N_18  and  N_19
REMARK                            x       y       z     vdW  Elec       q    Type
REMARK                         _______ _______ _______ _____ _____    ______ ____
ROOT
ATOM      1  C   UNL     1       1.535  12.905  18.876  0.00  0.00    +0.000 C 
ATOM      2  C   UNL     1       0.218  13.420  19.489  0.00  0.00    +0.000 C 
ATOM      3  C   UNL     1      -0.197  14.643  18.633  0.00  0.00    +0.000 C 
ATOM      4  O   UNL     1      -0.805  12.440  19.204  0.00  0.00    +0.000 OA
ATOM      5  C   UNL     1      -1.916  12.656  20.050  0.00  0.00    +0.000 C 
ATOM      6  C   UNL     1      -3.241  12.256  19.456  0.00  0.00    +0.000 C 
ATOM      7  O   UNL     1      -3.439  11.805  18.344  0.00  0.00    +0.000 OA
ATOM      8  C   UNL     1      -4.358  12.668  20.317  0.00  0.00    +0.000 A 
ATOM      9  C   UNL     1      -5.525  13.137  19.707  0.00  0.00    +0.000 A 
ATOM     10  C   UNL     1      -6.586  13.562  20.496  0.00  0.00    +0.000 A 
ATOM     11  C   UNL     1      -6.487  13.486  21.885  0.00  0.00    +0.000 A 
ATOM     12  C   UNL     1      -5.292  13.069  22.490  0.00  0.00    +0.000 A 
ATOM     13  C   UNL     1      -4.193  12.703  21.705  0.00  0.00    +0.000 A 
ATOM     14  C   UNL     1      -2.861  12.431  22.342  0.00  0.00    +0.000 C 
ATOM     15  O   UNL     1      -2.795  12.481  23.568  0.00  0.00    +0.000 OA
ATOM     16  C   UNL     1      -1.685  12.043  21.421  0.00  0.00    +0.000 C 
ATOM     17  C   UNL     1      -0.241  12.436  21.917  0.00  0.00    +0.000 C 
ATOM     18  C   UNL     1       0.400  13.591  21.049  0.00  0.00    +0.000 C 
ATOM     19 BR   UNL     1      -0.319  15.320  21.725  0.00  0.00    +0.000 Br
ENDROOT
BRANCH  17  20
ATOM     20  N   UNL     1       0.602  11.218  21.818  0.00  0.00    +0.000 NA
BRANCH  20  21
ATOM     21  N   UNL     1       0.372  10.308  22.889  0.00  0.00    +0.000 NA
ATOM     22  N   UNL     1       0.228   9.579  23.754  0.00  0.00    +0.000 NA
ENDBRANCH  20  21
ENDBRANCH  17  20
TORSDOF 2
ENDMDL
MODEL 7
REMARK VINA RESULT:      -5.8      7.511      8.938
REMARK  Name = 
REMARK  4 active torsions:
REMARK  status: ('A' for Active; 'I' for Inactive)
REMARK    1  A    between atoms: C_1  and  C_2
REMARK    2  A    between atoms: C_2  and  C_3
REMARK    3  A    between atoms: C_17  and  N_18
REMARK    4  A    between atoms: N_18  and  N_19
REMARK                            x       y       z     vdW  Elec       q    Type
REMARK                         _______ _______ _______ _____ _____    ______ ____
ROOT
ATOM      1  C   UNL     1      -2.375  14.283  24.360  0.00  0.00    +0.000 C 
ATOM      2  C   UNL     1      -2.441  13.160  23.306  0.00  0.00    +0.000 C 
ATOM      3  C   UNL     1      -3.553  12.194  23.788  0.00  0.00    +0.000 C 
ATOM      4  O   UNL     1      -2.985  13.731  22.096  0.00  0.00    +0.000 OA
ATOM      5  C   UNL     1      -2.713  12.875  21.005  0.00  0.00    +0.000 C 
ATOM      6  C   UNL     1      -3.741  12.920  19.904  0.00  0.00    +0.000 C 
ATOM      7  O   UNL     1      -4.760  13.583  19.881  0.00  0.00    +0.000 OA
ATOM      8  C   UNL     1      -3.487  11.885  18.894  0.00  0.00    +0.000 A 
ATOM      9  C   UNL     1      -4.584  11.231  18.327  0.00  0.00    +0.000 A 
ATOM     10  C   UNL     1      -4.373  10.226  17.391  0.00  0.00    +0.000 A 
ATOM     11  C   UNL     1      -3.072   9.906  17.005  0.00  0.00    +0.000 A 
ATOM     12  C   UNL     1      -1.975  10.526  17.620  0.00  0.00    +0.000 A 
ATOM     13  C   UNL     1      -2.174  11.491  18.613  0.00  0.00    +0.000 A 
ATOM     14  C   UNL     1      -1.013  12.025  19.399  0.00  0.00    +0.000 C 
ATOM     15  O   UNL     1       0.111  11.632  19.094  0.00  0.00    +0.000 OA
ATOM     16  C   UNL     1      -1.299  13.080  20.488  0.00  0.00    +0.000 C 
ATOM     17  C   UNL     1      -0.311  13.114  21.715  0.00  0.00    +0.000 C 
ATOM     18  C   UNL     1      -0.986  12.600  23.049  0.00  0.00    +0.000 C 
ATOM     19 BR   UNL     1      -0.917  10.610  23.029  0.00  0.00    +0.000 Br
ENDROOT
BRANCH  17  20
ATOM     20  N   UNL     1       0.119  14.525  21.892  0.00  0.00    +0.000 NA
BRANCH  20  21
ATOM     21  N   UNL     1       1.521  14.642  22.118  0.00  0.00    +0.000 NA
ATOM     22  N   UNL     1       2.647  14.698  22.282  0.00  0.00    +0.000 NA
ENDBRANCH  20  21
ENDBRANCH  17  20
TORSDOF 2
ENDMDL
MODEL 8
REMARK VINA RESULT:      -5.7      9.419     11.310
REMARK  Name = 
REMARK  4 active torsions:
REMARK  status: ('A' for Active; 'I' for Inactive)
REMARK    1  A    between atoms: C_1  and  C_2
REMARK    2  A    between atoms: C_2  and  C_3
REMARK    3  A    between atoms: C_17  and  N_18
REMARK    4  A    between atoms: N_18  and  N_19
REMARK                            x       y       z     vdW  Elec       q    Type
REMARK                         _______ _______ _______ _____ _____    ______ ____
ROOT
ATOM      1  C   UNL     1      -3.725  15.804  23.310  0.00  0.00    +0.000 C 
ATOM      2  C   UNL     1      -3.906  15.275  21.874  0.00  0.00    +0.000 C 
ATOM      3  C   UNL     1      -3.059  16.206  20.970  0.00  0.00    +0.000 C 
ATOM      4  O   UNL     1      -3.224  14.004  21.790  0.00  0.00    +0.000 OA
ATOM      5  C   UNL     1      -3.670  13.302  20.649  0.00  0.00    +0.000 C 
ATOM      6  C   UNL     1      -2.643  12.384  20.038  0.00  0.00    +0.000 C 
ATOM      7  O   UNL     1      -1.496  12.219  20.409  0.00  0.00    +0.000 OA
ATOM      8  C   UNL     1      -3.115  11.826  18.765  0.00  0.00    +0.000 A 
ATOM      9  C   UNL     1      -2.191  11.673  17.726  0.00  0.00    +0.000 A 
ATOM     10  C   UNL     1      -2.616  11.176  16.501  0.00  0.00    +0.000 A 
ATOM     11  C   UNL     1      -3.950  10.805  16.332  0.00  0.00    +0.000 A 
ATOM     12  C   UNL     1      -4.882  11.014  17.359  0.00  0.00    +0.000 A 
ATOM     13  C   UNL     1      -4.478  11.578  18.574  0.00  0.00    +0.000 A 
ATOM     14  C   UNL     1      -5.496  11.970  19.606  0.00  0.00    +0.000 C 
ATOM     15  O   UNL     1      -6.675  11.720  19.366  0.00  0.00    +0.000 OA
ATOM     16  C   UNL     1      -4.989  12.597  20.921  0.00  0.00    +0.000 C 
ATOM     17  C   UNL     1      -5.962  13.603  21.645  0.00  0.00    +0.000 C 
ATOM     18  C   UNL     1      -5.447  15.096  21.574  0.00  0.00    +0.000 C 
ATOM     19 BR   UNL     1      -5.979  15.832  19.802  0.00  0.00    +0.000 Br
ENDROOT
BRANCH  17  20
ATOM     20  N   UNL     1      -6.053  13.180  23.065  0.00  0.00    +0.000 NA
BRANCH  20  21
ATOM     21  N   UNL     1      -6.995  12.129  23.260  0.00  0.00    +0.000 NA
ATOM     22  N   UNL     1      -7.762  11.308  23.450  0.00  0.00    +0.000 NA
ENDBRANCH  20  21
ENDBRANCH  17  20
TORSDOF 2
ENDMDL
MODEL 9
REMARK VINA RESULT:      -5.7      2.447      4.279
REMARK  Name = 
REMARK  4 active torsions:
REMARK  status: ('A' for Active; 'I' for Inactive)
REMARK    1  A    between atoms: C_1  and  C_2
REMARK    2  A    between atoms: C_2  and  C_3
REMARK    3  A    between atoms: C_17  and  N_18
REMARK    4  A    between atoms: N_18  and  N_19
REMARK                            x       y       z     vdW  Elec       q    Type
REMARK                         _______ _______ _______ _____ _____    ______ ____
ROOT
ATOM      1  C   UNL     1       6.470   5.347  15.540  0.00  0.00    +0.000 C 
ATOM      2  C   UNL     1       5.889   5.935  16.841  0.00  0.00    +0.000 C 
ATOM      3  C   UNL     1       6.642   7.269  17.074  0.00  0.00    +0.000 C 
ATOM      4  O   UNL     1       4.534   6.350  16.563  0.00  0.00    +0.000 OA
ATOM      5  C   UNL     1       3.836   6.532  17.778  0.00  0.00    +0.000 C 
ATOM      6  C   UNL     1       2.753   7.577  17.726  0.00  0.00    +0.000 C 
ATOM      7  O   UNL     1       2.452   8.274  16.776  0.00  0.00    +0.000 OA
ATOM      8  C   UNL     1       2.193   7.833  19.060  0.00  0.00    +0.000 A 
ATOM      9  C   UNL     1       1.856   9.148  19.395  0.00  0.00    +0.000 A 
ATOM     10  C   UNL     1       1.353   9.424  20.660  0.00  0.00    +0.000 A 
ATOM     11  C   UNL     1       1.160   8.382  21.568  0.00  0.00    +0.000 A 
ATOM     12  C   UNL     1       1.554   7.076  21.245  0.00  0.00    +0.000 A 
ATOM     13  C   UNL     1       2.125   6.798  19.998  0.00  0.00    +0.000 A 
ATOM     14  C   UNL     1       2.711   5.446  19.715  0.00  0.00    +0.000 C 
ATOM     15  O   UNL     1       2.613   4.587  20.589  0.00  0.00    +0.000 OA
ATOM     16  C   UNL     1       3.336   5.205  18.325  0.00  0.00    +0.000 C 
ATOM     17  C   UNL     1       4.507   4.152  18.250  0.00  0.00    +0.000 C 
ATOM     18  C   UNL     1       5.908   4.828  17.969  0.00  0.00    +0.000 C 
ATOM     19 BR   UNL     1       6.608   5.505  19.705  0.00  0.00    +0.000 Br
ENDROOT
BRANCH  17  20
ATOM     20  N   UNL     1       4.181   3.213  17.147  0.00  0.00    +0.000 NA
BRANCH  20  21
ATOM     21  N   UNL     1       2.928   2.563  17.338  0.00  0.00    +0.000 NA
ATOM     22  N   UNL     1       1.908   2.080  17.494  0.00  0.00    +0.000 NA
ENDBRANCH  20  21
ENDBRANCH  17  20
TORSDOF 2
ENDMDL
