MODEL 1
REMARK VINA RESULT:      -9.4      0.000      0.000
REMARK  Name = 
REMARK  4 active torsions:
REMARK  status: ('A' for Active; 'I' for Inactive)
REMARK    1  A    between atoms: C_2  and  C_15
REMARK    2  A    between atoms: N_3  and  C_4
REMARK    3  A    between atoms: C_6  and  C_7
REMARK    4  A    between atoms: C_21  and  C_22
REMARK                            x       y       z     vdW  Elec       q    Type
REMARK                         _______ _______ _______ _____ _____    ______ ____
ROOT
ATOM      1  C   UNL     1       1.568   9.076  18.726  0.00  0.00    +0.000 A 
ATOM      2  C   UNL     1       0.903  10.202  18.187  0.00  0.00    +0.000 A 
ATOM      3  C   UNL     1       0.166  10.736  19.212  0.00  0.00    +0.000 A 
ATOM      4  N   UNL     1      -0.675  11.814  19.265  0.00  0.00    +0.000 NA
ATOM      5  C   UNL     1      -1.257  12.062  20.403  0.00  0.00    +0.000 A 
ATOM      6  C   UNL     1      -1.056  11.258  21.662  0.00  0.00    +0.000 A 
ATOM      7  C   UNL     1      -0.203  10.207  21.554  0.00  0.00    +0.000 A 
ATOM      8  N   UNL     1       0.409   9.936  20.329  0.00  0.00    +0.000 N 
ATOM      9  N   UNL     1       1.262   8.925  20.021  0.00  0.00    +0.000 NA
ATOM     10  C   UNL     1      -1.794  11.654  22.916  0.00  0.00    +0.000 C 
ATOM     11  C   UNL     1      -2.904  12.709  22.813  0.00  0.00    +0.000 C 
ATOM     12  C   UNL     1      -3.350  13.045  21.400  0.00  0.00    +0.000 C 
ATOM     13  C   UNL     1      -2.166  13.274  20.472  0.00  0.00    +0.000 C 
ENDROOT
BRANCH   1  15
ATOM     14  O   UNL     1       2.894   8.371  16.900  0.00  0.00    +0.000 OA
ATOM     15  C   UNL     1       2.480   8.141  18.039  0.00  0.00    +0.000 C 
ATOM     16  N   UNL     1       2.767   6.981  18.748  0.00  0.00    +0.000 N 
ATOM     17  H   UNL     1       2.083   6.751  19.466  0.00  0.00    +0.000 HD
BRANCH  16  18
ATOM     18  C   UNL     1       3.562   5.945  18.201  0.00  0.00    +0.000 A 
ATOM     19  C   UNL     1       4.954   6.104  18.147  0.00  0.00    +0.000 A 
ATOM     20  C   UNL     1       5.789   5.075  17.672  0.00  0.00    +0.000 A 
ATOM     21  C   UNL     1       5.207   3.878  17.232  0.00  0.00    +0.000 A 
ATOM     22  C   UNL     1       3.819   3.718  17.256  0.00  0.00    +0.000 A 
ATOM     23  C   UNL     1       2.999   4.745  17.742  0.00  0.00    +0.000 A 
ATOM     24 CL   UNL     1       1.289   4.546  17.612  0.00  0.00    +0.000 Cl
BRANCH  20  25
ATOM     25  C   UNL     1       7.289   5.250  17.643  0.00  0.00    +0.000 C 
ATOM     26  F   UNL     1       7.693   6.397  17.030  0.00  0.00    +0.000 F 
ATOM     27  F   UNL     1       7.829   5.289  18.894  0.00  0.00    +0.000 F 
ATOM     28  F   UNL     1       7.925   4.234  16.996  0.00  0.00    +0.000 F 
ENDBRANCH  20  25
ENDBRANCH  16  18
ENDBRANCH   1  15
BRANCH   7  29
ATOM     29  C   UNL     1       0.164   9.292  22.673  0.00  0.00    +0.000 C 
ATOM     30  F   UNL     1      -0.184   9.693  23.921  0.00  0.00    +0.000 F 
ATOM     31  F   UNL     1      -0.410   8.068  22.510  0.00  0.00    +0.000 F 
ATOM     32  F   UNL     1       1.506   9.081  22.715  0.00  0.00    +0.000 F 
ENDBRANCH   7  29
TORSDOF 4
ENDMDL
MODEL 2
REMARK VINA RESULT:      -9.1      1.184      1.599
REMARK  Name = 
REMARK  4 active torsions:
REMARK  status: ('A' for Active; 'I' for Inactive)
REMARK    1  A    between atoms: C_2  and  C_15
REMARK    2  A    between atoms: N_3  and  C_4
REMARK    3  A    between atoms: C_6  and  C_7
REMARK    4  A    between atoms: C_21  and  C_22
REMARK                            x       y       z     vdW  Elec       q    Type
REMARK                         _______ _______ _______ _____ _____    ______ ____
ROOT
ATOM      1  C   UNL     1       1.737   8.348  19.608  0.00  0.00    +0.000 A 
ATOM      2  C   UNL     1       1.679   9.507  18.798  0.00  0.00    +0.000 A 
ATOM      3  C   UNL     1       0.938  10.424  19.498  0.00  0.00    +0.000 A 
ATOM      4  N   UNL     1       0.552  11.702  19.200  0.00  0.00    +0.000 NA
ATOM      5  C   UNL     1      -0.181  12.324  20.078  0.00  0.00    +0.000 A 
ATOM      6  C   UNL     1      -0.613  11.743  21.400  0.00  0.00    +0.000 A 
ATOM      7  C   UNL     1      -0.191  10.477  21.648  0.00  0.00    +0.000 A 
ATOM      8  N   UNL     1       0.582   9.807  20.699  0.00  0.00    +0.000 N 
ATOM      9  N   UNL     1       1.071   8.541  20.753  0.00  0.00    +0.000 NA
ATOM     10  C   UNL     1      -1.463  12.574  22.329  0.00  0.00    +0.000 C 
ATOM     11  C   UNL     1      -2.060  13.886  21.801  0.00  0.00    +0.000 C 
ATOM     12  C   UNL     1      -1.972  14.080  20.297  0.00  0.00    +0.000 C 
ATOM     13  C   UNL     1      -0.586  13.751  19.763  0.00  0.00    +0.000 C 
ENDROOT
BRANCH   1  15
ATOM     14  O   UNL     1       2.595   6.225  20.200  0.00  0.00    +0.000 OA
ATOM     15  C   UNL     1       2.405   7.065  19.316  0.00  0.00    +0.000 C 
ATOM     16  N   UNL     1       2.847   6.924  18.006  0.00  0.00    +0.000 N 
ATOM     17  H   UNL     1       2.971   7.804  17.510  0.00  0.00    +0.000 HD
BRANCH  16  18
ATOM     18  C   UNL     1       3.578   5.787  17.580  0.00  0.00    +0.000 A 
ATOM     19  C   UNL     1       4.943   5.919  17.292  0.00  0.00    +0.000 A 
ATOM     20  C   UNL     1       5.724   4.805  16.928  0.00  0.00    +0.000 A 
ATOM     21  C   UNL     1       5.110   3.548  16.838  0.00  0.00    +0.000 A 
ATOM     22  C   UNL     1       3.744   3.409  17.096  0.00  0.00    +0.000 A 
ATOM     23  C   UNL     1       2.980   4.523  17.469  0.00  0.00    +0.000 A 
ATOM     24 CL   UNL     1       1.274   4.317  17.634  0.00  0.00    +0.000 Cl
BRANCH  20  25
ATOM     25  C   UNL     1       7.200   4.956  16.645  0.00  0.00    +0.000 C 
ATOM     26  F   UNL     1       7.994   4.265  17.509  0.00  0.00    +0.000 F 
ATOM     27  F   UNL     1       7.536   4.515  15.400  0.00  0.00    +0.000 F 
ATOM     28  F   UNL     1       7.617   6.251  16.706  0.00  0.00    +0.000 F 
ENDBRANCH  20  25
ENDBRANCH  16  18
ENDBRANCH   1  15
BRANCH   7  29
ATOM     29  C   UNL     1      -0.478   9.715  22.898  0.00  0.00    +0.000 C 
ATOM     30  F   UNL     1       0.566   9.525  23.743  0.00  0.00    +0.000 F 
ATOM     31  F   UNL     1      -1.439  10.333  23.637  0.00  0.00    +0.000 F 
ATOM     32  F   UNL     1      -0.953   8.472  22.616  0.00  0.00    +0.000 F 
ENDBRANCH   7  29
TORSDOF 4
ENDMDL
MODEL 3
REMARK VINA RESULT:      -9.1      2.158      2.752
REMARK  Name = 
REMARK  4 active torsions:
REMARK  status: ('A' for Active; 'I' for Inactive)
REMARK    1  A    between atoms: C_2  and  C_15
REMARK    2  A    between atoms: N_3  and  C_4
REMARK    3  A    between atoms: C_6  and  C_7
REMARK    4  A    between atoms: C_21  and  C_22
REMARK                            x       y       z     vdW  Elec       q    Type
REMARK                         _______ _______ _______ _____ _____    ______ ____
ROOT
ATOM      1  C   UNL     1       1.437   8.904  19.149  0.00  0.00    +0.000 A 
ATOM      2  C   UNL     1       1.364   8.995  20.558  0.00  0.00    +0.000 A 
ATOM      3  C   UNL     1       0.382   9.912  20.831  0.00  0.00    +0.000 A 
ATOM      4  N   UNL     1      -0.106  10.402  22.011  0.00  0.00    +0.000 NA
ATOM      5  C   UNL     1      -1.047  11.300  21.942  0.00  0.00    +0.000 A 
ATOM      6  C   UNL     1      -1.643  11.819  20.659  0.00  0.00    +0.000 A 
ATOM      7  C   UNL     1      -1.128  11.290  19.519  0.00  0.00    +0.000 A 
ATOM      8  N   UNL     1      -0.111  10.338  19.596  0.00  0.00    +0.000 N 
ATOM      9  N   UNL     1       0.542   9.721  18.578  0.00  0.00    +0.000 NA
ATOM     10  C   UNL     1      -2.731  12.863  20.719  0.00  0.00    +0.000 C 
ATOM     11  C   UNL     1      -3.028  13.536  22.067  0.00  0.00    +0.000 C 
ATOM     12  C   UNL     1      -1.997  13.291  23.155  0.00  0.00    +0.000 C 
ATOM     13  C   UNL     1      -1.610  11.823  23.250  0.00  0.00    +0.000 C 
ENDROOT
BRANCH   1  15
ATOM     14  O   UNL     1       2.635   8.378  17.179  0.00  0.00    +0.000 OA
ATOM     15  C   UNL     1       2.339   8.066  18.335  0.00  0.00    +0.000 C 
ATOM     16  N   UNL     1       2.757   6.893  18.952  0.00  0.00    +0.000 N 
ATOM     17  H   UNL     1       2.155   6.584  19.712  0.00  0.00    +0.000 HD
BRANCH  16  18
ATOM     18  C   UNL     1       3.560   5.938  18.281  0.00  0.00    +0.000 A 
ATOM     19  C   UNL     1       4.946   6.136  18.212  0.00  0.00    +0.000 A 
ATOM     20  C   UNL     1       5.792   5.182  17.613  0.00  0.00    +0.000 A 
ATOM     21  C   UNL     1       5.225   4.023  17.065  0.00  0.00    +0.000 A 
ATOM     22  C   UNL     1       3.842   3.828  17.104  0.00  0.00    +0.000 A 
ATOM     23  C   UNL     1       3.012   4.779  17.713  0.00  0.00    +0.000 A 
ATOM     24 CL   UNL     1       1.304   4.552  17.603  0.00  0.00    +0.000 Cl
BRANCH  20  25
ATOM     25  C   UNL     1       7.286   5.396  17.568  0.00  0.00    +0.000 C 
ATOM     26  F   UNL     1       7.841   5.631  18.790  0.00  0.00    +0.000 F 
ATOM     27  F   UNL     1       7.948   4.316  17.063  0.00  0.00    +0.000 F 
ATOM     28  F   UNL     1       7.644   6.450  16.784  0.00  0.00    +0.000 F 
ENDBRANCH  20  25
ENDBRANCH  16  18
ENDBRANCH   1  15
BRANCH   7  29
ATOM     29  C   UNL     1      -1.582  11.637  18.141  0.00  0.00    +0.000 C 
ATOM     30  F   UNL     1      -1.404  10.687  17.189  0.00  0.00    +0.000 F 
ATOM     31  F   UNL     1      -2.912  11.927  18.123  0.00  0.00    +0.000 F 
ATOM     32  F   UNL     1      -0.943  12.745  17.679  0.00  0.00    +0.000 F 
ENDBRANCH   7  29
TORSDOF 4
ENDMDL
MODEL 4
REMARK VINA RESULT:      -9.0      2.184      2.811
REMARK  Name = 
REMARK  4 active torsions:
REMARK  status: ('A' for Active; 'I' for Inactive)
REMARK    1  A    between atoms: C_2  and  C_15
REMARK    2  A    between atoms: N_3  and  C_4
REMARK    3  A    between atoms: C_6  and  C_7
REMARK    4  A    between atoms: C_21  and  C_22
REMARK                            x       y       z     vdW  Elec       q    Type
REMARK                         _______ _______ _______ _____ _____    ______ ____
ROOT
ATOM      1  C   UNL     1       1.404   8.102  20.372  0.00  0.00    +0.000 A 
ATOM      2  C   UNL     1       1.342   8.691  21.656  0.00  0.00    +0.000 A 
ATOM      3  C   UNL     1       0.496   9.764  21.543  0.00  0.00    +0.000 A 
ATOM      4  N   UNL     1       0.079  10.696  22.454  0.00  0.00    +0.000 NA
ATOM      5  C   UNL     1      -0.729  11.625  22.030  0.00  0.00    +0.000 A 
ATOM      6  C   UNL     1      -1.248  11.731  20.618  0.00  0.00    +0.000 A 
ATOM      7  C   UNL     1      -0.811  10.773  19.762  0.00  0.00    +0.000 A 
ATOM      8  N   UNL     1       0.067   9.787  20.215  0.00  0.00    +0.000 N 
ATOM      9  N   UNL     1       0.630   8.772  19.510  0.00  0.00    +0.000 NA
ATOM     10  C   UNL     1      -2.182  12.859  20.258  0.00  0.00    +0.000 C 
ATOM     11  C   UNL     1      -2.385  13.995  21.270  0.00  0.00    +0.000 C 
ATOM     12  C   UNL     1      -1.398  14.020  22.424  0.00  0.00    +0.000 C 
ATOM     13  C   UNL     1      -1.216  12.642  23.044  0.00  0.00    +0.000 C 
ENDROOT
BRANCH   1  15
ATOM     14  O   UNL     1       2.403   5.987  20.721  0.00  0.00    +0.000 OA
ATOM     15  C   UNL     1       2.183   6.922  19.947  0.00  0.00    +0.000 C 
ATOM     16  N   UNL     1       2.686   6.992  18.654  0.00  0.00    +0.000 N 
ATOM     17  H   UNL     1       2.760   7.938  18.285  0.00  0.00    +0.000 HD
BRANCH  16  18
ATOM     18  C   UNL     1       3.521   5.981  18.118  0.00  0.00    +0.000 A 
ATOM     19  C   UNL     1       4.904   6.196  18.054  0.00  0.00    +0.000 A 
ATOM     20  C   UNL     1       5.779   5.195  17.590  0.00  0.00    +0.000 A 
ATOM     21  C   UNL     1       5.244   3.969  17.171  0.00  0.00    +0.000 A 
ATOM     22  C   UNL     1       3.864   3.752  17.206  0.00  0.00    +0.000 A 
ATOM     23  C   UNL     1       3.005   4.752  17.680  0.00  0.00    +0.000 A 
ATOM     24 CL   UNL     1       1.304   4.481  17.564  0.00  0.00    +0.000 Cl
BRANCH  20  25
ATOM     25  C   UNL     1       7.270   5.431  17.550  0.00  0.00    +0.000 C 
ATOM     26  F   UNL     1       7.979   4.366  17.083  0.00  0.00    +0.000 F 
ATOM     27  F   UNL     1       7.607   6.480  16.748  0.00  0.00    +0.000 F 
ATOM     28  F   UNL     1       7.790   5.719  18.775  0.00  0.00    +0.000 F 
ENDBRANCH  20  25
ENDBRANCH  16  18
ENDBRANCH   1  15
BRANCH   7  29
ATOM     29  C   UNL     1      -1.211  10.667  18.329  0.00  0.00    +0.000 C 
ATOM     30  F   UNL     1      -0.438   9.879  17.541  0.00  0.00    +0.000 F 
ATOM     31  F   UNL     1      -2.475  10.174  18.210  0.00  0.00    +0.000 F 
ATOM     32  F   UNL     1      -1.220  11.888  17.730  0.00  0.00    +0.000 F 
ENDBRANCH   7  29
TORSDOF 4
ENDMDL
MODEL 5
REMARK VINA RESULT:      -8.9      2.268      2.788
REMARK  Name = 
REMARK  4 active torsions:
REMARK  status: ('A' for Active; 'I' for Inactive)
REMARK    1  A    between atoms: C_2  and  C_15
REMARK    2  A    between atoms: N_3  and  C_4
REMARK    3  A    between atoms: C_6  and  C_7
REMARK    4  A    between atoms: C_21  and  C_22
REMARK                            x       y       z     vdW  Elec       q    Type
REMARK                         _______ _______ _______ _____ _____    ______ ____
ROOT
ATOM      1  C   UNL     1       2.450   7.863  18.398  0.00  0.00    +0.000 A 
ATOM      2  C   UNL     1       2.170   9.054  17.688  0.00  0.00    +0.000 A 
ATOM      3  C   UNL     1       1.413   9.830  18.529  0.00  0.00    +0.000 A 
ATOM      4  N   UNL     1       0.852  11.067  18.368  0.00  0.00    +0.000 NA
ATOM      5  C   UNL     1       0.158  11.541  19.363  0.00  0.00    +0.000 A 
ATOM      6  C   UNL     1      -0.053  10.831  20.676  0.00  0.00    +0.000 A 
ATOM      7  C   UNL     1       0.536   9.613  20.783  0.00  0.00    +0.000 A 
ATOM      8  N   UNL     1       1.268   9.101  19.710  0.00  0.00    +0.000 N 
ATOM      9  N   UNL     1       1.900   7.903  19.618  0.00  0.00    +0.000 NA
ATOM     10  C   UNL     1      -0.881  11.494  21.749  0.00  0.00    +0.000 C 
ATOM     11  C   UNL     1      -1.679  12.754  21.386  0.00  0.00    +0.000 C 
ATOM     12  C   UNL     1      -1.786  13.049  19.900  0.00  0.00    +0.000 C 
ATOM     13  C   UNL     1      -0.440  12.925  19.200  0.00  0.00    +0.000 C 
ENDROOT
BRANCH   1  15
ATOM     14  O   UNL     1       2.846   5.541  18.186  0.00  0.00    +0.000 OA
ATOM     15  C   UNL     1       3.223   6.691  17.943  0.00  0.00    +0.000 C 
ATOM     16  N   UNL     1       4.412   6.995  17.293  0.00  0.00    +0.000 N 
ATOM     17  H   UNL     1       4.775   7.923  17.499  0.00  0.00    +0.000 HD
BRANCH  16  18
ATOM     18  C   UNL     1       5.311   5.988  16.863  0.00  0.00    +0.000 A 
ATOM     19  C   UNL     1       5.254   5.541  15.536  0.00  0.00    +0.000 A 
ATOM     20  C   UNL     1       6.169   4.589  15.045  0.00  0.00    +0.000 A 
ATOM     21  C   UNL     1       7.141   4.073  15.914  0.00  0.00    +0.000 A 
ATOM     22  C   UNL     1       7.190   4.491  17.246  0.00  0.00    +0.000 A 
ATOM     23  C   UNL     1       6.281   5.448  17.719  0.00  0.00    +0.000 A 
ATOM     24 CL   UNL     1       6.298   5.817  19.406  0.00  0.00    +0.000 Cl
BRANCH  20  25
ATOM     25  C   UNL     1       6.114   4.135  13.606  0.00  0.00    +0.000 C 
ATOM     26  F   UNL     1       6.983   4.795  12.792  0.00  0.00    +0.000 F 
ATOM     27  F   UNL     1       6.411   2.812  13.469  0.00  0.00    +0.000 F 
ATOM     28  F   UNL     1       4.882   4.298  13.050  0.00  0.00    +0.000 F 
ENDBRANCH  20  25
ENDBRANCH  16  18
ENDBRANCH   1  15
BRANCH   7  29
ATOM     29  C   UNL     1       0.482   8.746  21.996  0.00  0.00    +0.000 C 
ATOM     30  F   UNL     1       0.840   9.324  23.169  0.00  0.00    +0.000 F 
ATOM     31  F   UNL     1      -0.776   8.264  22.195  0.00  0.00    +0.000 F 
ATOM     32  F   UNL     1       1.289   7.660  21.860  0.00  0.00    +0.000 F 
ENDBRANCH   7  29
TORSDOF 4
ENDMDL
MODEL 6
REMARK VINA RESULT:      -8.8      2.224      2.841
REMARK  Name = 
REMARK  4 active torsions:
REMARK  status: ('A' for Active; 'I' for Inactive)
REMARK    1  A    between atoms: C_2  and  C_15
REMARK    2  A    between atoms: N_3  and  C_4
REMARK    3  A    between atoms: C_6  and  C_7
REMARK    4  A    between atoms: C_21  and  C_22
REMARK                            x       y       z     vdW  Elec       q    Type
REMARK                         _______ _______ _______ _____ _____    ______ ____
ROOT
ATOM      1  C   UNL     1       1.486   8.006  20.392  0.00  0.00    +0.000 A 
ATOM      2  C   UNL     1       0.628   8.118  21.512  0.00  0.00    +0.000 A 
ATOM      3  C   UNL     1       0.214   9.424  21.546  0.00  0.00    +0.000 A 
ATOM      4  N   UNL     1      -0.606  10.098  22.410  0.00  0.00    +0.000 NA
ATOM      5  C   UNL     1      -0.796  11.367  22.185  0.00  0.00    +0.000 A 
ATOM      6  C   UNL     1      -0.194  12.133  21.035  0.00  0.00    +0.000 A 
ATOM      7  C   UNL     1       0.601  11.411  20.204  0.00  0.00    +0.000 A 
ATOM      8  N   UNL     1       0.815  10.056  20.456  0.00  0.00    +0.000 N 
ATOM      9  N   UNL     1       1.591   9.183  19.762  0.00  0.00    +0.000 NA
ATOM     10  C   UNL     1      -0.497  13.604  20.889  0.00  0.00    +0.000 C 
ATOM     11  C   UNL     1      -1.209  14.324  22.042  0.00  0.00    +0.000 C 
ATOM     12  C   UNL     1      -1.283  13.547  23.345  0.00  0.00    +0.000 C 
ATOM     13  C   UNL     1      -1.728  12.109  23.123  0.00  0.00    +0.000 C 
ENDROOT
BRANCH   1  15
ATOM     14  O   UNL     1       2.352   5.819  20.630  0.00  0.00    +0.000 OA
ATOM     15  C   UNL     1       2.207   6.812  19.912  0.00  0.00    +0.000 C 
ATOM     16  N   UNL     1       2.749   6.932  18.639  0.00  0.00    +0.000 N 
ATOM     17  H   UNL     1       2.886   7.893  18.332  0.00  0.00    +0.000 HD
BRANCH  16  18
ATOM     18  C   UNL     1       3.539   5.908  18.060  0.00  0.00    +0.000 A 
ATOM     19  C   UNL     1       4.925   6.087  17.958  0.00  0.00    +0.000 A 
ATOM     20  C   UNL     1       5.758   5.072  17.450  0.00  0.00    +0.000 A 
ATOM     21  C   UNL     1       5.177   3.868  17.026  0.00  0.00    +0.000 A 
ATOM     22  C   UNL     1       3.793   3.689  17.098  0.00  0.00    +0.000 A 
ATOM     23  C   UNL     1       2.977   4.702  17.616  0.00  0.00    +0.000 A 
ATOM     24 CL   UNL     1       1.266   4.480  17.546  0.00  0.00    +0.000 Cl
BRANCH  20  25
ATOM     25  C   UNL     1       7.253   5.268  17.369  0.00  0.00    +0.000 C 
ATOM     26  F   UNL     1       7.866   5.300  18.585  0.00  0.00    +0.000 F 
ATOM     27  F   UNL     1       7.868   4.271  16.671  0.00  0.00    +0.000 F 
ATOM     28  F   UNL     1       7.599   6.427  16.744  0.00  0.00    +0.000 F 
ENDBRANCH  20  25
ENDBRANCH  16  18
ENDBRANCH   1  15
BRANCH   7  29
ATOM     29  C   UNL     1       1.280  11.955  18.993  0.00  0.00    +0.000 C 
ATOM     30  F   UNL     1       1.837  11.048  18.152  0.00  0.00    +0.000 F 
ATOM     31  F   UNL     1       0.413  12.675  18.229  0.00  0.00    +0.000 F 
ATOM     32  F   UNL     1       2.285  12.806  19.333  0.00  0.00    +0.000 F 
ENDBRANCH   7  29
TORSDOF 4
ENDMDL
MODEL 7
REMARK VINA RESULT:      -8.7      2.229      2.850
REMARK  Name = 
REMARK  4 active torsions:
REMARK  status: ('A' for Active; 'I' for Inactive)
REMARK    1  A    between atoms: C_2  and  C_15
REMARK    2  A    between atoms: N_3  and  C_4
REMARK    3  A    between atoms: C_6  and  C_7
REMARK    4  A    between atoms: C_21  and  C_22
REMARK                            x       y       z     vdW  Elec       q    Type
REMARK                         _______ _______ _______ _____ _____    ______ ____
ROOT
ATOM      1  C   UNL     1       1.506   9.022  19.095  0.00  0.00    +0.000 A 
ATOM      2  C   UNL     1       1.039   8.769  20.406  0.00  0.00    +0.000 A 
ATOM      3  C   UNL     1       0.291   9.862  20.762  0.00  0.00    +0.000 A 
ATOM      4  N   UNL     1      -0.385  10.168  21.911  0.00  0.00    +0.000 NA
ATOM      5  C   UNL     1      -0.999  11.316  21.955  0.00  0.00    +0.000 A 
ATOM      6  C   UNL     1      -1.029  12.315  20.826  0.00  0.00    +0.000 A 
ATOM      7  C   UNL     1      -0.351  11.953  19.707  0.00  0.00    +0.000 A 
ATOM      8  N   UNL     1       0.317  10.728  19.669  0.00  0.00    +0.000 N 
ATOM      9  N   UNL     1       1.064  10.209  18.660  0.00  0.00    +0.000 NA
ATOM     10  C   UNL     1      -1.779  13.611  21.008  0.00  0.00    +0.000 C 
ATOM     11  C   UNL     1      -2.283  13.977  22.410  0.00  0.00    +0.000 C 
ATOM     12  C   UNL     1      -1.724  13.131  23.542  0.00  0.00    +0.000 C 
ATOM     13  C   UNL     1      -1.774  11.646  23.216  0.00  0.00    +0.000 C 
ENDROOT
BRANCH   1  15
ATOM     14  O   UNL     1       2.649   8.487  17.096  0.00  0.00    +0.000 OA
ATOM     15  C   UNL     1       2.363   8.166  18.252  0.00  0.00    +0.000 C 
ATOM     16  N   UNL     1       2.750   6.969  18.842  0.00  0.00    +0.000 N 
ATOM     17  H   UNL     1       2.151   6.669  19.608  0.00  0.00    +0.000 HD
BRANCH  16  18
ATOM     18  C   UNL     1       3.508   5.999  18.142  0.00  0.00    +0.000 A 
ATOM     19  C   UNL     1       4.871   6.228  17.911  0.00  0.00    +0.000 A 
ATOM     20  C   UNL     1       5.678   5.264  17.277  0.00  0.00    +0.000 A 
ATOM     21  C   UNL     1       5.093   4.060  16.859  0.00  0.00    +0.000 A 
ATOM     22  C   UNL     1       3.729   3.831  17.060  0.00  0.00    +0.000 A 
ATOM     23  C   UNL     1       2.939   4.794  17.702  0.00  0.00    +0.000 A 
ATOM     24 CL   UNL     1       1.238   4.516  17.792  0.00  0.00    +0.000 Cl
BRANCH  20  25
ATOM     25  C   UNL     1       7.151   5.514  17.057  0.00  0.00    +0.000 C 
ATOM     26  F   UNL     1       7.950   4.519  17.532  0.00  0.00    +0.000 F 
ATOM     27  F   UNL     1       7.462   5.640  15.736  0.00  0.00    +0.000 F 
ATOM     28  F   UNL     1       7.584   6.660  17.652  0.00  0.00    +0.000 F 
ENDBRANCH  20  25
ENDBRANCH  16  18
ENDBRANCH   1  15
BRANCH   7  29
ATOM     29  C   UNL     1      -0.265  12.771  18.463  0.00  0.00    +0.000 C 
ATOM     30  F   UNL     1      -0.624  14.075  18.571  0.00  0.00    +0.000 F 
ATOM     31  F   UNL     1       1.004  12.782  17.972  0.00  0.00    +0.000 F 
ATOM     32  F   UNL     1      -1.051  12.255  17.481  0.00  0.00    +0.000 F 
ENDBRANCH   7  29
TORSDOF 4
ENDMDL
MODEL 8
REMARK VINA RESULT:      -8.7      1.121      1.457
REMARK  Name = 
REMARK  4 active torsions:
REMARK  status: ('A' for Active; 'I' for Inactive)
REMARK    1  A    between atoms: C_2  and  C_15
REMARK    2  A    between atoms: N_3  and  C_4
REMARK    3  A    between atoms: C_6  and  C_7
REMARK    4  A    between atoms: C_21  and  C_22
REMARK                            x       y       z     vdW  Elec       q    Type
REMARK                         _______ _______ _______ _____ _____    ______ ____
ROOT
ATOM      1  C   UNL     1       1.813   8.725  18.802  0.00  0.00    +0.000 A 
ATOM      2  C   UNL     1       1.460   9.934  18.158  0.00  0.00    +0.000 A 
ATOM      3  C   UNL     1       0.703  10.639  19.058  0.00  0.00    +0.000 A 
ATOM      4  N   UNL     1       0.088  11.858  18.974  0.00  0.00    +0.000 NA
ATOM      5  C   UNL     1      -0.589  12.257  20.013  0.00  0.00    +0.000 A 
ATOM      6  C   UNL     1      -0.725  11.482  21.298  0.00  0.00    +0.000 A 
ATOM      7  C   UNL     1      -0.084  10.285  21.328  0.00  0.00    +0.000 A 
ATOM      8  N   UNL     1       0.629   9.853  20.209  0.00  0.00    +0.000 N 
ATOM      9  N   UNL     1       1.305   8.687  20.041  0.00  0.00    +0.000 NA
ATOM     10  C   UNL     1      -1.540  12.060  22.427  0.00  0.00    +0.000 C 
ATOM     11  C   UNL     1      -2.400  13.301  22.150  0.00  0.00    +0.000 C 
ATOM     12  C   UNL     1      -2.571  13.658  20.683  0.00  0.00    +0.000 C 
ATOM     13  C   UNL     1      -1.247  13.621  19.934  0.00  0.00    +0.000 C 
ENDROOT
BRANCH   1  15
ATOM     14  O   UNL     1       3.480   7.794  17.408  0.00  0.00    +0.000 OA
ATOM     15  C   UNL     1       2.615   7.607  18.267  0.00  0.00    +0.000 C 
ATOM     16  N   UNL     1       2.267   6.355  18.757  0.00  0.00    +0.000 N 
ATOM     17  H   UNL     1       1.325   6.303  19.140  0.00  0.00    +0.000 HD
BRANCH  16  18
ATOM     18  C   UNL     1       2.883   5.169  18.289  0.00  0.00    +0.000 A 
ATOM     19  C   UNL     1       3.985   5.263  17.427  0.00  0.00    +0.000 A 
ATOM     20  C   UNL     1       4.670   4.113  16.988  0.00  0.00    +0.000 A 
ATOM     21  C   UNL     1       4.223   2.854  17.414  0.00  0.00    +0.000 A 
ATOM     22  C   UNL     1       3.110   2.747  18.252  0.00  0.00    +0.000 A 
ATOM     23  C   UNL     1       2.444   3.899  18.691  0.00  0.00    +0.000 A 
ATOM     24 CL   UNL     1       0.992   3.697  19.604  0.00  0.00    +0.000 Cl
BRANCH  20  25
ATOM     25  C   UNL     1       5.871   4.230  16.081  0.00  0.00    +0.000 C 
ATOM     26  F   UNL     1       5.961   3.228  15.163  0.00  0.00    +0.000 F 
ATOM     27  F   UNL     1       5.867   5.389  15.364  0.00  0.00    +0.000 F 
ATOM     28  F   UNL     1       7.049   4.220  16.763  0.00  0.00    +0.000 F 
ENDBRANCH  20  25
ENDBRANCH  16  18
ENDBRANCH   1  15
BRANCH   7  29
ATOM     29  C   UNL     1      -0.061   9.363  22.501  0.00  0.00    +0.000 C 
ATOM     30  F   UNL     1      -0.491   9.874  23.681  0.00  0.00    +0.000 F 
ATOM     31  F   UNL     1      -0.835   8.266  22.275  0.00  0.00    +0.000 F 
ATOM     32  F   UNL     1       1.196   8.900  22.737  0.00  0.00    +0.000 F 
ENDBRANCH   7  29
TORSDOF 4
ENDMDL
MODEL 9
REMARK VINA RESULT:      -8.6      1.337      1.768
REMARK  Name = 
REMARK  4 active torsions:
REMARK  status: ('A' for Active; 'I' for Inactive)
REMARK    1  A    between atoms: C_2  and  C_15
REMARK    2  A    between atoms: N_3  and  C_4
REMARK    3  A    between atoms: C_6  and  C_7
REMARK    4  A    between atoms: C_21  and  C_22
REMARK                            x       y       z     vdW  Elec       q    Type
REMARK                         _______ _______ _______ _____ _____    ______ ____
ROOT
ATOM      1  C   UNL     1       1.631   9.299  18.927  0.00  0.00    +0.000 A 
ATOM      2  C   UNL     1       1.513  10.639  18.487  0.00  0.00    +0.000 A 
ATOM      3  C   UNL     1       0.833  11.305  19.474  0.00  0.00    +0.000 A 
ATOM      4  N   UNL     1       0.428  12.607  19.582  0.00  0.00    +0.000 NA
ATOM      5  C   UNL     1      -0.230  12.941  20.655  0.00  0.00    +0.000 A 
ATOM      6  C   UNL     1      -0.558  12.000  21.787  0.00  0.00    +0.000 A 
ATOM      7  C   UNL     1      -0.121  10.724  21.631  0.00  0.00    +0.000 A 
ATOM      8  N   UNL     1       0.571  10.366  20.473  0.00  0.00    +0.000 N 
ATOM      9  N   UNL     1       1.058   9.147  20.127  0.00  0.00    +0.000 NA
ATOM     10  C   UNL     1      -1.328  12.517  22.976  0.00  0.00    +0.000 C 
ATOM     11  C   UNL     1      -1.960  13.913  22.891  0.00  0.00    +0.000 C 
ATOM     12  C   UNL     1      -1.992  14.527  21.502  0.00  0.00    +0.000 C 
ATOM     13  C   UNL     1      -0.654  14.391  20.791  0.00  0.00    +0.000 C 
ENDROOT
BRANCH   1  15
ATOM     14  O   UNL     1       2.585   8.239  17.041  0.00  0.00    +0.000 OA
ATOM     15  C   UNL     1       2.269   8.165  18.231  0.00  0.00    +0.000 C 
ATOM     16  N   UNL     1       2.414   7.018  19.001  0.00  0.00    +0.000 N 
ATOM     17  H   UNL     1       1.786   6.969  19.801  0.00  0.00    +0.000 HD
BRANCH  16  18
ATOM     18  C   UNL     1       2.935   5.815  18.464  0.00  0.00    +0.000 A 
ATOM     19  C   UNL     1       3.922   5.878  17.472  0.00  0.00    +0.000 A 
ATOM     20  C   UNL     1       4.516   4.710  16.955  0.00  0.00    +0.000 A 
ATOM     21  C   UNL     1       4.092   3.464  17.438  0.00  0.00    +0.000 A 
ATOM     22  C   UNL     1       3.089   3.388  18.408  0.00  0.00    +0.000 A 
ATOM     23  C   UNL     1       2.515   4.557  18.923  0.00  0.00    +0.000 A 
ATOM     24 CL   UNL     1       1.184   4.396  20.011  0.00  0.00    +0.000 Cl
BRANCH  20  25
ATOM     25  C   UNL     1       5.597   4.794  15.904  0.00  0.00    +0.000 C 
ATOM     26  F   UNL     1       5.852   3.606  15.288  0.00  0.00    +0.000 F 
ATOM     27  F   UNL     1       5.282   5.667  14.906  0.00  0.00    +0.000 F 
ATOM     28  F   UNL     1       6.788   5.219  16.407  0.00  0.00    +0.000 F 
ENDBRANCH  20  25
ENDBRANCH  16  18
ENDBRANCH   1  15
BRANCH   7  29
ATOM     29  C   UNL     1      -0.310   9.633  22.630  0.00  0.00    +0.000 C 
ATOM     30  F   UNL     1      -0.770   8.450  22.154  0.00  0.00    +0.000 F 
ATOM     31  F   UNL     1       0.860   9.342  23.262  0.00  0.00    +0.000 F 
ATOM     32  F   UNL     1      -1.187  10.004  23.601  0.00  0.00    +0.000 F 
ENDBRANCH   7  29
TORSDOF 4
ENDMDL
