MODEL 1
REMARK VINA RESULT:      -8.1      0.000      0.000
REMARK  Name = 
REMARK  4 active torsions:
REMARK  status: ('A' for Active; 'I' for Inactive)
REMARK    1  A    between atoms: C_4  and  O_5
REMARK    2  A    between atoms: N_9  and  C_10
REMARK    3  A    between atoms: C_13  and  C_14
REMARK    4  A    between atoms: C_14  and  O_15
REMARK                            x       y       z     vdW  Elec       q    Type
REMARK                         _______ _______ _______ _____ _____    ______ ____
ROOT
ATOM      1  N   UNL     1       8.165   5.627  20.013  0.00  0.00    +0.000 N 
ATOM      2  C   UNL     1       7.313   5.300  18.977  0.00  0.00    +0.000 A 
ATOM      3  N   UNL     1       7.776   5.496  17.730  0.00  0.00    +0.000 NA
ATOM      4  C   UNL     1       6.968   5.167  16.702  0.00  0.00    +0.000 A 
ATOM      5  C   UNL     1       5.695   4.654  16.922  0.00  0.00    +0.000 A 
ATOM      6  N   UNL     1       4.663   4.224  16.115  0.00  0.00    +0.000 NA
ATOM      7  C   UNL     1       3.702   3.870  16.946  0.00  0.00    +0.000 A 
ATOM      8  N   UNL     1       4.056   4.078  18.251  0.00  0.00    +0.000 N 
ATOM      9  C   UNL     1       5.343   4.544  18.255  0.00  0.00    +0.000 A 
ATOM     10  N   UNL     1       6.096   4.854  19.322  0.00  0.00    +0.000 NA
ATOM     11  H   UNL     1       8.850   6.303  19.708  0.00  0.00    +0.000 HD
ATOM     12  H   UNL     1       7.639   5.837  20.848  0.00  0.00    +0.000 HD
ENDROOT
BRANCH   8  13
ATOM     13  C   UNL     1       3.254   3.934  19.446  0.00  0.00    +0.000 C 
ATOM     14  C   UNL     1       2.315   5.065  19.752  0.00  0.00    +0.000 C 
ATOM     15  C   UNL     1       1.186   4.612  20.312  0.00  0.00    +0.000 C 
ATOM     16  C   UNL     1       1.198   3.110  20.441  0.00  0.00    +0.000 C 
ATOM     17  C   UNL     1       2.296   2.733  19.430  0.00  0.00    +0.000 C 
BRANCH  16  18
ATOM     18  C   UNL     1       1.547   2.643  21.860  0.00  0.00    +0.000 C 
BRANCH  18  19
ATOM     19  O   UNL     1       2.927   2.316  21.967  0.00  0.00    +0.000 OA
ATOM     20  H   UNL     1       3.202   2.532  22.876  0.00  0.00    +0.000 HD
ENDBRANCH  18  19
ENDBRANCH  16  18
ENDBRANCH   8  13
BRANCH   4  21
ATOM     21  O   UNL     1       7.499   5.389  15.462  0.00  0.00    +0.000 OA
ATOM     22  H   UNL     1       6.917   6.098  15.140  0.00  0.00    +0.000 HD
ENDBRANCH   4  21
TORSDOF 4
ENDMDL
MODEL 2
REMARK VINA RESULT:      -7.8      1.723      1.786
REMARK  Name = 
REMARK  4 active torsions:
REMARK  status: ('A' for Active; 'I' for Inactive)
REMARK    1  A    between atoms: C_4  and  O_5
REMARK    2  A    between atoms: N_9  and  C_10
REMARK    3  A    between atoms: C_13  and  C_14
REMARK    4  A    between atoms: C_14  and  O_15
REMARK                            x       y       z     vdW  Elec       q    Type
REMARK                         _______ _______ _______ _____ _____    ______ ____
ROOT
ATOM      1  N   UNL     1       8.409   5.231  20.555  0.00  0.00    +0.000 N 
ATOM      2  C   UNL     1       7.584   5.686  19.546  0.00  0.00    +0.000 A 
ATOM      3  N   UNL     1       8.102   6.603  18.710  0.00  0.00    +0.000 NA
ATOM      4  C   UNL     1       7.321   7.050  17.707  0.00  0.00    +0.000 A 
ATOM      5  C   UNL     1       6.019   6.588  17.547  0.00  0.00    +0.000 A 
ATOM      6  N   UNL     1       5.001   6.828  16.649  0.00  0.00    +0.000 NA
ATOM      7  C   UNL     1       3.995   6.083  17.062  0.00  0.00    +0.000 A 
ATOM      8  N   UNL     1       4.307   5.393  18.201  0.00  0.00    +0.000 N 
ATOM      9  C   UNL     1       5.613   5.676  18.504  0.00  0.00    +0.000 A 
ATOM     10  N   UNL     1       6.337   5.193  19.526  0.00  0.00    +0.000 NA
ATOM     11  H   UNL     1       9.134   5.906  20.752  0.00  0.00    +0.000 HD
ATOM     12  H   UNL     1       7.861   4.892  21.331  0.00  0.00    +0.000 HD
ENDROOT
BRANCH   8  13
ATOM     13  C   UNL     1       3.455   4.569  19.029  0.00  0.00    +0.000 C 
ATOM     14  C   UNL     1       2.862   5.235  20.237  0.00  0.00    +0.000 C 
ATOM     15  C   UNL     1       1.632   4.768  20.486  0.00  0.00    +0.000 C 
ATOM     16  C   UNL     1       1.217   3.737  19.467  0.00  0.00    +0.000 C 
ATOM     17  C   UNL     1       2.199   4.038  18.321  0.00  0.00    +0.000 C 
BRANCH  16  18
ATOM     18  C   UNL     1       1.369   2.302  19.986  0.00  0.00    +0.000 C 
BRANCH  18  19
ATOM     19  O   UNL     1       1.777   1.421  18.946  0.00  0.00    +0.000 OA
ATOM     20  H   UNL     1       1.052   1.389  18.298  0.00  0.00    +0.000 HD
ENDBRANCH  18  19
ENDBRANCH  16  18
ENDBRANCH   8  13
BRANCH   4  21
ATOM     21  O   UNL     1       7.908   7.978  16.893  0.00  0.00    +0.000 OA
ATOM     22  H   UNL     1       8.408   8.499  17.544  0.00  0.00    +0.000 HD
ENDBRANCH   4  21
TORSDOF 4
ENDMDL
MODEL 3
REMARK VINA RESULT:      -7.8      1.497      1.526
REMARK  Name = 
REMARK  4 active torsions:
REMARK  status: ('A' for Active; 'I' for Inactive)
REMARK    1  A    between atoms: C_4  and  O_5
REMARK    2  A    between atoms: N_9  and  C_10
REMARK    3  A    between atoms: C_13  and  C_14
REMARK    4  A    between atoms: C_14  and  O_15
REMARK                            x       y       z     vdW  Elec       q    Type
REMARK                         _______ _______ _______ _____ _____    ______ ____
ROOT
ATOM      1  N   UNL     1       8.541   5.196  20.496  0.00  0.00    +0.000 N 
ATOM      2  C   UNL     1       7.616   5.626  19.568  0.00  0.00    +0.000 A 
ATOM      3  N   UNL     1       8.056   6.482  18.628  0.00  0.00    +0.000 NA
ATOM      4  C   UNL     1       7.174   6.903  17.700  0.00  0.00    +0.000 A 
ATOM      5  C   UNL     1       5.851   6.476  17.718  0.00  0.00    +0.000 A 
ATOM      6  N   UNL     1       4.741   6.704  16.932  0.00  0.00    +0.000 NA
ATOM      7  C   UNL     1       3.771   6.015  17.500  0.00  0.00    +0.000 A 
ATOM      8  N   UNL     1       4.197   5.373  18.631  0.00  0.00    +0.000 N 
ATOM      9  C   UNL     1       5.536   5.628  18.764  0.00  0.00    +0.000 A 
ATOM     10  N   UNL     1       6.362   5.174  19.719  0.00  0.00    +0.000 NA
ATOM     11  H   UNL     1       9.302   5.856  20.571  0.00  0.00    +0.000 HD
ATOM     12  H   UNL     1       8.080   4.915  21.349  0.00  0.00    +0.000 HD
ENDROOT
BRANCH   8  13
ATOM     13  C   UNL     1       3.426   4.621  19.596  0.00  0.00    +0.000 C 
ATOM     14  C   UNL     1       1.954   4.912  19.638  0.00  0.00    +0.000 C 
ATOM     15  C   UNL     1       1.254   3.805  19.915  0.00  0.00    +0.000 C 
ATOM     16  C   UNL     1       2.157   2.608  20.076  0.00  0.00    +0.000 C 
ATOM     17  C   UNL     1       3.434   3.101  19.372  0.00  0.00    +0.000 C 
BRANCH  16  18
ATOM     18  C   UNL     1       2.416   2.259  21.547  0.00  0.00    +0.000 C 
BRANCH  18  19
ATOM     19  O   UNL     1       1.300   2.604  22.359  0.00  0.00    +0.000 OA
ATOM     20  H   UNL     1       1.441   2.189  23.229  0.00  0.00    +0.000 HD
ENDBRANCH  18  19
ENDBRANCH  16  18
ENDBRANCH   8  13
BRANCH   4  21
ATOM     21  O   UNL     1       7.686   7.768  16.774  0.00  0.00    +0.000 OA
ATOM     22  H   UNL     1       8.059   8.454  17.354  0.00  0.00    +0.000 HD
ENDBRANCH   4  21
TORSDOF 4
ENDMDL
MODEL 4
REMARK VINA RESULT:      -7.4      1.868      2.208
REMARK  Name = 
REMARK  4 active torsions:
REMARK  status: ('A' for Active; 'I' for Inactive)
REMARK    1  A    between atoms: C_4  and  O_5
REMARK    2  A    between atoms: N_9  and  C_10
REMARK    3  A    between atoms: C_13  and  C_14
REMARK    4  A    between atoms: C_14  and  O_15
REMARK                            x       y       z     vdW  Elec       q    Type
REMARK                         _______ _______ _______ _____ _____    ______ ____
ROOT
ATOM      1  N   UNL     1       8.329   5.257  20.541  0.00  0.00    +0.000 N 
ATOM      2  C   UNL     1       7.654   5.776  19.454  0.00  0.00    +0.000 A 
ATOM      3  N   UNL     1       8.245   6.796  18.807  0.00  0.00    +0.000 NA
ATOM      4  C   UNL     1       7.614   7.307  17.732  0.00  0.00    +0.000 A 
ATOM      5  C   UNL     1       6.386   6.807  17.312  0.00  0.00    +0.000 A 
ATOM      6  N   UNL     1       5.516   7.092  16.282  0.00  0.00    +0.000 NA
ATOM      7  C   UNL     1       4.503   6.265  16.448  0.00  0.00    +0.000 A 
ATOM      8  N   UNL     1       4.666   5.477  17.555  0.00  0.00    +0.000 N 
ATOM      9  C   UNL     1       5.884   5.785  18.098  0.00  0.00    +0.000 A 
ATOM     10  N   UNL     1       6.460   5.233  19.178  0.00  0.00    +0.000 NA
ATOM     11  H   UNL     1       8.970   5.940  20.919  0.00  0.00    +0.000 HD
ATOM     12  H   UNL     1       7.683   4.817  21.179  0.00  0.00    +0.000 HD
ENDROOT
BRANCH   8  13
ATOM     13  C   UNL     1       3.741   4.536  18.147  0.00  0.00    +0.000 C 
ATOM     14  C   UNL     1       2.299   4.954  18.174  0.00  0.00    +0.000 C 
ATOM     15  C   UNL     1       1.491   3.899  18.005  0.00  0.00    +0.000 C 
ATOM     16  C   UNL     1       2.278   2.626  17.819  0.00  0.00    +0.000 C 
ATOM     17  C   UNL     1       3.657   3.184  17.423  0.00  0.00    +0.000 C 
BRANCH  16  18
ATOM     18  C   UNL     1       2.350   1.786  19.100  0.00  0.00    +0.000 C 
BRANCH  18  19
ATOM     19  O   UNL     1       1.463   2.288  20.093  0.00  0.00    +0.000 OA
ATOM     20  H   UNL     1       0.575   1.952  19.878  0.00  0.00    +0.000 HD
ENDBRANCH  18  19
ENDBRANCH  16  18
ENDBRANCH   8  13
BRANCH   4  21
ATOM     21  O   UNL     1       8.268   8.338  17.119  0.00  0.00    +0.000 OA
ATOM     22  H   UNL     1       8.852   8.635  17.838  0.00  0.00    +0.000 HD
ENDBRANCH   4  21
TORSDOF 4
ENDMDL
MODEL 5
REMARK VINA RESULT:      -7.3      2.066      5.976
REMARK  Name = 
REMARK  4 active torsions:
REMARK  status: ('A' for Active; 'I' for Inactive)
REMARK    1  A    between atoms: C_4  and  O_5
REMARK    2  A    between atoms: N_9  and  C_10
REMARK    3  A    between atoms: C_13  and  C_14
REMARK    4  A    between atoms: C_14  and  O_15
REMARK                            x       y       z     vdW  Elec       q    Type
REMARK                         _______ _______ _______ _____ _____    ______ ____
ROOT
ATOM      1  N   UNL     1       2.011   7.217  20.433  0.00  0.00    +0.000 N 
ATOM      2  C   UNL     1       2.165   5.888  20.091  0.00  0.00    +0.000 A 
ATOM      3  N   UNL     1       1.418   4.999  20.769  0.00  0.00    +0.000 NA
ATOM      4  C   UNL     1       1.538   3.698  20.441  0.00  0.00    +0.000 A 
ATOM      5  C   UNL     1       2.414   3.285  19.443  0.00  0.00    +0.000 A 
ATOM      6  N   UNL     1       2.751   2.072  18.881  0.00  0.00    +0.000 NA
ATOM      7  C   UNL     1       3.674   2.354  17.983  0.00  0.00    +0.000 A 
ATOM      8  N   UNL     1       3.968   3.690  17.958  0.00  0.00    +0.000 N 
ATOM      9  C   UNL     1       3.142   4.306  18.861  0.00  0.00    +0.000 A 
ATOM     10  N   UNL     1       3.073   5.617  19.142  0.00  0.00    +0.000 NA
ATOM     11  H   UNL     1       1.654   7.302  21.374  0.00  0.00    +0.000 HD
ATOM     12  H   UNL     1       2.843   7.738  20.200  0.00  0.00    +0.000 HD
ENDROOT
BRANCH   8  13
ATOM     13  C   UNL     1       4.995   4.383  17.211  0.00  0.00    +0.000 C 
ATOM     14  C   UNL     1       6.287   4.629  17.935  0.00  0.00    +0.000 C 
ATOM     15  C   UNL     1       7.328   4.549  17.096  0.00  0.00    +0.000 C 
ATOM     16  C   UNL     1       6.883   4.217  15.694  0.00  0.00    +0.000 C 
ATOM     17  C   UNL     1       5.479   3.642  15.956  0.00  0.00    +0.000 C 
BRANCH  16  18
ATOM     18  C   UNL     1       6.832   5.450  14.785  0.00  0.00    +0.000 C 
BRANCH  18  19
ATOM     19  O   UNL     1       7.995   5.534  13.969  0.00  0.00    +0.000 OA
ATOM     20  H   UNL     1       8.528   4.740  14.149  0.00  0.00    +0.000 HD
ENDBRANCH  18  19
ENDBRANCH  16  18
ENDBRANCH   8  13
BRANCH   4  21
ATOM     21  O   UNL     1       0.749   2.849  21.166  0.00  0.00    +0.000 OA
ATOM     22  H   UNL     1       0.575   3.391  21.953  0.00  0.00    +0.000 HD
ENDBRANCH   4  21
TORSDOF 4
ENDMDL
MODEL 6
REMARK VINA RESULT:      -7.2      1.961      5.740
REMARK  Name = 
REMARK  4 active torsions:
REMARK  status: ('A' for Active; 'I' for Inactive)
REMARK    1  A    between atoms: C_4  and  O_5
REMARK    2  A    between atoms: N_9  and  C_10
REMARK    3  A    between atoms: C_13  and  C_14
REMARK    4  A    between atoms: C_14  and  O_15
REMARK                            x       y       z     vdW  Elec       q    Type
REMARK                         _______ _______ _______ _____ _____    ______ ____
ROOT
ATOM      1  N   UNL     1       5.223   1.334  20.369  0.00  0.00    +0.000 N 
ATOM      2  C   UNL     1       4.429   2.433  20.110  0.00  0.00    +0.000 A 
ATOM      3  N   UNL     1       3.311   2.557  20.846  0.00  0.00    +0.000 NA
ATOM      4  C   UNL     1       2.529   3.631  20.623  0.00  0.00    +0.000 A 
ATOM      5  C   UNL     1       2.860   4.575  19.657  0.00  0.00    +0.000 A 
ATOM      6  N   UNL     1       2.297   5.751  19.208  0.00  0.00    +0.000 NA
ATOM      7  C   UNL     1       3.095   6.167  18.244  0.00  0.00    +0.000 A 
ATOM      8  N   UNL     1       4.132   5.301  18.032  0.00  0.00    +0.000 N 
ATOM      9  C   UNL     1       4.017   4.295  18.955  0.00  0.00    +0.000 A 
ATOM     10  N   UNL     1       4.838   3.246  19.124  0.00  0.00    +0.000 NA
ATOM     11  H   UNL     1       4.680   0.597  20.795  0.00  0.00    +0.000 HD
ATOM     12  H   UNL     1       5.775   1.100  19.557  0.00  0.00    +0.000 HD
ENDROOT
BRANCH   8  13
ATOM     13  C   UNL     1       5.147   5.330  17.002  0.00  0.00    +0.000 C 
ATOM     14  C   UNL     1       6.571   5.343  17.477  0.00  0.00    +0.000 C 
ATOM     15  C   UNL     1       7.360   4.653  16.644  0.00  0.00    +0.000 C 
ATOM     16  C   UNL     1       6.573   4.060  15.502  0.00  0.00    +0.000 C 
ATOM     17  C   UNL     1       5.143   4.108  16.070  0.00  0.00    +0.000 C 
BRANCH  16  18
ATOM     18  C   UNL     1       6.701   4.879  14.212  0.00  0.00    +0.000 C 
BRANCH  18  19
ATOM     19  O   UNL     1       7.946   5.565  14.161  0.00  0.00    +0.000 OA
ATOM     20  H   UNL     1       8.426   5.227  13.384  0.00  0.00    +0.000 HD
ENDBRANCH  18  19
ENDBRANCH  16  18
ENDBRANCH   8  13
BRANCH   4  21
ATOM     21  O   UNL     1       1.410   3.698  21.405  0.00  0.00    +0.000 OA
ATOM     22  H   UNL     1       1.345   2.777  21.707  0.00  0.00    +0.000 HD
ENDBRANCH   4  21
TORSDOF 4
ENDMDL
MODEL 7
REMARK VINA RESULT:      -7.2      1.732      2.049
REMARK  Name = 
REMARK  4 active torsions:
REMARK  status: ('A' for Active; 'I' for Inactive)
REMARK    1  A    between atoms: C_4  and  O_5
REMARK    2  A    between atoms: N_9  and  C_10
REMARK    3  A    between atoms: C_13  and  C_14
REMARK    4  A    between atoms: C_14  and  O_15
REMARK                            x       y       z     vdW  Elec       q    Type
REMARK                         _______ _______ _______ _____ _____    ______ ____
ROOT
ATOM      1  N   UNL     1       8.431   5.228  20.538  0.00  0.00    +0.000 N 
ATOM      2  C   UNL     1       7.609   5.637  19.508  0.00  0.00    +0.000 A 
ATOM      3  N   UNL     1       8.057   6.647  18.742  0.00  0.00    +0.000 NA
ATOM      4  C   UNL     1       7.279   7.052  17.719  0.00  0.00    +0.000 A 
ATOM      5  C   UNL     1       6.049   6.454  17.469  0.00  0.00    +0.000 A 
ATOM      6  N   UNL     1       5.055   6.623  16.529  0.00  0.00    +0.000 NA
ATOM      7  C   UNL     1       4.123   5.749  16.854  0.00  0.00    +0.000 A 
ATOM      8  N   UNL     1       4.457   5.042  17.977  0.00  0.00    +0.000 N 
ATOM      9  C   UNL     1       5.705   5.456  18.361  0.00  0.00    +0.000 A 
ATOM     10  N   UNL     1       6.430   5.007  19.399  0.00  0.00    +0.000 NA
ATOM     11  H   UNL     1       9.063   5.970  20.804  0.00  0.00    +0.000 HD
ATOM     12  H   UNL     1       7.889   4.791  21.268  0.00  0.00    +0.000 HD
ENDROOT
BRANCH   8  13
ATOM     13  C   UNL     1       3.667   4.086  18.721  0.00  0.00    +0.000 C 
ATOM     14  C   UNL     1       4.391   2.863  19.204  0.00  0.00    +0.000 C 
ATOM     15  C   UNL     1       3.917   2.464  20.391  0.00  0.00    +0.000 C 
ATOM     16  C   UNL     1       2.821   3.376  20.883  0.00  0.00    +0.000 C 
ATOM     17  C   UNL     1       3.073   4.631  20.029  0.00  0.00    +0.000 C 
BRANCH  16  18
ATOM     18  C   UNL     1       1.421   2.796  20.644  0.00  0.00    +0.000 C 
BRANCH  18  19
ATOM     19  O   UNL     1       0.486   3.823  20.338  0.00  0.00    +0.000 OA
ATOM     20  H   UNL     1       0.021   3.554  19.526  0.00  0.00    +0.000 HD
ENDBRANCH  18  19
ENDBRANCH  16  18
ENDBRANCH   8  13
BRANCH   4  21
ATOM     21  O   UNL     1       7.793   8.081  16.980  0.00  0.00    +0.000 OA
ATOM     22  H   UNL     1       7.288   8.831  17.337  0.00  0.00    +0.000 HD
ENDBRANCH   4  21
TORSDOF 4
ENDMDL
MODEL 8
REMARK VINA RESULT:      -7.0      1.220      1.579
REMARK  Name = 
REMARK  4 active torsions:
REMARK  status: ('A' for Active; 'I' for Inactive)
REMARK    1  A    between atoms: C_4  and  O_5
REMARK    2  A    between atoms: N_9  and  C_10
REMARK    3  A    between atoms: C_13  and  C_14
REMARK    4  A    between atoms: C_14  and  O_15
REMARK                            x       y       z     vdW  Elec       q    Type
REMARK                         _______ _______ _______ _____ _____    ______ ____
ROOT
ATOM      1  N   UNL     1       7.976   5.510  20.392  0.00  0.00    +0.000 N 
ATOM      2  C   UNL     1       7.262   5.315  19.227  0.00  0.00    +0.000 A 
ATOM      3  N   UNL     1       7.752   5.891  18.115  0.00  0.00    +0.000 NA
ATOM      4  C   UNL     1       7.081   5.700  16.962  0.00  0.00    +0.000 A 
ATOM      5  C   UNL     1       5.915   4.943  16.923  0.00  0.00    +0.000 A 
ATOM      6  N   UNL     1       5.031   4.562  15.937  0.00  0.00    +0.000 NA
ATOM      7  C   UNL     1       4.106   3.857  16.558  0.00  0.00    +0.000 A 
ATOM      8  N   UNL     1       4.338   3.788  17.904  0.00  0.00    +0.000 N 
ATOM      9  C   UNL     1       5.514   4.446  18.149  0.00  0.00    +0.000 A 
ATOM     10  N   UNL     1       6.132   4.601  19.331  0.00  0.00    +0.000 NA
ATOM     11  H   UNL     1       8.539   6.346  20.327  0.00  0.00    +0.000 HD
ATOM     12  H   UNL     1       7.372   5.415  21.195  0.00  0.00    +0.000 HD
ENDROOT
BRANCH   8  13
ATOM     13  C   UNL     1       3.508   3.218  18.944  0.00  0.00    +0.000 C 
ATOM     14  C   UNL     1       4.171   2.215  19.843  0.00  0.00    +0.000 C 
ATOM     15  C   UNL     1       3.697   2.306  21.092  0.00  0.00    +0.000 C 
ATOM     16  C   UNL     1       2.664   3.398  21.213  0.00  0.00    +0.000 C 
ATOM     17  C   UNL     1       2.971   4.237  19.960  0.00  0.00    +0.000 C 
BRANCH  16  18
ATOM     18  C   UNL     1       1.230   2.856  21.197  0.00  0.00    +0.000 C 
BRANCH  18  19
ATOM     19  O   UNL     1       0.420   3.572  20.273  0.00  0.00    +0.000 OA
ATOM     20  H   UNL     1      -0.469   3.638  20.663  0.00  0.00    +0.000 HD
ENDBRANCH  18  19
ENDBRANCH  16  18
ENDBRANCH   8  13
BRANCH   4  21
ATOM     21  O   UNL     1       7.633   6.310  15.870  0.00  0.00    +0.000 OA
ATOM     22  H   UNL     1       6.898   6.881  15.591  0.00  0.00    +0.000 HD
ENDBRANCH   4  21
TORSDOF 4
ENDMDL
MODEL 9
REMARK VINA RESULT:      -6.9      2.252      6.008
REMARK  Name = 
REMARK  4 active torsions:
REMARK  status: ('A' for Active; 'I' for Inactive)
REMARK    1  A    between atoms: C_4  and  O_5
REMARK    2  A    between atoms: N_9  and  C_10
REMARK    3  A    between atoms: C_13  and  C_14
REMARK    4  A    between atoms: C_14  and  O_15
REMARK                            x       y       z     vdW  Elec       q    Type
REMARK                         _______ _______ _______ _____ _____    ______ ____
ROOT
ATOM      1  N   UNL     1       3.835   0.735  18.536  0.00  0.00    +0.000 N 
ATOM      2  C   UNL     1       3.331   2.017  18.634  0.00  0.00    +0.000 A 
ATOM      3  N   UNL     1       2.208   2.171  19.357  0.00  0.00    +0.000 NA
ATOM      4  C   UNL     1       1.707   3.416  19.482  0.00  0.00    +0.000 A 
ATOM      5  C   UNL     1       2.323   4.504  18.874  0.00  0.00    +0.000 A 
ATOM      6  N   UNL     1       2.078   5.860  18.819  0.00  0.00    +0.000 NA
ATOM      7  C   UNL     1       3.030   6.350  18.050  0.00  0.00    +0.000 A 
ATOM      8  N   UNL     1       3.863   5.370  17.584  0.00  0.00    +0.000 N 
ATOM      9  C   UNL     1       3.447   4.187  18.133  0.00  0.00    +0.000 A 
ATOM     10  N   UNL     1       3.995   2.972  17.966  0.00  0.00    +0.000 NA
ATOM     11  H   UNL     1       3.106   0.055  18.695  0.00  0.00    +0.000 HD
ATOM     12  H   UNL     1       4.390   0.639  17.698  0.00  0.00    +0.000 HD
ENDROOT
BRANCH   8  13
ATOM     13  C   UNL     1       4.946   5.473  16.630  0.00  0.00    +0.000 C 
ATOM     14  C   UNL     1       6.250   5.989  17.163  0.00  0.00    +0.000 C 
ATOM     15  C   UNL     1       7.285   5.395  16.555  0.00  0.00    +0.000 C 
ATOM     16  C   UNL     1       6.820   4.380  15.541  0.00  0.00    +0.000 C 
ATOM     17  C   UNL     1       5.374   4.136  16.006  0.00  0.00    +0.000 C 
BRANCH  16  18
ATOM     18  C   UNL     1       6.873   4.916  14.105  0.00  0.00    +0.000 C 
BRANCH  18  19
ATOM     19  O   UNL     1       8.063   5.663  13.880  0.00  0.00    +0.000 OA
ATOM     20  H   UNL     1       8.810   5.097  14.144  0.00  0.00    +0.000 HD
ENDBRANCH  18  19
ENDBRANCH  16  18
ENDBRANCH   8  13
BRANCH   4  21
ATOM     21  O   UNL     1       0.567   3.503  20.230  0.00  0.00    +0.000 OA
ATOM     22  H   UNL     1       0.508   2.597  20.577  0.00  0.00    +0.000 HD
ENDBRANCH   4  21
TORSDOF 4
ENDMDL
