MODEL 1
REMARK VINA RESULT:      -8.2      0.000      0.000
REMARK  Name = 
REMARK  7 active torsions:
REMARK  status: ('A' for Active; 'I' for Inactive)
REMARK    1  A    between atoms: C_1  and  O_2
REMARK    2  A    between atoms: O_2  and  C_3
REMARK    3  A    between atoms: C_3  and  C_4
REMARK    4  A    between atoms: C_11  and  N_12
REMARK    5  A    between atoms: C_13  and  C_14
REMARK    6  A    between atoms: C_17  and  C_18
REMARK    7  A    between atoms: C_21  and  C_22
REMARK                            x       y       z     vdW  Elec       q    Type
REMARK                         _______ _______ _______ _____ _____    ______ ____
ROOT
ATOM      1  C   UNL     1       5.771   6.263  16.561  0.00  0.00    +0.000 C 
ATOM      2  C   UNL     1       5.853   5.372  15.312  0.00  0.00    +0.000 C 
ATOM      3  C   UNL     1       6.252   4.014  15.866  0.00  0.00    +0.000 C 
ATOM      4  C   UNL     1       5.507   3.938  17.195  0.00  0.00    +0.000 C 
ATOM      5  N   UNL     1       5.318   5.330  17.613  0.00  0.00    +0.000 N 
ATOM      6  C   UNL     1       4.245   5.662  18.426  0.00  0.00    +0.000 A 
ATOM      7  C   UNL     1       3.836   4.795  19.427  0.00  0.00    +0.000 A 
ATOM      8  C   UNL     1       2.735   5.137  20.191  0.00  0.00    +0.000 A 
ATOM      9  N   UNL     1       2.084   6.281  20.018  0.00  0.00    +0.000 NA
ATOM     10  C   UNL     1       2.577   7.101  19.070  0.00  0.00    +0.000 A 
ATOM     11  N   UNL     1       3.626   6.839  18.271  0.00  0.00    +0.000 NA
ENDROOT
BRANCH  10  12
ATOM     12  C   UNL     1       1.936   8.406  18.975  0.00  0.00    +0.000 A 
ATOM     13  C   UNL     1       1.847   9.346  17.967  0.00  0.00    +0.000 A 
ATOM     14  C   UNL     1       1.036  10.399  18.459  0.00  0.00    +0.000 A 
ATOM     15  C   UNL     1       0.691  10.048  19.744  0.00  0.00    +0.000 A 
ATOM     16  C   UNL     1      -0.131  10.689  20.790  0.00  0.00    +0.000 C 
ATOM     17  O   UNL     1       1.237   8.843  20.068  0.00  0.00    +0.000 OA
ENDBRANCH  10  12
BRANCH   8  18
ATOM     18  N   UNL     1       2.340   4.214  21.162  0.00  0.00    +0.000 N 
ATOM     19  C   UNL     1       1.502   3.147  21.109  0.00  0.00    +0.000 C 
ATOM     20  C   UNL     1       0.765   2.739  19.864  0.00  0.00    +0.000 C 
ATOM     21  O   UNL     1       1.381   2.476  22.141  0.00  0.00    +0.000 OA
ATOM     22  H   UNL     1       2.748   4.310  22.082  0.00  0.00    +0.000 HD
ENDBRANCH   8  18
BRANCH   1  23
ATOM     23  C   UNL     1       7.137   6.841  16.981  0.00  0.00    +0.000 C 
BRANCH  23  25
ATOM     24  C   UNL     1       8.159   8.722  17.955  0.00  0.00    +0.000 C 
ATOM     25  O   UNL     1       7.073   8.258  17.160  0.00  0.00    +0.000 OA
ENDBRANCH  23  25
ENDBRANCH   1  23
TORSDOF 4
ENDMDL
MODEL 2
REMARK VINA RESULT:      -8.0      3.219      7.395
REMARK  Name = 
REMARK  7 active torsions:
REMARK  status: ('A' for Active; 'I' for Inactive)
REMARK    1  A    between atoms: C_1  and  O_2
REMARK    2  A    between atoms: O_2  and  C_3
REMARK    3  A    between atoms: C_3  and  C_4
REMARK    4  A    between atoms: C_11  and  N_12
REMARK    5  A    between atoms: C_13  and  C_14
REMARK    6  A    between atoms: C_17  and  C_18
REMARK    7  A    between atoms: C_21  and  C_22
REMARK                            x       y       z     vdW  Elec       q    Type
REMARK                         _______ _______ _______ _____ _____    ______ ____
ROOT
ATOM      1  C   UNL     1       2.818   3.230  17.875  0.00  0.00    +0.000 C 
ATOM      2  C   UNL     1       1.389   3.637  18.268  0.00  0.00    +0.000 C 
ATOM      3  C   UNL     1       1.595   4.572  19.449  0.00  0.00    +0.000 C 
ATOM      4  C   UNL     1       2.869   5.328  19.088  0.00  0.00    +0.000 C 
ATOM      5  N   UNL     1       3.614   4.431  18.200  0.00  0.00    +0.000 N 
ATOM      6  C   UNL     1       4.488   4.963  17.265  0.00  0.00    +0.000 A 
ATOM      7  C   UNL     1       5.250   6.077  17.580  0.00  0.00    +0.000 A 
ATOM      8  C   UNL     1       6.080   6.608  16.610  0.00  0.00    +0.000 A 
ATOM      9  N   UNL     1       6.194   6.064  15.403  0.00  0.00    +0.000 NA
ATOM     10  C   UNL     1       5.471   4.948  15.191  0.00  0.00    +0.000 A 
ATOM     11  N   UNL     1       4.627   4.378  16.069  0.00  0.00    +0.000 NA
ENDROOT
BRANCH  10  12
ATOM     12  C   UNL     1       5.699   4.288  13.913  0.00  0.00    +0.000 A 
ATOM     13  C   UNL     1       6.834   3.828  13.273  0.00  0.00    +0.000 A 
ATOM     14  C   UNL     1       6.406   3.223  12.065  0.00  0.00    +0.000 A 
ATOM     15  C   UNL     1       5.038   3.364  12.028  0.00  0.00    +0.000 A 
ATOM     16  C   UNL     1       3.997   2.955  11.066  0.00  0.00    +0.000 C 
ATOM     17  O   UNL     1       4.600   4.014  13.142  0.00  0.00    +0.000 OA
ENDBRANCH  10  12
BRANCH   8  18
ATOM     18  N   UNL     1       6.800   7.751  16.963  0.00  0.00    +0.000 N 
ATOM     19  C   UNL     1       7.769   7.960  17.890  0.00  0.00    +0.000 C 
ATOM     20  C   UNL     1       8.281   6.882  18.804  0.00  0.00    +0.000 C 
ATOM     21  O   UNL     1       8.262   9.094  17.943  0.00  0.00    +0.000 OA
ATOM     22  H   UNL     1       6.610   8.596  16.440  0.00  0.00    +0.000 HD
ENDBRANCH   8  18
BRANCH   1  23
ATOM     23  C   UNL     1       3.359   2.051  18.707  0.00  0.00    +0.000 C 
BRANCH  23  25
ATOM     24  C   UNL     1       4.686   1.497  20.568  0.00  0.00    +0.000 C 
ATOM     25  O   UNL     1       4.448   2.453  19.541  0.00  0.00    +0.000 OA
ENDBRANCH  23  25
ENDBRANCH   1  23
TORSDOF 4
ENDMDL
MODEL 3
REMARK VINA RESULT:      -7.4      3.142      7.588
REMARK  Name = 
REMARK  7 active torsions:
REMARK  status: ('A' for Active; 'I' for Inactive)
REMARK    1  A    between atoms: C_1  and  O_2
REMARK    2  A    between atoms: O_2  and  C_3
REMARK    3  A    between atoms: C_3  and  C_4
REMARK    4  A    between atoms: C_11  and  N_12
REMARK    5  A    between atoms: C_13  and  C_14
REMARK    6  A    between atoms: C_17  and  C_18
REMARK    7  A    between atoms: C_21  and  C_22
REMARK                            x       y       z     vdW  Elec       q    Type
REMARK                         _______ _______ _______ _____ _____    ______ ____
ROOT
ATOM      1  C   UNL     1       2.954   3.853  17.473  0.00  0.00    +0.000 C 
ATOM      2  C   UNL     1       1.633   4.572  17.786  0.00  0.00    +0.000 C 
ATOM      3  C   UNL     1       1.855   5.138  19.180  0.00  0.00    +0.000 C 
ATOM      4  C   UNL     1       3.325   5.543  19.170  0.00  0.00    +0.000 C 
ATOM      5  N   UNL     1       3.961   4.672  18.178  0.00  0.00    +0.000 N 
ATOM      6  C   UNL     1       5.098   5.105  17.515  0.00  0.00    +0.000 A 
ATOM      7  C   UNL     1       6.052   5.855  18.184  0.00  0.00    +0.000 A 
ATOM      8  C   UNL     1       7.153   6.308  17.481  0.00  0.00    +0.000 A 
ATOM      9  N   UNL     1       7.339   6.018  16.198  0.00  0.00    +0.000 NA
ATOM     10  C   UNL     1       6.404   5.232  15.631  0.00  0.00    +0.000 A 
ATOM     11  N   UNL     1       5.296   4.767  16.235  0.00  0.00    +0.000 NA
ENDROOT
BRANCH  10  12
ATOM     12  C   UNL     1       6.682   4.815  14.263  0.00  0.00    +0.000 A 
ATOM     13  C   UNL     1       7.653   5.166  13.345  0.00  0.00    +0.000 A 
ATOM     14  C   UNL     1       7.432   4.371  12.192  0.00  0.00    +0.000 A 
ATOM     15  C   UNL     1       6.330   3.595  12.467  0.00  0.00    +0.000 A 
ATOM     16  C   UNL     1       5.594   2.565  11.708  0.00  0.00    +0.000 C 
ATOM     17  O   UNL     1       5.864   3.861  13.719  0.00  0.00    +0.000 OA
ENDBRANCH  10  12
BRANCH   8  18
ATOM     18  N   UNL     1       8.067   7.089  18.190  0.00  0.00    +0.000 N 
ATOM     19  C   UNL     1       8.260   8.432  18.244  0.00  0.00    +0.000 C 
ATOM     20  C   UNL     1       7.442   9.414  17.453  0.00  0.00    +0.000 C 
ATOM     21  O   UNL     1       9.137   8.844  19.014  0.00  0.00    +0.000 OA
ATOM     22  H   UNL     1       8.707   6.606  18.807  0.00  0.00    +0.000 HD
ENDBRANCH   8  18
BRANCH   1  23
ATOM     23  C   UNL     1       3.011   2.421  18.040  0.00  0.00    +0.000 C 
BRANCH  23  25
ATOM     24  C   UNL     1       1.844   1.852  20.000  0.00  0.00    +0.000 C 
ATOM     25  O   UNL     1       1.753   2.025  18.591  0.00  0.00    +0.000 OA
ENDBRANCH  23  25
ENDBRANCH   1  23
TORSDOF 4
ENDMDL
MODEL 4
REMARK VINA RESULT:      -7.4      0.706      1.139
REMARK  Name = 
REMARK  7 active torsions:
REMARK  status: ('A' for Active; 'I' for Inactive)
REMARK    1  A    between atoms: C_1  and  O_2
REMARK    2  A    between atoms: O_2  and  C_3
REMARK    3  A    between atoms: C_3  and  C_4
REMARK    4  A    between atoms: C_11  and  N_12
REMARK    5  A    between atoms: C_13  and  C_14
REMARK    6  A    between atoms: C_17  and  C_18
REMARK    7  A    between atoms: C_21  and  C_22
REMARK                            x       y       z     vdW  Elec       q    Type
REMARK                         _______ _______ _______ _____ _____    ______ ____
ROOT
ATOM      1  C   UNL     1       5.498   6.343  16.480  0.00  0.00    +0.000 C 
ATOM      2  C   UNL     1       5.475   5.502  15.194  0.00  0.00    +0.000 C 
ATOM      3  C   UNL     1       5.837   4.106  15.673  0.00  0.00    +0.000 C 
ATOM      4  C   UNL     1       5.158   4.009  17.035  0.00  0.00    +0.000 C 
ATOM      5  N   UNL     1       5.056   5.390  17.517  0.00  0.00    +0.000 N 
ATOM      6  C   UNL     1       4.043   5.735  18.397  0.00  0.00    +0.000 A 
ATOM      7  C   UNL     1       3.644   4.847  19.383  0.00  0.00    +0.000 A 
ATOM      8  C   UNL     1       2.601   5.207  20.217  0.00  0.00    +0.000 A 
ATOM      9  N   UNL     1       1.996   6.386  20.123  0.00  0.00    +0.000 NA
ATOM     10  C   UNL     1       2.479   7.221  19.183  0.00  0.00    +0.000 A 
ATOM     11  N   UNL     1       3.473   6.944  18.321  0.00  0.00    +0.000 NA
ENDROOT
BRANCH  10  12
ATOM     12  C   UNL     1       1.896   8.556  19.173  0.00  0.00    +0.000 A 
ATOM     13  C   UNL     1       0.843   9.134  19.855  0.00  0.00    +0.000 A 
ATOM     14  C   UNL     1       0.794  10.493  19.454  0.00  0.00    +0.000 A 
ATOM     15  C   UNL     1       1.807  10.661  18.539  0.00  0.00    +0.000 A 
ATOM     16  C   UNL     1       2.296  11.814  17.760  0.00  0.00    +0.000 C 
ATOM     17  O   UNL     1       2.478   9.489  18.358  0.00  0.00    +0.000 OA
ENDBRANCH  10  12
BRANCH   8  18
ATOM     18  N   UNL     1       2.212   4.264  21.171  0.00  0.00    +0.000 N 
ATOM     19  C   UNL     1       1.431   3.157  21.084  0.00  0.00    +0.000 C 
ATOM     20  C   UNL     1       0.768   2.715  19.809  0.00  0.00    +0.000 C 
ATOM     21  O   UNL     1       1.302   2.477  22.110  0.00  0.00    +0.000 OA
ATOM     22  H   UNL     1       2.577   4.377  22.108  0.00  0.00    +0.000 HD
ENDBRANCH   8  18
BRANCH   1  23
ATOM     23  C   UNL     1       6.909   6.841  16.849  0.00  0.00    +0.000 C 
BRANCH  23  25
ATOM     24  C   UNL     1       8.108   8.588  17.869  0.00  0.00    +0.000 C 
ATOM     25  O   UNL     1       6.898   8.223  17.216  0.00  0.00    +0.000 OA
ENDBRANCH  23  25
ENDBRANCH   1  23
TORSDOF 4
ENDMDL
MODEL 5
REMARK VINA RESULT:      -7.2      1.858      5.123
REMARK  Name = 
REMARK  7 active torsions:
REMARK  status: ('A' for Active; 'I' for Inactive)
REMARK    1  A    between atoms: C_1  and  O_2
REMARK    2  A    between atoms: O_2  and  C_3
REMARK    3  A    between atoms: C_3  and  C_4
REMARK    4  A    between atoms: C_11  and  N_12
REMARK    5  A    between atoms: C_13  and  C_14
REMARK    6  A    between atoms: C_17  and  C_18
REMARK    7  A    between atoms: C_21  and  C_22
REMARK                            x       y       z     vdW  Elec       q    Type
REMARK                         _______ _______ _______ _____ _____    ______ ____
ROOT
ATOM      1  C   UNL     1       6.593   5.532  17.491  0.00  0.00    +0.000 C 
ATOM      2  C   UNL     1       7.834   6.042  18.240  0.00  0.00    +0.000 C 
ATOM      3  C   UNL     1       8.001   7.464  17.731  0.00  0.00    +0.000 C 
ATOM      4  C   UNL     1       6.567   7.955  17.566  0.00  0.00    +0.000 C 
ATOM      5  N   UNL     1       5.768   6.747  17.338  0.00  0.00    +0.000 N 
ATOM      6  C   UNL     1       4.429   6.733  17.697  0.00  0.00    +0.000 A 
ATOM      7  C   UNL     1       3.652   7.867  17.531  0.00  0.00    +0.000 A 
ATOM      8  C   UNL     1       2.331   7.831  17.941  0.00  0.00    +0.000 A 
ATOM      9  N   UNL     1       1.781   6.737  18.454  0.00  0.00    +0.000 NA
ATOM     10  C   UNL     1       2.580   5.655  18.526  0.00  0.00    +0.000 A 
ATOM     11  N   UNL     1       3.876   5.609  18.170  0.00  0.00    +0.000 NA
ENDROOT
BRANCH  10  12
ATOM     12  C   UNL     1       1.933   4.427  18.969  0.00  0.00    +0.000 A 
ATOM     13  C   UNL     1       1.243   3.429  18.309  0.00  0.00    +0.000 A 
ATOM     14  C   UNL     1       0.898   2.458  19.283  0.00  0.00    +0.000 A 
ATOM     15  C   UNL     1       1.381   2.929  20.482  0.00  0.00    +0.000 A 
ATOM     16  C   UNL     1       1.366   2.406  21.862  0.00  0.00    +0.000 C 
ATOM     17  O   UNL     1       2.006   4.125  20.303  0.00  0.00    +0.000 OA
ENDBRANCH  10  12
BRANCH   8  18
ATOM     18  N   UNL     1       1.599   9.010  17.787  0.00  0.00    +0.000 N 
ATOM     19  C   UNL     1       0.950   9.797  18.683  0.00  0.00    +0.000 C 
ATOM     20  C   UNL     1       0.892   9.495  20.154  0.00  0.00    +0.000 C 
ATOM     21  O   UNL     1       0.417  10.825  18.247  0.00  0.00    +0.000 OA
ATOM     22  H   UNL     1       1.535   9.395  16.853  0.00  0.00    +0.000 HD
ENDBRANCH   8  18
BRANCH   1  23
ATOM     23  C   UNL     1       6.918   4.986  16.087  0.00  0.00    +0.000 C 
BRANCH  23  25
ATOM     24  C   UNL     1       6.050   4.035  14.120  0.00  0.00    +0.000 C 
ATOM     25  O   UNL     1       5.746   4.501  15.429  0.00  0.00    +0.000 OA
ENDBRANCH  23  25
ENDBRANCH   1  23
TORSDOF 4
ENDMDL
MODEL 6
REMARK VINA RESULT:      -7.2      1.863      6.064
REMARK  Name = 
REMARK  7 active torsions:
REMARK  status: ('A' for Active; 'I' for Inactive)
REMARK    1  A    between atoms: C_1  and  O_2
REMARK    2  A    between atoms: O_2  and  C_3
REMARK    3  A    between atoms: C_3  and  C_4
REMARK    4  A    between atoms: C_11  and  N_12
REMARK    5  A    between atoms: C_13  and  C_14
REMARK    6  A    between atoms: C_17  and  C_18
REMARK    7  A    between atoms: C_21  and  C_22
REMARK                            x       y       z     vdW  Elec       q    Type
REMARK                         _______ _______ _______ _____ _____    ______ ____
ROOT
ATOM      1  C   UNL     1       1.081   9.968  19.264  0.00  0.00    +0.000 C 
ATOM      2  C   UNL     1       1.326  11.136  20.233  0.00  0.00    +0.000 C 
ATOM      3  C   UNL     1       0.528  10.749  21.468  0.00  0.00    +0.000 C 
ATOM      4  C   UNL     1       0.696   9.235  21.542  0.00  0.00    +0.000 C 
ATOM      5  N   UNL     1       0.944   8.805  20.163  0.00  0.00    +0.000 N 
ATOM      6  C   UNL     1       1.673   7.650  19.926  0.00  0.00    +0.000 A 
ATOM      7  C   UNL     1       1.527   6.552  20.759  0.00  0.00    +0.000 A 
ATOM      8  C   UNL     1       2.301   5.431  20.520  0.00  0.00    +0.000 A 
ATOM      9  N   UNL     1       3.151   5.364  19.501  0.00  0.00    +0.000 NA
ATOM     10  C   UNL     1       3.193   6.445  18.699  0.00  0.00    +0.000 A 
ATOM     11  N   UNL     1       2.492   7.579  18.870  0.00  0.00    +0.000 NA
ENDROOT
BRANCH  10  12
ATOM     12  C   UNL     1       4.031   6.313  17.515  0.00  0.00    +0.000 A 
ATOM     13  C   UNL     1       4.563   7.226  16.625  0.00  0.00    +0.000 A 
ATOM     14  C   UNL     1       5.347   6.489  15.702  0.00  0.00    +0.000 A 
ATOM     15  C   UNL     1       5.233   5.168  16.071  0.00  0.00    +0.000 A 
ATOM     16  C   UNL     1       5.796   3.911  15.542  0.00  0.00    +0.000 C 
ATOM     17  O   UNL     1       4.433   5.051  17.167  0.00  0.00    +0.000 OA
ENDBRANCH  10  12
BRANCH   8  18
ATOM     18  N   UNL     1       2.144   4.364  21.407  0.00  0.00    +0.000 N 
ATOM     19  C   UNL     1       1.561   3.146  21.264  0.00  0.00    +0.000 C 
ATOM     20  C   UNL     1       0.902   2.692  19.992  0.00  0.00    +0.000 C 
ATOM     21  O   UNL     1       1.617   2.379  22.233  0.00  0.00    +0.000 OA
ATOM     22  H   UNL     1       2.543   4.469  22.330  0.00  0.00    +0.000 HD
ENDBRANCH   8  18
BRANCH   1  23
ATOM     23  C   UNL     1      -0.225  10.116  18.460  0.00  0.00    +0.000 C 
BRANCH  23  25
ATOM     24  C   UNL     1      -1.985  11.670  18.589  0.00  0.00    +0.000 C 
ATOM     25  O   UNL     1      -0.601  11.488  18.316  0.00  0.00    +0.000 OA
ENDBRANCH  23  25
ENDBRANCH   1  23
TORSDOF 4
ENDMDL
MODEL 7
REMARK VINA RESULT:      -7.1      1.806      6.632
REMARK  Name = 
REMARK  7 active torsions:
REMARK  status: ('A' for Active; 'I' for Inactive)
REMARK    1  A    between atoms: C_1  and  O_2
REMARK    2  A    between atoms: O_2  and  C_3
REMARK    3  A    between atoms: C_3  and  C_4
REMARK    4  A    between atoms: C_11  and  N_12
REMARK    5  A    between atoms: C_13  and  C_14
REMARK    6  A    between atoms: C_17  and  C_18
REMARK    7  A    between atoms: C_21  and  C_22
REMARK                            x       y       z     vdW  Elec       q    Type
REMARK                         _______ _______ _______ _____ _____    ______ ____
ROOT
ATOM      1  C   UNL     1       0.743   9.048  19.631  0.00  0.00    +0.000 C 
ATOM      2  C   UNL     1      -0.145  10.025  18.846  0.00  0.00    +0.000 C 
ATOM      3  C   UNL     1       0.845  11.017  18.259  0.00  0.00    +0.000 C 
ATOM      4  C   UNL     1       2.056  10.155  17.921  0.00  0.00    +0.000 C 
ATOM      5  N   UNL     1       1.991   9.017  18.843  0.00  0.00    +0.000 N 
ATOM      6  C   UNL     1       2.557   7.806  18.477  0.00  0.00    +0.000 A 
ATOM      7  C   UNL     1       3.740   7.779  17.756  0.00  0.00    +0.000 A 
ATOM      8  C   UNL     1       4.254   6.554  17.370  0.00  0.00    +0.000 A 
ATOM      9  N   UNL     1       3.668   5.408  17.698  0.00  0.00    +0.000 NA
ATOM     10  C   UNL     1       2.557   5.511  18.452  0.00  0.00    +0.000 A 
ATOM     11  N   UNL     1       1.981   6.657  18.853  0.00  0.00    +0.000 NA
ENDROOT
BRANCH  10  12
ATOM     12  C   UNL     1       1.995   4.248  18.913  0.00  0.00    +0.000 A 
ATOM     13  C   UNL     1       1.445   3.162  18.260  0.00  0.00    +0.000 A 
ATOM     14  C   UNL     1       1.122   2.206  19.255  0.00  0.00    +0.000 A 
ATOM     15  C   UNL     1       1.477   2.771  20.459  0.00  0.00    +0.000 A 
ATOM     16  C   UNL     1       1.414   2.309  21.859  0.00  0.00    +0.000 C 
ATOM     17  O   UNL     1       2.002   4.012  20.262  0.00  0.00    +0.000 OA
ENDBRANCH  10  12
BRANCH   8  18
ATOM     18  N   UNL     1       5.428   6.581  16.615  0.00  0.00    +0.000 N 
ATOM     19  C   UNL     1       6.708   6.246  16.919  0.00  0.00    +0.000 C 
ATOM     20  C   UNL     1       7.129   5.746  18.272  0.00  0.00    +0.000 C 
ATOM     21  O   UNL     1       7.544   6.335  16.011  0.00  0.00    +0.000 OA
ATOM     22  H   UNL     1       5.350   6.878  15.651  0.00  0.00    +0.000 HD
ENDBRANCH   8  18
BRANCH   1  23
ATOM     23  C   UNL     1       1.078   9.545  21.051  0.00  0.00    +0.000 C 
BRANCH  23  25
ATOM     24  C   UNL     1      -0.377   9.647  22.895  0.00  0.00    +0.000 C 
ATOM     25  O   UNL     1       0.382   8.792  22.047  0.00  0.00    +0.000 OA
ENDBRANCH  23  25
ENDBRANCH   1  23
TORSDOF 4
ENDMDL
MODEL 8
REMARK VINA RESULT:      -7.1      1.445      1.553
REMARK  Name = 
REMARK  7 active torsions:
REMARK  status: ('A' for Active; 'I' for Inactive)
REMARK    1  A    between atoms: C_1  and  O_2
REMARK    2  A    between atoms: O_2  and  C_3
REMARK    3  A    between atoms: C_3  and  C_4
REMARK    4  A    between atoms: C_11  and  N_12
REMARK    5  A    between atoms: C_13  and  C_14
REMARK    6  A    between atoms: C_17  and  C_18
REMARK    7  A    between atoms: C_21  and  C_22
REMARK                            x       y       z     vdW  Elec       q    Type
REMARK                         _______ _______ _______ _____ _____    ______ ____
ROOT
ATOM      1  C   UNL     1       6.619   6.386  17.214  0.00  0.00    +0.000 C 
ATOM      2  C   UNL     1       7.308   6.150  15.862  0.00  0.00    +0.000 C 
ATOM      3  C   UNL     1       7.360   4.635  15.745  0.00  0.00    +0.000 C 
ATOM      4  C   UNL     1       6.048   4.184  16.378  0.00  0.00    +0.000 C 
ATOM      5  N   UNL     1       5.689   5.244  17.324  0.00  0.00    +0.000 N 
ATOM      6  C   UNL     1       4.357   5.456  17.643  0.00  0.00    +0.000 A 
ATOM      7  C   UNL     1       3.491   4.382  17.767  0.00  0.00    +0.000 A 
ATOM      8  C   UNL     1       2.159   4.632  18.043  0.00  0.00    +0.000 A 
ATOM      9  N   UNL     1       1.695   5.863  18.225  0.00  0.00    +0.000 NA
ATOM     10  C   UNL     1       2.607   6.852  18.152  0.00  0.00    +0.000 A 
ATOM     11  N   UNL     1       3.912   6.699  17.869  0.00  0.00    +0.000 NA
ENDROOT
BRANCH  10  12
ATOM     12  C   UNL     1       2.115   8.183  18.479  0.00  0.00    +0.000 A 
ATOM     13  C   UNL     1       2.036   9.365  17.767  0.00  0.00    +0.000 A 
ATOM     14  C   UNL     1       1.404  10.311  18.614  0.00  0.00    +0.000 A 
ATOM     15  C   UNL     1       1.151   9.657  19.798  0.00  0.00    +0.000 A 
ATOM     16  C   UNL     1       0.518  10.060  21.069  0.00  0.00    +0.000 C 
ATOM     17  O   UNL     1       1.583   8.367  19.727  0.00  0.00    +0.000 OA
ENDBRANCH  10  12
BRANCH   8  18
ATOM     18  N   UNL     1       1.319   3.519  18.122  0.00  0.00    +0.000 N 
ATOM     19  C   UNL     1       0.873   2.796  19.181  0.00  0.00    +0.000 C 
ATOM     20  C   UNL     1       1.258   3.093  20.603  0.00  0.00    +0.000 C 
ATOM     21  O   UNL     1       0.086   1.872  18.940  0.00  0.00    +0.000 OA
ATOM     22  H   UNL     1       0.932   3.170  17.255  0.00  0.00    +0.000 HD
ENDBRANCH   8  18
BRANCH   1  23
ATOM     23  C   UNL     1       7.595   6.332  18.406  0.00  0.00    +0.000 C 
BRANCH  23  25
ATOM     24  C   UNL     1       7.739   8.599  17.797  0.00  0.00    +0.000 C 
ATOM     25  O   UNL     1       8.358   7.537  18.513  0.00  0.00    +0.000 OA
ENDBRANCH  23  25
ENDBRANCH   1  23
TORSDOF 4
ENDMDL
MODEL 9
REMARK VINA RESULT:      -7.1      1.488      5.345
REMARK  Name = 
REMARK  7 active torsions:
REMARK  status: ('A' for Active; 'I' for Inactive)
REMARK    1  A    between atoms: C_1  and  O_2
REMARK    2  A    between atoms: O_2  and  C_3
REMARK    3  A    between atoms: C_3  and  C_4
REMARK    4  A    between atoms: C_11  and  N_12
REMARK    5  A    between atoms: C_13  and  C_14
REMARK    6  A    between atoms: C_17  and  C_18
REMARK    7  A    between atoms: C_21  and  C_22
REMARK                            x       y       z     vdW  Elec       q    Type
REMARK                         _______ _______ _______ _____ _____    ______ ____
ROOT
ATOM      1  C   UNL     1       1.614   4.030  20.636  0.00  0.00    +0.000 C 
ATOM      2  C   UNL     1       2.212   3.380  21.894  0.00  0.00    +0.000 C 
ATOM      3  C   UNL     1       3.205   2.373  21.338  0.00  0.00    +0.000 C 
ATOM      4  C   UNL     1       3.780   3.076  20.113  0.00  0.00    +0.000 C 
ATOM      5  N   UNL     1       2.737   4.010  19.678  0.00  0.00    +0.000 N 
ATOM      6  C   UNL     1       3.091   5.161  18.991  0.00  0.00    +0.000 A 
ATOM      7  C   UNL     1       4.131   5.134  18.076  0.00  0.00    +0.000 A 
ATOM      8  C   UNL     1       4.486   6.310  17.441  0.00  0.00    +0.000 A 
ATOM      9  N   UNL     1       3.841   7.451  17.657  0.00  0.00    +0.000 NA
ATOM     10  C   UNL     1       2.802   7.386  18.511  0.00  0.00    +0.000 A 
ATOM     11  N   UNL     1       2.403   6.293  19.184  0.00  0.00    +0.000 NA
ENDROOT
BRANCH  10  12
ATOM     12  C   UNL     1       2.023   8.611  18.642  0.00  0.00    +0.000 A 
ATOM     13  C   UNL     1       1.782   9.675  17.796  0.00  0.00    +0.000 A 
ATOM     14  C   UNL     1       0.892  10.545  18.475  0.00  0.00    +0.000 A 
ATOM     15  C   UNL     1       0.656   9.970  19.702  0.00  0.00    +0.000 A 
ATOM     16  C   UNL     1      -0.170  10.352  20.865  0.00  0.00    +0.000 C 
ATOM     17  O   UNL     1       1.342   8.799  19.816  0.00  0.00    +0.000 OA
ENDBRANCH  10  12
BRANCH   8  18
ATOM     18  N   UNL     1       5.563   6.239  16.556  0.00  0.00    +0.000 N 
ATOM     19  C   UNL     1       6.905   6.247  16.760  0.00  0.00    +0.000 C 
ATOM     20  C   UNL     1       7.531   6.357  18.122  0.00  0.00    +0.000 C 
ATOM     21  O   UNL     1       7.626   6.122  15.762  0.00  0.00    +0.000 OA
ATOM     22  H   UNL     1       5.346   6.140  15.572  0.00  0.00    +0.000 HD
ENDBRANCH   8  18
BRANCH   1  23
ATOM     23  C   UNL     1       0.448   3.221  20.035  0.00  0.00    +0.000 C 
BRANCH  23  25
ATOM     24  C   UNL     1       0.968   1.587  18.425  0.00  0.00    +0.000 C 
ATOM     25  O   UNL     1       0.654   2.958  18.645  0.00  0.00    +0.000 OA
ENDBRANCH  23  25
ENDBRANCH   1  23
TORSDOF 4
ENDMDL
