MODEL 1
REMARK VINA RESULT:      -8.6      0.000      0.000
REMARK  Name = 
REMARK  7 active torsions:
REMARK  status: ('A' for Active; 'I' for Inactive)
REMARK    1  A    between atoms: N_1  and  C_2
REMARK    2  A    between atoms: C_2  and  C_3
REMARK    3  A    between atoms: N_5  and  C_6
REMARK    4  A    between atoms: N_9  and  C_10
REMARK    5  A    between atoms: C_19  and  C_20
REMARK    6  A    between atoms: C_20  and  O_22
REMARK    7  A    between atoms: N_24  and  C_25
REMARK                            x       y       z     vdW  Elec       q    Type
REMARK                         _______ _______ _______ _____ _____    ______ ____
ROOT
ATOM      1  C   UNL     1       1.253   8.576  19.629  0.00  0.00    +0.000 A 
ATOM      2  N   UNL     1       1.651   7.351  20.049  0.00  0.00    +0.000 NA
ATOM      3  C   UNL     1       2.602   6.672  19.368  0.00  0.00    +0.000 A 
ATOM      4  C   UNL     1       3.200   7.221  18.235  0.00  0.00    +0.000 A 
ATOM      5  C   UNL     1       2.813   8.481  17.790  0.00  0.00    +0.000 A 
ATOM      6  C   UNL     1       1.827   9.155  18.494  0.00  0.00    +0.000 A 
ATOM      7  F   UNL     1       1.474  10.381  18.079  0.00  0.00    +0.000 F 
ATOM      8  C   UNL     1       4.227   6.451  17.513  0.00  0.00    +0.000 A 
ATOM      9  O   UNL     1       4.808   6.927  16.541  0.00  0.00    +0.000 OA
ATOM     10  C   UNL     1       4.538   5.079  17.973  0.00  0.00    +0.000 A 
ATOM     11  C   UNL     1       3.890   4.638  19.064  0.00  0.00    +0.000 A 
ATOM     12  N   UNL     1       2.987   5.375  19.802  0.00  0.00    +0.000 N 
ENDROOT
BRANCH   1  16
ATOM     13  C   UNL     1      -1.044  11.111  21.939  0.00  0.00    +0.000 C 
ATOM     14  C   UNL     1      -0.614  11.450  20.512  0.00  0.00    +0.000 C 
ATOM     15  C   UNL     1      -0.601  10.153  19.721  0.00  0.00    +0.000 C 
ATOM     16  N   UNL     1       0.275   9.186  20.381  0.00  0.00    +0.000 N 
ATOM     17  C   UNL     1       0.082   8.889  21.795  0.00  0.00    +0.000 C 
ATOM     18  C   UNL     1       0.006  10.199  22.583  0.00  0.00    +0.000 C 
BRANCH  13  21
ATOM     19  C   UNL     1      -2.260  13.945  23.750  0.00  0.00    +0.000 A 
ATOM     20  C   UNL     1      -2.551  12.725  23.177  0.00  0.00    +0.000 A 
ATOM     21  N   UNL     1      -1.352  12.290  22.715  0.00  0.00    +0.000 N 
ATOM     22  N   UNL     1      -0.364  13.146  23.026  0.00  0.00    +0.000 NA
ATOM     23  N   UNL     1      -0.911  14.173  23.659  0.00  0.00    +0.000 NA
BRANCH  19  24
ATOM     24  C   UNL     1      -3.169  14.942  24.362  0.00  0.00    +0.000 C 
BRANCH  24  25
ATOM     25  N   UNL     1      -3.134  14.800  25.817  0.00  0.00    +0.000 NA
ATOM     26  H   UNL     1      -2.927  13.831  26.045  0.00  0.00    +0.000 HD
ATOM     27  H   UNL     1      -4.071  14.986  26.175  0.00  0.00    +0.000 HD
ENDBRANCH  24  25
ENDBRANCH  19  24
ENDBRANCH  13  21
ENDBRANCH   1  16
BRANCH  12  28
ATOM     28  C   UNL     1       2.242   4.764  20.920  0.00  0.00    +0.000 C 
ATOM     29  C   UNL     1       1.140   3.747  20.781  0.00  0.00    +0.000 C 
ATOM     30  C   UNL     1       2.486   3.316  21.275  0.00  0.00    +0.000 C 
ENDBRANCH  12  28
BRANCH  10  31
ATOM     31  C   UNL     1       5.508   4.199  17.291  0.00  0.00    +0.000 C 
ATOM     32  O   UNL     1       5.300   3.696  16.197  0.00  0.00    +0.000 OA
BRANCH  31  33
ATOM     33  O   UNL     1       6.652   3.986  17.978  0.00  0.00    +0.000 OA
ATOM     34  H   UNL     1       6.983   3.055  17.947  0.00  0.00    +0.000 HD
ENDBRANCH  31  33
ENDBRANCH  10  31
TORSDOF 7
ENDMDL
MODEL 2
REMARK VINA RESULT:      -8.2      0.789      1.053
REMARK  Name = 
REMARK  7 active torsions:
REMARK  status: ('A' for Active; 'I' for Inactive)
REMARK    1  A    between atoms: N_1  and  C_2
REMARK    2  A    between atoms: C_2  and  C_3
REMARK    3  A    between atoms: N_5  and  C_6
REMARK    4  A    between atoms: N_9  and  C_10
REMARK    5  A    between atoms: C_19  and  C_20
REMARK    6  A    between atoms: C_20  and  O_22
REMARK    7  A    between atoms: N_24  and  C_25
REMARK                            x       y       z     vdW  Elec       q    Type
REMARK                         _______ _______ _______ _____ _____    ______ ____
ROOT
ATOM      1  C   UNL     1       1.254   8.583  19.601  0.00  0.00    +0.000 A 
ATOM      2  N   UNL     1       1.658   7.363  20.029  0.00  0.00    +0.000 NA
ATOM      3  C   UNL     1       2.616   6.686  19.358  0.00  0.00    +0.000 A 
ATOM      4  C   UNL     1       3.217   7.233  18.225  0.00  0.00    +0.000 A 
ATOM      5  C   UNL     1       2.825   8.487  17.770  0.00  0.00    +0.000 A 
ATOM      6  C   UNL     1       1.831   9.159  18.465  0.00  0.00    +0.000 A 
ATOM      7  F   UNL     1       1.473  10.381  18.041  0.00  0.00    +0.000 F 
ATOM      8  C   UNL     1       4.253   6.464  17.513  0.00  0.00    +0.000 A 
ATOM      9  O   UNL     1       4.836   6.939  16.541  0.00  0.00    +0.000 OA
ATOM     10  C   UNL     1       4.570   5.098  17.983  0.00  0.00    +0.000 A 
ATOM     11  C   UNL     1       3.919   4.659  19.072  0.00  0.00    +0.000 A 
ATOM     12  N   UNL     1       3.007   5.394  19.801  0.00  0.00    +0.000 N 
ENDROOT
BRANCH   1  16
ATOM     13  C   UNL     1      -1.084  11.131  21.854  0.00  0.00    +0.000 C 
ATOM     14  C   UNL     1      -0.678  11.435  20.412  0.00  0.00    +0.000 C 
ATOM     15  C   UNL     1      -0.639  10.114  19.662  0.00  0.00    +0.000 C 
ATOM     16  N   UNL     1       0.268   9.192  20.343  0.00  0.00    +0.000 N 
ATOM     17  C   UNL     1       0.097   8.934  21.768  0.00  0.00    +0.000 C 
ATOM     18  C   UNL     1      -0.005  10.267  22.515  0.00  0.00    +0.000 C 
BRANCH  13  21
ATOM     19  C   UNL     1      -1.443  14.201  23.652  0.00  0.00    +0.000 A 
ATOM     20  C   UNL     1      -0.684  13.454  22.776  0.00  0.00    +0.000 A 
ATOM     21  N   UNL     1      -1.415  12.325  22.596  0.00  0.00    +0.000 N 
ATOM     22  N   UNL     1      -2.579  12.379  23.265  0.00  0.00    +0.000 NA
ATOM     23  N   UNL     1      -2.606  13.528  23.925  0.00  0.00    +0.000 NA
BRANCH  19  24
ATOM     24  C   UNL     1      -1.144  15.506  24.286  0.00  0.00    +0.000 C 
BRANCH  24  25
ATOM     25  N   UNL     1       0.204  15.929  23.912  0.00  0.00    +0.000 NA
ATOM     26  H   UNL     1       0.857  15.186  24.148  0.00  0.00    +0.000 HD
ATOM     27  H   UNL     1       0.457  16.729  24.491  0.00  0.00    +0.000 HD
ENDBRANCH  24  25
ENDBRANCH  19  24
ENDBRANCH  13  21
ENDBRANCH   1  16
BRANCH  12  28
ATOM     28  C   UNL     1       2.260   4.785  20.919  0.00  0.00    +0.000 C 
ATOM     29  C   UNL     1       1.129   3.800  20.778  0.00  0.00    +0.000 C 
ATOM     30  C   UNL     1       2.469   3.326  21.248  0.00  0.00    +0.000 C 
ENDBRANCH  12  28
BRANCH  10  31
ATOM     31  C   UNL     1       5.549   4.219  17.312  0.00  0.00    +0.000 C 
ATOM     32  O   UNL     1       5.350   3.707  16.220  0.00  0.00    +0.000 OA
BRANCH  31  33
ATOM     33  O   UNL     1       6.692   4.019  18.005  0.00  0.00    +0.000 OA
ATOM     34  H   UNL     1       6.560   3.785  18.956  0.00  0.00    +0.000 HD
ENDBRANCH  31  33
ENDBRANCH  10  31
TORSDOF 7
ENDMDL
MODEL 3
REMARK VINA RESULT:      -8.1      3.562      4.808
REMARK  Name = 
REMARK  7 active torsions:
REMARK  status: ('A' for Active; 'I' for Inactive)
REMARK    1  A    between atoms: N_1  and  C_2
REMARK    2  A    between atoms: C_2  and  C_3
REMARK    3  A    between atoms: N_5  and  C_6
REMARK    4  A    between atoms: N_9  and  C_10
REMARK    5  A    between atoms: C_19  and  C_20
REMARK    6  A    between atoms: C_20  and  O_22
REMARK    7  A    between atoms: N_24  and  C_25
REMARK                            x       y       z     vdW  Elec       q    Type
REMARK                         _______ _______ _______ _____ _____    ______ ____
ROOT
ATOM      1  C   UNL     1       1.568   8.100  19.668  0.00  0.00    +0.000 A 
ATOM      2  N   UNL     1       2.472   7.510  18.850  0.00  0.00    +0.000 NA
ATOM      3  C   UNL     1       2.873   6.239  19.079  0.00  0.00    +0.000 A 
ATOM      4  C   UNL     1       2.357   5.507  20.148  0.00  0.00    +0.000 A 
ATOM      5  C   UNL     1       1.423   6.089  20.997  0.00  0.00    +0.000 A 
ATOM      6  C   UNL     1       1.034   7.398  20.753  0.00  0.00    +0.000 A 
ATOM      7  F   UNL     1       0.112   7.949  21.558  0.00  0.00    +0.000 F 
ATOM      8  C   UNL     1       2.822   4.128  20.371  0.00  0.00    +0.000 A 
ATOM      9  O   UNL     1       2.351   3.441  21.275  0.00  0.00    +0.000 OA
ATOM     10  C   UNL     1       3.884   3.587  19.495  0.00  0.00    +0.000 A 
ATOM     11  C   UNL     1       4.326   4.381  18.507  0.00  0.00    +0.000 A 
ATOM     12  N   UNL     1       3.845   5.644  18.229  0.00  0.00    +0.000 N 
ENDROOT
BRANCH   1  16
ATOM     13  C   UNL     1       1.475  12.148  18.868  0.00  0.00    +0.000 C 
ATOM     14  C   UNL     1       2.225  11.146  17.991  0.00  0.00    +0.000 C 
ATOM     15  C   UNL     1       1.423   9.855  17.987  0.00  0.00    +0.000 C 
ATOM     16  N   UNL     1       1.227   9.397  19.361  0.00  0.00    +0.000 N 
ATOM     17  C   UNL     1       0.670  10.310  20.353  0.00  0.00    +0.000 C 
ATOM     18  C   UNL     1       1.439  11.633  20.311  0.00  0.00    +0.000 C 
BRANCH  13  21
ATOM     19  C   UNL     1       2.305  15.612  18.554  0.00  0.00    +0.000 A 
ATOM     20  C   UNL     1       1.361  14.676  18.919  0.00  0.00    +0.000 A 
ATOM     21  N   UNL     1       1.993  13.489  18.738  0.00  0.00    +0.000 N 
ATOM     22  N   UNL     1       3.266  13.665  18.342  0.00  0.00    +0.000 NA
ATOM     23  N   UNL     1       3.469  14.968  18.219  0.00  0.00    +0.000 NA
BRANCH  19  24
ATOM     24  C   UNL     1       2.190  17.086  18.466  0.00  0.00    +0.000 C 
BRANCH  24  25
ATOM     25  N   UNL     1       2.590  17.525  17.131  0.00  0.00    +0.000 NA
ATOM     26  H   UNL     1       1.817  17.367  16.490  0.00  0.00    +0.000 HD
ATOM     27  H   UNL     1       3.353  16.926  16.815  0.00  0.00    +0.000 HD
ENDBRANCH  24  25
ENDBRANCH  19  24
ENDBRANCH  13  21
ENDBRANCH   1  16
BRANCH  12  28
ATOM     28  C   UNL     1       4.472   6.485  17.192  0.00  0.00    +0.000 C 
ATOM     29  C   UNL     1       5.955   6.653  16.984  0.00  0.00    +0.000 C 
ATOM     30  C   UNL     1       5.161   5.831  16.017  0.00  0.00    +0.000 C 
ENDBRANCH  12  28
BRANCH  10  31
ATOM     31  C   UNL     1       4.463   2.239  19.666  0.00  0.00    +0.000 C 
ATOM     32  O   UNL     1       5.203   1.941  20.591  0.00  0.00    +0.000 OA
BRANCH  31  33
ATOM     33  O   UNL     1       4.113   1.352  18.708  0.00  0.00    +0.000 OA
ATOM     34  H   UNL     1       3.179   1.031  18.767  0.00  0.00    +0.000 HD
ENDBRANCH  31  33
ENDBRANCH  10  31
TORSDOF 7
ENDMDL
MODEL 4
REMARK VINA RESULT:      -8.1      5.261      9.892
REMARK  Name = 
REMARK  7 active torsions:
REMARK  status: ('A' for Active; 'I' for Inactive)
REMARK    1  A    between atoms: N_1  and  C_2
REMARK    2  A    between atoms: C_2  and  C_3
REMARK    3  A    between atoms: N_5  and  C_6
REMARK    4  A    between atoms: N_9  and  C_10
REMARK    5  A    between atoms: C_19  and  C_20
REMARK    6  A    between atoms: C_20  and  O_22
REMARK    7  A    between atoms: N_24  and  C_25
REMARK                            x       y       z     vdW  Elec       q    Type
REMARK                         _______ _______ _______ _____ _____    ______ ____
ROOT
ATOM      1  C   UNL     1      -0.356  10.546  19.642  0.00  0.00    +0.000 A 
ATOM      2  N   UNL     1      -1.243  10.457  18.622  0.00  0.00    +0.000 NA
ATOM      3  C   UNL     1      -2.411  11.136  18.673  0.00  0.00    +0.000 A 
ATOM      4  C   UNL     1      -2.719  11.951  19.762  0.00  0.00    +0.000 A 
ATOM      5  C   UNL     1      -1.820  12.065  20.816  0.00  0.00    +0.000 A 
ATOM      6  C   UNL     1      -0.633  11.349  20.751  0.00  0.00    +0.000 A 
ATOM      7  F   UNL     1       0.245  11.482  21.757  0.00  0.00    +0.000 F 
ATOM      8  C   UNL     1      -4.004  12.670  19.786  0.00  0.00    +0.000 A 
ATOM      9  O   UNL     1      -4.283  13.434  20.708  0.00  0.00    +0.000 OA
ATOM     10  C   UNL     1      -4.965  12.444  18.685  0.00  0.00    +0.000 A 
ATOM     11  C   UNL     1      -4.578  11.625  17.694  0.00  0.00    +0.000 A 
ATOM     12  N   UNL     1      -3.347  11.007  17.610  0.00  0.00    +0.000 N 
ENDROOT
BRANCH   1  16
ATOM     13  C   UNL     1       2.552   7.760  18.740  0.00  0.00    +0.000 C 
ATOM     14  C   UNL     1       1.843   8.593  17.673  0.00  0.00    +0.000 C 
ATOM     15  C   UNL     1       1.572   9.963  18.272  0.00  0.00    +0.000 C 
ATOM     16  N   UNL     1       0.801   9.813  19.505  0.00  0.00    +0.000 N 
ATOM     17  C   UNL     1       1.279   8.914  20.549  0.00  0.00    +0.000 C 
ATOM     18  C   UNL     1       1.612   7.554  19.932  0.00  0.00    +0.000 C 
BRANCH  13  21
ATOM     19  C   UNL     1       4.248   4.996  17.231  0.00  0.00    +0.000 A 
ATOM     20  C   UNL     1       4.321   6.303  17.663  0.00  0.00    +0.000 A 
ATOM     21  N   UNL     1       3.099   6.534  18.206  0.00  0.00    +0.000 N 
ATOM     22  N   UNL     1       2.329   5.433  18.172  0.00  0.00    +0.000 NA
ATOM     23  N   UNL     1       3.023   4.480  17.568  0.00  0.00    +0.000 NA
BRANCH  19  24
ATOM     24  C   UNL     1       5.244   4.189  16.489  0.00  0.00    +0.000 C 
BRANCH  24  25
ATOM     25  N   UNL     1       6.480   4.111  17.266  0.00  0.00    +0.000 NA
ATOM     26  H   UNL     1       6.493   3.228  17.770  0.00  0.00    +0.000 HD
ATOM     27  H   UNL     1       6.456   4.845  17.973  0.00  0.00    +0.000 HD
ENDBRANCH  24  25
ENDBRANCH  19  24
ENDBRANCH  13  21
ENDBRANCH   1  16
BRANCH  12  28
ATOM     28  C   UNL     1      -3.055  10.035  16.539  0.00  0.00    +0.000 C 
ATOM     29  C   UNL     1      -3.924   9.777  15.336  0.00  0.00    +0.000 C 
ATOM     30  C   UNL     1      -2.641  10.531  15.174  0.00  0.00    +0.000 C 
ENDBRANCH  12  28
BRANCH  10  31
ATOM     31  C   UNL     1      -6.302  13.069  18.637  0.00  0.00    +0.000 C 
ATOM     32  O   UNL     1      -7.342  12.427  18.660  0.00  0.00    +0.000 OA
BRANCH  31  33
ATOM     33  O   UNL     1      -6.289  14.418  18.562  0.00  0.00    +0.000 OA
ATOM     34  H   UNL     1      -5.388  14.824  18.597  0.00  0.00    +0.000 HD
ENDBRANCH  31  33
ENDBRANCH  10  31
TORSDOF 7
ENDMDL
MODEL 5
REMARK VINA RESULT:      -7.9      5.220      9.801
REMARK  Name = 
REMARK  7 active torsions:
REMARK  status: ('A' for Active; 'I' for Inactive)
REMARK    1  A    between atoms: N_1  and  C_2
REMARK    2  A    between atoms: C_2  and  C_3
REMARK    3  A    between atoms: N_5  and  C_6
REMARK    4  A    between atoms: N_9  and  C_10
REMARK    5  A    between atoms: C_19  and  C_20
REMARK    6  A    between atoms: C_20  and  O_22
REMARK    7  A    between atoms: N_24  and  C_25
REMARK                            x       y       z     vdW  Elec       q    Type
REMARK                         _______ _______ _______ _____ _____    ______ ____
ROOT
ATOM      1  C   UNL     1      -0.321  10.449  19.771  0.00  0.00    +0.000 A 
ATOM      2  N   UNL     1      -1.207  10.390  18.748  0.00  0.00    +0.000 NA
ATOM      3  C   UNL     1      -2.348  11.113  18.790  0.00  0.00    +0.000 A 
ATOM      4  C   UNL     1      -2.629  11.944  19.874  0.00  0.00    +0.000 A 
ATOM      5  C   UNL     1      -1.731  12.028  20.932  0.00  0.00    +0.000 A 
ATOM      6  C   UNL     1      -0.573  11.267  20.876  0.00  0.00    +0.000 A 
ATOM      7  F   UNL     1       0.305  11.370  21.886  0.00  0.00    +0.000 F 
ATOM      8  C   UNL     1      -3.885  12.713  19.889  0.00  0.00    +0.000 A 
ATOM      9  O   UNL     1      -4.139  13.491  20.806  0.00  0.00    +0.000 OA
ATOM     10  C   UNL     1      -4.849  12.519  18.783  0.00  0.00    +0.000 A 
ATOM     11  C   UNL     1      -4.489  11.681  17.798  0.00  0.00    +0.000 A 
ATOM     12  N   UNL     1      -3.282  11.016  17.723  0.00  0.00    +0.000 N 
ENDROOT
BRANCH   1  16
ATOM     13  C   UNL     1       2.455   7.492  19.008  0.00  0.00    +0.000 C 
ATOM     14  C   UNL     1       1.690   8.217  17.901  0.00  0.00    +0.000 C 
ATOM     15  C   UNL     1       1.491   9.655  18.352  0.00  0.00    +0.000 C 
ATOM     16  N   UNL     1       0.807   9.672  19.643  0.00  0.00    +0.000 N 
ATOM     17  C   UNL     1       1.339   8.886  20.751  0.00  0.00    +0.000 C 
ATOM     18  C   UNL     1       1.598   7.454  20.277  0.00  0.00    +0.000 C 
BRANCH  13  21
ATOM     19  C   UNL     1       3.193   4.148  17.975  0.00  0.00    +0.000 A 
ATOM     20  C   UNL     1       2.241   5.138  18.103  0.00  0.00    +0.000 A 
ATOM     21  N   UNL     1       2.937   6.197  18.586  0.00  0.00    +0.000 N 
ATOM     22  N   UNL     1       4.246   5.916  18.700  0.00  0.00    +0.000 NA
ATOM     23  N   UNL     1       4.416   4.655  18.333  0.00  0.00    +0.000 NA
BRANCH  19  24
ATOM     24  C   UNL     1       3.037   2.734  17.564  0.00  0.00    +0.000 C 
BRANCH  24  25
ATOM     25  N   UNL     1       4.018   1.913  18.270  0.00  0.00    +0.000 NA
ATOM     26  H   UNL     1       3.523   1.233  18.841  0.00  0.00    +0.000 HD
ATOM     27  H   UNL     1       4.528   2.514  18.916  0.00  0.00    +0.000 HD
ENDBRANCH  24  25
ENDBRANCH  19  24
ENDBRANCH  13  21
ENDBRANCH   1  16
BRANCH  12  28
ATOM     28  C   UNL     1      -3.023  10.029  16.658  0.00  0.00    +0.000 C 
ATOM     29  C   UNL     1      -3.905   9.786  15.461  0.00  0.00    +0.000 C 
ATOM     30  C   UNL     1      -2.603  10.504  15.287  0.00  0.00    +0.000 C 
ENDBRANCH  12  28
BRANCH  10  31
ATOM     31  C   UNL     1      -6.161  13.195  18.727  0.00  0.00    +0.000 C 
ATOM     32  O   UNL     1      -7.218  12.595  18.601  0.00  0.00    +0.000 OA
BRANCH  31  33
ATOM     33  O   UNL     1      -6.103  14.542  18.822  0.00  0.00    +0.000 OA
ATOM     34  H   UNL     1      -6.136  15.017  17.956  0.00  0.00    +0.000 HD
ENDBRANCH  31  33
ENDBRANCH  10  31
TORSDOF 7
ENDMDL
MODEL 6
REMARK VINA RESULT:      -7.8      1.698      1.964
REMARK  Name = 
REMARK  7 active torsions:
REMARK  status: ('A' for Active; 'I' for Inactive)
REMARK    1  A    between atoms: N_1  and  C_2
REMARK    2  A    between atoms: C_2  and  C_3
REMARK    3  A    between atoms: N_5  and  C_6
REMARK    4  A    between atoms: N_9  and  C_10
REMARK    5  A    between atoms: C_19  and  C_20
REMARK    6  A    between atoms: C_20  and  O_22
REMARK    7  A    between atoms: N_24  and  C_25
REMARK                            x       y       z     vdW  Elec       q    Type
REMARK                         _______ _______ _______ _____ _____    ______ ____
ROOT
ATOM      1  C   UNL     1       1.342   8.973  19.302  0.00  0.00    +0.000 A 
ATOM      2  N   UNL     1       1.579   7.722  19.764  0.00  0.00    +0.000 NA
ATOM      3  C   UNL     1       2.504   6.937  19.165  0.00  0.00    +0.000 A 
ATOM      4  C   UNL     1       3.239   7.402  18.076  0.00  0.00    +0.000 A 
ATOM      5  C   UNL     1       3.019   8.686  17.589  0.00  0.00    +0.000 A 
ATOM      6  C   UNL     1       2.057   9.469  18.208  0.00  0.00    +0.000 A 
ATOM      7  F   UNL     1       1.864  10.717  17.754  0.00  0.00    +0.000 F 
ATOM      8  C   UNL     1       4.233   6.518  17.445  0.00  0.00    +0.000 A 
ATOM      9  O   UNL     1       4.932   6.915  16.514  0.00  0.00    +0.000 OA
ATOM     10  C   UNL     1       4.366   5.131  17.941  0.00  0.00    +0.000 A 
ATOM     11  C   UNL     1       3.596   4.778  18.983  0.00  0.00    +0.000 A 
ATOM     12  N   UNL     1       2.720   5.616  19.642  0.00  0.00    +0.000 N 
ENDROOT
BRANCH   1  16
ATOM     13  C   UNL     1      -1.222  11.853  20.774  0.00  0.00    +0.000 C 
ATOM     14  C   UNL     1      -1.240  11.394  19.316  0.00  0.00    +0.000 C 
ATOM     15  C   UNL     1      -0.906   9.911  19.303  0.00  0.00    +0.000 C 
ATOM     16  N   UNL     1       0.377   9.693  19.969  0.00  0.00    +0.000 N 
ATOM     17  C   UNL     1       0.593  10.226  21.309  0.00  0.00    +0.000 C 
ATOM     18  C   UNL     1       0.196  11.704  21.336  0.00  0.00    +0.000 C 
BRANCH  13  21
ATOM     19  C   UNL     1      -2.246  15.276  20.927  0.00  0.00    +0.000 A 
ATOM     20  C   UNL     1      -1.490  14.321  20.280  0.00  0.00    +0.000 A 
ATOM     21  N   UNL     1      -1.783  13.174  20.942  0.00  0.00    +0.000 N 
ATOM     22  N   UNL     1      -2.701  13.378  21.901  0.00  0.00    +0.000 NA
ATOM     23  N   UNL     1      -2.990  14.671  21.906  0.00  0.00    +0.000 NA
BRANCH  19  24
ATOM     24  C   UNL     1      -2.302  16.741  20.712  0.00  0.00    +0.000 C 
BRANCH  24  25
ATOM     25  N   UNL     1      -2.153  17.028  19.287  0.00  0.00    +0.000 NA
ATOM     26  H   UNL     1      -2.044  16.150  18.787  0.00  0.00    +0.000 HD
ATOM     27  H   UNL     1      -1.282  17.542  19.158  0.00  0.00    +0.000 HD
ENDBRANCH  24  25
ENDBRANCH  19  24
ENDBRANCH  13  21
ENDBRANCH   1  16
BRANCH  12  28
ATOM     28  C   UNL     1       1.834   5.105  20.705  0.00  0.00    +0.000 C 
ATOM     29  C   UNL     1       1.021   3.839  20.630  0.00  0.00    +0.000 C 
ATOM     30  C   UNL     1       2.243   3.883  21.493  0.00  0.00    +0.000 C 
ENDBRANCH  12  28
BRANCH  10  31
ATOM     31  C   UNL     1       5.289   4.144  17.346  0.00  0.00    +0.000 C 
ATOM     32  O   UNL     1       5.063   3.566  16.293  0.00  0.00    +0.000 OA
BRANCH  31  33
ATOM     33  O   UNL     1       6.413   3.922  18.063  0.00  0.00    +0.000 OA
ATOM     34  H   UNL     1       7.218   3.735  17.520  0.00  0.00    +0.000 HD
ENDBRANCH  31  33
ENDBRANCH  10  31
TORSDOF 7
ENDMDL
MODEL 7
REMARK VINA RESULT:      -7.8      5.256      9.833
REMARK  Name = 
REMARK  7 active torsions:
REMARK  status: ('A' for Active; 'I' for Inactive)
REMARK    1  A    between atoms: N_1  and  C_2
REMARK    2  A    between atoms: C_2  and  C_3
REMARK    3  A    between atoms: N_5  and  C_6
REMARK    4  A    between atoms: N_9  and  C_10
REMARK    5  A    between atoms: C_19  and  C_20
REMARK    6  A    between atoms: C_20  and  O_22
REMARK    7  A    between atoms: N_24  and  C_25
REMARK                            x       y       z     vdW  Elec       q    Type
REMARK                         _______ _______ _______ _____ _____    ______ ____
ROOT
ATOM      1  C   UNL     1      -0.759  10.924  19.853  0.00  0.00    +0.000 A 
ATOM      2  N   UNL     1      -1.591  10.767  18.796  0.00  0.00    +0.000 NA
ATOM      3  C   UNL     1      -2.780  11.409  18.761  0.00  0.00    +0.000 A 
ATOM      4  C   UNL     1      -3.166  12.256  19.800  0.00  0.00    +0.000 A 
ATOM      5  C   UNL     1      -2.325  12.440  20.892  0.00  0.00    +0.000 A 
ATOM      6  C   UNL     1      -1.116  11.761  20.914  0.00  0.00    +0.000 A 
ATOM      7  F   UNL     1      -0.294  11.960  21.957  0.00  0.00    +0.000 F 
ATOM      8  C   UNL     1      -4.472  12.935  19.732  0.00  0.00    +0.000 A 
ATOM      9  O   UNL     1      -4.819  13.725  20.607  0.00  0.00    +0.000 OA
ATOM     10  C   UNL     1      -5.368  12.636  18.594  0.00  0.00    +0.000 A 
ATOM     11  C   UNL     1      -4.908  11.791  17.658  0.00  0.00    +0.000 A 
ATOM     12  N   UNL     1      -3.656  11.210  17.660  0.00  0.00    +0.000 N 
ENDROOT
BRANCH   1  16
ATOM     13  C   UNL     1       2.256   8.166  19.273  0.00  0.00    +0.000 C 
ATOM     14  C   UNL     1       1.530   8.857  18.118  0.00  0.00    +0.000 C 
ATOM     15  C   UNL     1       1.204  10.271  18.569  0.00  0.00    +0.000 C 
ATOM     16  N   UNL     1       0.424  10.223  19.804  0.00  0.00    +0.000 N 
ATOM     17  C   UNL     1       0.922   9.457  20.941  0.00  0.00    +0.000 C 
ATOM     18  C   UNL     1       1.309   8.052  20.472  0.00  0.00    +0.000 C 
BRANCH  13  21
ATOM     19  C   UNL     1       3.687   4.931  18.743  0.00  0.00    +0.000 A 
ATOM     20  C   UNL     1       2.912   5.737  19.551  0.00  0.00    +0.000 A 
ATOM     21  N   UNL     1       2.852   6.912  18.875  0.00  0.00    +0.000 N 
ATOM     22  N   UNL     1       3.495   6.836  17.697  0.00  0.00    +0.000 NA
ATOM     23  N   UNL     1       4.018   5.622  17.607  0.00  0.00    +0.000 NA
BRANCH  19  24
ATOM     24  C   UNL     1       4.171   3.550  18.972  0.00  0.00    +0.000 C 
BRANCH  24  25
ATOM     25  N   UNL     1       5.630   3.529  18.898  0.00  0.00    +0.000 NA
ATOM     26  H   UNL     1       5.932   4.213  18.209  0.00  0.00    +0.000 HD
ATOM     27  H   UNL     1       5.916   2.618  18.541  0.00  0.00    +0.000 HD
ENDBRANCH  24  25
ENDBRANCH  19  24
ENDBRANCH  13  21
ENDBRANCH   1  16
BRANCH  12  28
ATOM     28  C   UNL     1      -3.282  10.206  16.645  0.00  0.00    +0.000 C 
ATOM     29  C   UNL     1      -3.972  10.006  15.321  0.00  0.00    +0.000 C 
ATOM     30  C   UNL     1      -2.622  10.654  15.362  0.00  0.00    +0.000 C 
ENDBRANCH  12  28
BRANCH  10  31
ATOM     31  C   UNL     1      -6.720  13.215  18.456  0.00  0.00    +0.000 C 
ATOM     32  O   UNL     1      -6.927  14.321  17.978  0.00  0.00    +0.000 OA
BRANCH  31  33
ATOM     33  O   UNL     1      -7.719  12.424  18.905  0.00  0.00    +0.000 OA
ATOM     34  H   UNL     1      -7.896  11.628  18.346  0.00  0.00    +0.000 HD
ENDBRANCH  31  33
ENDBRANCH  10  31
TORSDOF 7
ENDMDL
MODEL 8
REMARK VINA RESULT:      -7.7      2.594      3.719
REMARK  Name = 
REMARK  7 active torsions:
REMARK  status: ('A' for Active; 'I' for Inactive)
REMARK    1  A    between atoms: N_1  and  C_2
REMARK    2  A    between atoms: C_2  and  C_3
REMARK    3  A    between atoms: N_5  and  C_6
REMARK    4  A    between atoms: N_9  and  C_10
REMARK    5  A    between atoms: C_19  and  C_20
REMARK    6  A    between atoms: C_20  and  O_22
REMARK    7  A    between atoms: N_24  and  C_25
REMARK                            x       y       z     vdW  Elec       q    Type
REMARK                         _______ _______ _______ _____ _____    ______ ____
ROOT
ATOM      1  C   UNL     1       1.477   8.191  19.913  0.00  0.00    +0.000 A 
ATOM      2  N   UNL     1       2.457   7.695  19.120  0.00  0.00    +0.000 NA
ATOM      3  C   UNL     1       2.851   6.408  19.246  0.00  0.00    +0.000 A 
ATOM      4  C   UNL     1       2.249   5.564  20.178  0.00  0.00    +0.000 A 
ATOM      5  C   UNL     1       1.236   6.048  20.998  0.00  0.00    +0.000 A 
ATOM      6  C   UNL     1       0.856   7.375  20.862  0.00  0.00    +0.000 A 
ATOM      7  F   UNL     1      -0.141   7.834  21.635  0.00  0.00    +0.000 F 
ATOM      8  C   UNL     1       2.708   4.169  20.293  0.00  0.00    +0.000 A 
ATOM      9  O   UNL     1       2.165   3.387  21.071  0.00  0.00    +0.000 OA
ATOM     10  C   UNL     1       3.850   3.727  19.463  0.00  0.00    +0.000 A 
ATOM     11  C   UNL     1       4.370   4.625  18.611  0.00  0.00    +0.000 A 
ATOM     12  N   UNL     1       3.902   5.910  18.429  0.00  0.00    +0.000 N 
ENDROOT
BRANCH   1  16
ATOM     13  C   UNL     1      -0.258  11.936  19.864  0.00  0.00    +0.000 C 
ATOM     14  C   UNL     1       0.266  11.282  21.142  0.00  0.00    +0.000 C 
ATOM     15  C   UNL     1       1.497  10.472  20.766  0.00  0.00    +0.000 C 
ATOM     16  N   UNL     1       1.150   9.514  19.718  0.00  0.00    +0.000 N 
ATOM     17  C   UNL     1       0.489   9.980  18.505  0.00  0.00    +0.000 C 
ATOM     18  C   UNL     1      -0.713  10.848  18.886  0.00  0.00    +0.000 C 
BRANCH  13  21
ATOM     19  C   UNL     1      -2.379  14.718  20.606  0.00  0.00    +0.000 A 
ATOM     20  C   UNL     1      -1.123  14.286  20.234  0.00  0.00    +0.000 A 
ATOM     21  N   UNL     1      -1.261  12.940  20.131  0.00  0.00    +0.000 N 
ATOM     22  N   UNL     1      -2.528  12.555  20.365  0.00  0.00    +0.000 NA
ATOM     23  N   UNL     1      -3.225  13.641  20.664  0.00  0.00    +0.000 NA
BRANCH  19  24
ATOM     24  C   UNL     1      -2.847  16.083  20.942  0.00  0.00    +0.000 C 
BRANCH  24  25
ATOM     25  N   UNL     1      -2.746  16.936  19.760  0.00  0.00    +0.000 NA
ATOM     26  H   UNL     1      -3.684  17.171  19.447  0.00  0.00    +0.000 HD
ATOM     27  H   UNL     1      -2.322  16.390  19.011  0.00  0.00    +0.000 HD
ENDBRANCH  24  25
ENDBRANCH  19  24
ENDBRANCH  13  21
ENDBRANCH   1  16
BRANCH  12  28
ATOM     28  C   UNL     1       4.610   6.860  17.549  0.00  0.00    +0.000 C 
ATOM     29  C   UNL     1       6.059   6.763  17.150  0.00  0.00    +0.000 C 
ATOM     30  C   UNL     1       4.993   6.437  16.150  0.00  0.00    +0.000 C 
ENDBRANCH  12  28
BRANCH  10  31
ATOM     31  C   UNL     1       4.427   2.370  19.538  0.00  0.00    +0.000 C 
ATOM     32  O   UNL     1       5.116   1.986  20.473  0.00  0.00    +0.000 OA
BRANCH  31  33
ATOM     33  O   UNL     1       4.136   1.577  18.483  0.00  0.00    +0.000 OA
ATOM     34  H   UNL     1       3.224   1.196  18.494  0.00  0.00    +0.000 HD
ENDBRANCH  31  33
ENDBRANCH  10  31
TORSDOF 7
ENDMDL
MODEL 9
REMARK VINA RESULT:      -7.6      2.546      3.649
REMARK  Name = 
REMARK  7 active torsions:
REMARK  status: ('A' for Active; 'I' for Inactive)
REMARK    1  A    between atoms: N_1  and  C_2
REMARK    2  A    between atoms: C_2  and  C_3
REMARK    3  A    between atoms: N_5  and  C_6
REMARK    4  A    between atoms: N_9  and  C_10
REMARK    5  A    between atoms: C_19  and  C_20
REMARK    6  A    between atoms: C_20  and  O_22
REMARK    7  A    between atoms: N_24  and  C_25
REMARK                            x       y       z     vdW  Elec       q    Type
REMARK                         _______ _______ _______ _____ _____    ______ ____
ROOT
ATOM      1  C   UNL     1       1.462   8.207  19.931  0.00  0.00    +0.000 A 
ATOM      2  N   UNL     1       2.425   7.718  19.115  0.00  0.00    +0.000 NA
ATOM      3  C   UNL     1       2.824   6.431  19.225  0.00  0.00    +0.000 A 
ATOM      4  C   UNL     1       2.243   5.579  20.164  0.00  0.00    +0.000 A 
ATOM      5  C   UNL     1       1.246   6.057  21.007  0.00  0.00    +0.000 A 
ATOM      6  C   UNL     1       0.861   7.384  20.888  0.00  0.00    +0.000 A 
ATOM      7  F   UNL     1      -0.120   7.836  21.684  0.00  0.00    +0.000 F 
ATOM      8  C   UNL     1       2.707   4.185  20.260  0.00  0.00    +0.000 A 
ATOM      9  O   UNL     1       2.181   3.397  21.044  0.00  0.00    +0.000 OA
ATOM     10  C   UNL     1       3.832   3.751  19.404  0.00  0.00    +0.000 A 
ATOM     11  C   UNL     1       4.333   4.655  18.547  0.00  0.00    +0.000 A 
ATOM     12  N   UNL     1       3.858   5.940  18.383  0.00  0.00    +0.000 N 
ENDROOT
BRANCH   1  16
ATOM     13  C   UNL     1      -0.264  11.957  19.966  0.00  0.00    +0.000 C 
ATOM     14  C   UNL     1       0.324  11.303  21.216  0.00  0.00    +0.000 C 
ATOM     15  C   UNL     1       1.531  10.490  20.778  0.00  0.00    +0.000 C 
ATOM     16  N   UNL     1       1.128   9.530  19.751  0.00  0.00    +0.000 N 
ATOM     17  C   UNL     1       0.406   9.997  18.573  0.00  0.00    +0.000 C 
ATOM     18  C   UNL     1      -0.772  10.868  19.015  0.00  0.00    +0.000 C 
BRANCH  13  21
ATOM     19  C   UNL     1      -3.027  14.109  20.693  0.00  0.00    +0.000 A 
ATOM     20  C   UNL     1      -2.561  12.814  20.597  0.00  0.00    +0.000 A 
ATOM     21  N   UNL     1      -1.249  12.964  20.284  0.00  0.00    +0.000 N 
ATOM     22  N   UNL     1      -0.897  14.261  20.243  0.00  0.00    +0.000 NA
ATOM     23  N   UNL     1      -1.985  14.976  20.487  0.00  0.00    +0.000 NA
BRANCH  19  24
ATOM     24  C   UNL     1      -4.401  14.602  20.940  0.00  0.00    +0.000 C 
BRANCH  24  25
ATOM     25  N   UNL     1      -5.247  14.273  19.794  0.00  0.00    +0.000 NA
ATOM     26  H   UNL     1      -6.180  14.640  19.962  0.00  0.00    +0.000 HD
ATOM     27  H   UNL     1      -5.342  13.258  19.752  0.00  0.00    +0.000 HD
ENDBRANCH  24  25
ENDBRANCH  19  24
ENDBRANCH  13  21
ENDBRANCH   1  16
BRANCH  12  28
ATOM     28  C   UNL     1       4.547   6.897  17.495  0.00  0.00    +0.000 C 
ATOM     29  C   UNL     1       6.004   6.842  17.117  0.00  0.00    +0.000 C 
ATOM     30  C   UNL     1       4.964   6.461  16.110  0.00  0.00    +0.000 C 
ENDBRANCH  12  28
BRANCH  10  31
ATOM     31  C   UNL     1       4.413   2.394  19.459  0.00  0.00    +0.000 C 
ATOM     32  O   UNL     1       5.131   2.010  20.370  0.00  0.00    +0.000 OA
BRANCH  31  33
ATOM     33  O   UNL     1       4.089   1.602  18.412  0.00  0.00    +0.000 OA
ATOM     34  H   UNL     1       4.552   1.826  17.568  0.00  0.00    +0.000 HD
ENDBRANCH  31  33
ENDBRANCH  10  31
TORSDOF 7
ENDMDL
