MODEL 1
REMARK VINA RESULT:      -6.5      0.000      0.000
REMARK  Name = 
REMARK  9 active torsions:
REMARK  status: ('A' for Active; 'I' for Inactive)
REMARK    1  A    between atoms: C_2  and  C_3
REMARK    2  A    between atoms: C_3  and  O_4
REMARK    3  A    between atoms: O_4  and  C_5
REMARK    4  A    between atoms: C_5  and  C_7
REMARK    5  A    between atoms: C_7  and  N_17
REMARK    6  A    between atoms: C_8  and  C_9
REMARK    7  A    between atoms: C_12  and  O_13
REMARK    8  A    between atoms: O_13  and  C_14
REMARK    9  A    between atoms: C_18  and  C_20
REMARK                            x       y       z     vdW  Elec       q    Type
REMARK                         _______ _______ _______ _____ _____    ______ ____
ROOT
ATOM      1  C   UNL     1       2.588   6.500  19.864  0.00  0.00    +0.000 C 
ATOM      2  C   UNL     1       3.678   6.805  19.133  0.00  0.00    +0.000 C 
ENDROOT
BRANCH   2   3
ATOM      3  C   UNL     1       4.479   5.957  18.250  0.00  0.00    +0.000 A 
ATOM      4  C   UNL     1       4.253   6.016  16.871  0.00  0.00    +0.000 A 
ATOM      5  C   UNL     1       5.066   5.295  15.999  0.00  0.00    +0.000 A 
ATOM      6  C   UNL     1       6.123   4.531  16.493  0.00  0.00    +0.000 A 
ATOM      7  C   UNL     1       6.327   4.441  17.872  0.00  0.00    +0.000 A 
ATOM      8  C   UNL     1       5.506   5.155  18.752  0.00  0.00    +0.000 A 
BRANCH   6   9
ATOM      9  O   UNL     1       6.878   3.892  15.548  0.00  0.00    +0.000 OA
ATOM     10  C   UNL     1       6.492   4.149  14.202  0.00  0.00    +0.000 C 
ENDBRANCH   6   9
ENDBRANCH   2   3
BRANCH   1  11
ATOM     11  N   UNL     1       1.898   7.450  20.621  0.00  0.00    +0.000 N 
ATOM     12  C   UNL     1       1.293   8.625  20.211  0.00  0.00    +0.000 C 
ATOM     13  O   UNL     1       1.345   9.080  19.071  0.00  0.00    +0.000 OA
ATOM     14  H   UNL     1       1.796   7.219  21.610  0.00  0.00    +0.000 HD
BRANCH  12  15
ATOM     15  C   UNL     1       0.551   9.309  21.252  0.00  0.00    +0.000 A 
ATOM     16  C   UNL     1      -0.304  10.393  21.171  0.00  0.00    +0.000 A 
ATOM     17  C   UNL     1      -0.781  10.639  22.480  0.00  0.00    +0.000 A 
ATOM     18  C   UNL     1      -0.186   9.691  23.281  0.00  0.00    +0.000 A 
ATOM     19  O   UNL     1       0.624   8.879  22.550  0.00  0.00    +0.000 OA
ENDBRANCH  12  15
ENDBRANCH   1  11
BRANCH   1  20
ATOM     20  C   UNL     1       1.989   5.114  19.960  0.00  0.00    +0.000 C 
ATOM     21  O   UNL     1       1.986   4.501  21.023  0.00  0.00    +0.000 OA
BRANCH  20  22
ATOM     22  O   UNL     1       1.451   4.689  18.799  0.00  0.00    +0.000 OA
BRANCH  22  23
ATOM     23  C   UNL     1       1.350   3.277  18.589  0.00  0.00    +0.000 C 
BRANCH  23  25
ATOM     24  C   UNL     1       3.398   1.959  17.968  0.00  0.00    +0.000 C 
ATOM     25  C   UNL     1       2.458   2.866  17.668  0.00  0.00    +0.000 C 
ENDBRANCH  23  25
ENDBRANCH  22  23
ENDBRANCH  20  22
ENDBRANCH   1  20
TORSDOF 8
ENDMDL
MODEL 2
REMARK VINA RESULT:      -6.4      2.053      7.513
REMARK  Name = 
REMARK  9 active torsions:
REMARK  status: ('A' for Active; 'I' for Inactive)
REMARK    1  A    between atoms: C_2  and  C_3
REMARK    2  A    between atoms: C_3  and  O_4
REMARK    3  A    between atoms: O_4  and  C_5
REMARK    4  A    between atoms: C_5  and  C_7
REMARK    5  A    between atoms: C_7  and  N_17
REMARK    6  A    between atoms: C_8  and  C_9
REMARK    7  A    between atoms: C_12  and  O_13
REMARK    8  A    between atoms: O_13  and  C_14
REMARK    9  A    between atoms: C_18  and  C_20
REMARK                            x       y       z     vdW  Elec       q    Type
REMARK                         _______ _______ _______ _____ _____    ______ ____
ROOT
ATOM      1  C   UNL     1       4.260   5.444  17.576  0.00  0.00    +0.000 C 
ATOM      2  C   UNL     1       3.188   6.252  17.690  0.00  0.00    +0.000 C 
ENDROOT
BRANCH   2   3
ATOM      3  C   UNL     1       2.534   6.775  18.889  0.00  0.00    +0.000 A 
ATOM      4  C   UNL     1       2.231   8.138  18.952  0.00  0.00    +0.000 A 
ATOM      5  C   UNL     1       1.520   8.647  20.038  0.00  0.00    +0.000 A 
ATOM      6  C   UNL     1       1.085   7.795  21.053  0.00  0.00    +0.000 A 
ATOM      7  C   UNL     1       1.418   6.439  21.011  0.00  0.00    +0.000 A 
ATOM      8  C   UNL     1       2.141   5.927  19.928  0.00  0.00    +0.000 A 
BRANCH   6   9
ATOM      9  O   UNL     1       0.366   8.392  22.053  0.00  0.00    +0.000 OA
ATOM     10  C   UNL     1      -0.116   9.695  21.744  0.00  0.00    +0.000 C 
ENDBRANCH   6   9
ENDBRANCH   2   3
BRANCH   1  11
ATOM     11  N   UNL     1       4.801   5.077  16.342  0.00  0.00    +0.000 N 
ATOM     12  C   UNL     1       5.896   5.600  15.676  0.00  0.00    +0.000 C 
ATOM     13  O   UNL     1       6.542   6.576  16.048  0.00  0.00    +0.000 OA
ATOM     14  H   UNL     1       4.344   4.285  15.891  0.00  0.00    +0.000 HD
BRANCH  12  15
ATOM     15  C   UNL     1       6.254   4.888  14.466  0.00  0.00    +0.000 A 
ATOM     16  C   UNL     1       5.633   3.819  13.844  0.00  0.00    +0.000 A 
ATOM     17  C   UNL     1       6.381   3.530  12.679  0.00  0.00    +0.000 A 
ATOM     18  C   UNL     1       7.416   4.438  12.661  0.00  0.00    +0.000 A 
ATOM     19  O   UNL     1       7.351   5.266  13.738  0.00  0.00    +0.000 OA
ENDBRANCH  12  15
ENDBRANCH   1  11
BRANCH   1  20
ATOM     20  C   UNL     1       4.995   4.837  18.751  0.00  0.00    +0.000 C 
ATOM     21  O   UNL     1       5.554   5.547  19.581  0.00  0.00    +0.000 OA
BRANCH  20  22
ATOM     22  O   UNL     1       4.918   3.491  18.785  0.00  0.00    +0.000 OA
BRANCH  22  23
ATOM     23  C   UNL     1       3.868   2.902  19.558  0.00  0.00    +0.000 C 
BRANCH  23  25
ATOM     24  C   UNL     1       1.640   2.494  18.470  0.00  0.00    +0.000 C 
ATOM     25  C   UNL     1       2.939   2.199  18.617  0.00  0.00    +0.000 C 
ENDBRANCH  23  25
ENDBRANCH  22  23
ENDBRANCH  20  22
ENDBRANCH   1  20
TORSDOF 8
ENDMDL
MODEL 3
REMARK VINA RESULT:      -6.4      2.885      8.434
REMARK  Name = 
REMARK  9 active torsions:
REMARK  status: ('A' for Active; 'I' for Inactive)
REMARK    1  A    between atoms: C_2  and  C_3
REMARK    2  A    between atoms: C_3  and  O_4
REMARK    3  A    between atoms: O_4  and  C_5
REMARK    4  A    between atoms: C_5  and  C_7
REMARK    5  A    between atoms: C_7  and  N_17
REMARK    6  A    between atoms: C_8  and  C_9
REMARK    7  A    between atoms: C_12  and  O_13
REMARK    8  A    between atoms: O_13  and  C_14
REMARK    9  A    between atoms: C_18  and  C_20
REMARK                            x       y       z     vdW  Elec       q    Type
REMARK                         _______ _______ _______ _____ _____    ______ ____
ROOT
ATOM      1  C   UNL     1       5.265   6.220  16.870  0.00  0.00    +0.000 C 
ATOM      2  C   UNL     1       3.935   6.267  17.082  0.00  0.00    +0.000 C 
ENDROOT
BRANCH   2   3
ATOM      3  C   UNL     1       3.190   6.756  18.243  0.00  0.00    +0.000 A 
ATOM      4  C   UNL     1       2.634   8.038  18.195  0.00  0.00    +0.000 A 
ATOM      5  C   UNL     1       1.837   8.493  19.244  0.00  0.00    +0.000 A 
ATOM      6  C   UNL     1       1.569   7.663  20.333  0.00  0.00    +0.000 A 
ATOM      7  C   UNL     1       2.153   6.396  20.399  0.00  0.00    +0.000 A 
ATOM      8  C   UNL     1       2.963   5.940  19.353  0.00  0.00    +0.000 A 
BRANCH   6   9
ATOM      9  O   UNL     1       0.747   8.196  21.288  0.00  0.00    +0.000 OA
ATOM     10  C   UNL     1       0.290   9.516  21.014  0.00  0.00    +0.000 C 
ENDBRANCH   6   9
ENDBRANCH   2   3
BRANCH   1  11
ATOM     11  N   UNL     1       5.822   5.769  15.672  0.00  0.00    +0.000 N 
ATOM     12  C   UNL     1       6.028   4.471  15.235  0.00  0.00    +0.000 C 
ATOM     13  O   UNL     1       5.819   3.465  15.907  0.00  0.00    +0.000 OA
ATOM     14  H   UNL     1       6.075   6.504  15.011  0.00  0.00    +0.000 HD
BRANCH  12  15
ATOM     15  C   UNL     1       6.514   4.370  13.874  0.00  0.00    +0.000 A 
ATOM     16  C   UNL     1       6.181   3.475  12.872  0.00  0.00    +0.000 A 
ATOM     17  C   UNL     1       6.929   3.840  11.729  0.00  0.00    +0.000 A 
ATOM     18  C   UNL     1       7.676   4.935  12.102  0.00  0.00    +0.000 A 
ATOM     19  O   UNL     1       7.435   5.266  13.398  0.00  0.00    +0.000 OA
ENDBRANCH  12  15
ENDBRANCH   1  11
BRANCH   1  20
ATOM     20  C   UNL     1       6.304   6.635  17.889  0.00  0.00    +0.000 C 
ATOM     21  O   UNL     1       6.570   5.915  18.846  0.00  0.00    +0.000 OA
BRANCH  20  22
ATOM     22  O   UNL     1       6.893   7.812  17.595  0.00  0.00    +0.000 OA
BRANCH  22  23
ATOM     23  C   UNL     1       8.220   8.033  18.082  0.00  0.00    +0.000 C 
BRANCH  23  25
ATOM     24  C   UNL     1       9.194  10.121  19.086  0.00  0.00    +0.000 C 
ATOM     25  C   UNL     1       8.443   9.512  18.157  0.00  0.00    +0.000 C 
ENDBRANCH  23  25
ENDBRANCH  22  23
ENDBRANCH  20  22
ENDBRANCH   1  20
TORSDOF 8
ENDMDL
MODEL 4
REMARK VINA RESULT:      -6.3      1.673      7.310
REMARK  Name = 
REMARK  9 active torsions:
REMARK  status: ('A' for Active; 'I' for Inactive)
REMARK    1  A    between atoms: C_2  and  C_3
REMARK    2  A    between atoms: C_3  and  O_4
REMARK    3  A    between atoms: O_4  and  C_5
REMARK    4  A    between atoms: C_5  and  C_7
REMARK    5  A    between atoms: C_7  and  N_17
REMARK    6  A    between atoms: C_8  and  C_9
REMARK    7  A    between atoms: C_12  and  O_13
REMARK    8  A    between atoms: O_13  and  C_14
REMARK    9  A    between atoms: C_18  and  C_20
REMARK                            x       y       z     vdW  Elec       q    Type
REMARK                         _______ _______ _______ _____ _____    ______ ____
ROOT
ATOM      1  C   UNL     1       3.200   6.472  18.028  0.00  0.00    +0.000 C 
ATOM      2  C   UNL     1       2.753   7.742  18.082  0.00  0.00    +0.000 C 
ENDROOT
BRANCH   2   3
ATOM      3  C   UNL     1       1.923   8.399  19.093  0.00  0.00    +0.000 A 
ATOM      4  C   UNL     1       1.163   9.511  18.720  0.00  0.00    +0.000 A 
ATOM      5  C   UNL     1       0.288  10.097  19.634  0.00  0.00    +0.000 A 
ATOM      6  C   UNL     1       0.148   9.561  20.914  0.00  0.00    +0.000 A 
ATOM      7  C   UNL     1       0.934   8.473  21.300  0.00  0.00    +0.000 A 
ATOM      8  C   UNL     1       1.821   7.889  20.389  0.00  0.00    +0.000 A 
BRANCH   6   9
ATOM      9  O   UNL     1      -0.762  10.192  21.718  0.00  0.00    +0.000 OA
ATOM     10  C   UNL     1      -0.577   9.977  23.113  0.00  0.00    +0.000 C 
ENDBRANCH   6   9
ENDBRANCH   2   3
BRANCH   1  11
ATOM     11  N   UNL     1       4.039   6.012  17.011  0.00  0.00    +0.000 N 
ATOM     12  C   UNL     1       5.413   5.839  17.020  0.00  0.00    +0.000 C 
ATOM     13  O   UNL     1       6.154   6.164  17.944  0.00  0.00    +0.000 OA
ATOM     14  H   UNL     1       3.562   5.725  16.156  0.00  0.00    +0.000 HD
BRANCH  12  15
ATOM     15  C   UNL     1       5.944   5.216  15.824  0.00  0.00    +0.000 A 
ATOM     16  C   UNL     1       5.419   4.205  15.039  0.00  0.00    +0.000 A 
ATOM     17  C   UNL     1       6.329   3.995  13.977  0.00  0.00    +0.000 A 
ATOM     18  C   UNL     1       7.356   4.888  14.179  0.00  0.00    +0.000 A 
ATOM     19  O   UNL     1       7.136   5.634  15.295  0.00  0.00    +0.000 OA
ENDBRANCH  12  15
ENDBRANCH   1  11
BRANCH   1  20
ATOM     20  C   UNL     1       2.850   5.404  19.039  0.00  0.00    +0.000 C 
ATOM     21  O   UNL     1       3.589   5.168  19.990  0.00  0.00    +0.000 OA
BRANCH  20  22
ATOM     22  O   UNL     1       1.663   4.812  18.794  0.00  0.00    +0.000 OA
BRANCH  22  23
ATOM     23  C   UNL     1       1.302   3.684  19.597  0.00  0.00    +0.000 C 
BRANCH  23  25
ATOM     24  C   UNL     1       2.325   2.103  17.933  0.00  0.00    +0.000 C 
ATOM     25  C   UNL     1       1.303   2.471  18.719  0.00  0.00    +0.000 C 
ENDBRANCH  23  25
ENDBRANCH  22  23
ENDBRANCH  20  22
ENDBRANCH   1  20
TORSDOF 8
ENDMDL
MODEL 5
REMARK VINA RESULT:      -6.3      1.855      7.409
REMARK  Name = 
REMARK  9 active torsions:
REMARK  status: ('A' for Active; 'I' for Inactive)
REMARK    1  A    between atoms: C_2  and  C_3
REMARK    2  A    between atoms: C_3  and  O_4
REMARK    3  A    between atoms: O_4  and  C_5
REMARK    4  A    between atoms: C_5  and  C_7
REMARK    5  A    between atoms: C_7  and  N_17
REMARK    6  A    between atoms: C_8  and  C_9
REMARK    7  A    between atoms: C_12  and  O_13
REMARK    8  A    between atoms: O_13  and  C_14
REMARK    9  A    between atoms: C_18  and  C_20
REMARK                            x       y       z     vdW  Elec       q    Type
REMARK                         _______ _______ _______ _____ _____    ______ ____
ROOT
ATOM      1  C   UNL     1       3.217   6.132  17.832  0.00  0.00    +0.000 C 
ATOM      2  C   UNL     1       2.950   7.419  18.128  0.00  0.00    +0.000 C 
ENDROOT
BRANCH   2   3
ATOM      3  C   UNL     1       2.109   7.981  19.186  0.00  0.00    +0.000 A 
ATOM      4  C   UNL     1       1.368   9.135  18.915  0.00  0.00    +0.000 A 
ATOM      5  C   UNL     1       0.484   9.637  19.868  0.00  0.00    +0.000 A 
ATOM      6  C   UNL     1       0.314   8.976  21.085  0.00  0.00    +0.000 A 
ATOM      7  C   UNL     1       1.081   7.845  21.372  0.00  0.00    +0.000 A 
ATOM      8  C   UNL     1       1.978   7.345  20.422  0.00  0.00    +0.000 A 
BRANCH   6   9
ATOM      9  O   UNL     1      -0.603   9.534  21.933  0.00  0.00    +0.000 OA
ATOM     10  C   UNL     1      -0.158   9.691  23.276  0.00  0.00    +0.000 C 
ENDBRANCH   6   9
ENDBRANCH   2   3
BRANCH   1  11
ATOM     11  N   UNL     1       4.095   5.759  16.813  0.00  0.00    +0.000 N 
ATOM     12  C   UNL     1       5.462   5.543  16.869  0.00  0.00    +0.000 C 
ATOM     13  O   UNL     1       6.161   5.741  17.859  0.00  0.00    +0.000 OA
ATOM     14  H   UNL     1       3.655   5.584  15.909  0.00  0.00    +0.000 HD
BRANCH  12  15
ATOM     15  C   UNL     1       6.037   5.038  15.639  0.00  0.00    +0.000 A 
ATOM     16  C   UNL     1       5.579   4.057  14.778  0.00  0.00    +0.000 A 
ATOM     17  C   UNL     1       6.507   3.976  13.715  0.00  0.00    +0.000 A 
ATOM     18  C   UNL     1       7.479   4.911  13.992  0.00  0.00    +0.000 A 
ATOM     19  O   UNL     1       7.207   5.561  15.155  0.00  0.00    +0.000 OA
ENDBRANCH  12  15
ENDBRANCH   1  11
BRANCH   1  20
ATOM     20  C   UNL     1       2.602   4.951  18.550  0.00  0.00    +0.000 C 
ATOM     21  O   UNL     1       1.463   4.578  18.290  0.00  0.00    +0.000 OA
BRANCH  20  22
ATOM     22  O   UNL     1       3.444   4.369  19.429  0.00  0.00    +0.000 OA
BRANCH  22  23
ATOM     23  C   UNL     1       3.235   2.988  19.738  0.00  0.00    +0.000 C 
BRANCH  23  25
ATOM     24  C   UNL     1       1.369   2.944  21.421  0.00  0.00    +0.000 C 
ATOM     25  C   UNL     1       2.676   2.905  21.125  0.00  0.00    +0.000 C 
ENDBRANCH  23  25
ENDBRANCH  22  23
ENDBRANCH  20  22
ENDBRANCH   1  20
TORSDOF 8
ENDMDL
MODEL 6
REMARK VINA RESULT:      -6.2      1.047      1.244
REMARK  Name = 
REMARK  9 active torsions:
REMARK  status: ('A' for Active; 'I' for Inactive)
REMARK    1  A    between atoms: C_2  and  C_3
REMARK    2  A    between atoms: C_3  and  O_4
REMARK    3  A    between atoms: O_4  and  C_5
REMARK    4  A    between atoms: C_5  and  C_7
REMARK    5  A    between atoms: C_7  and  N_17
REMARK    6  A    between atoms: C_8  and  C_9
REMARK    7  A    between atoms: C_12  and  O_13
REMARK    8  A    between atoms: O_13  and  C_14
REMARK    9  A    between atoms: C_18  and  C_20
REMARK                            x       y       z     vdW  Elec       q    Type
REMARK                         _______ _______ _______ _____ _____    ______ ____
ROOT
ATOM      1  C   UNL     1       2.474   6.618  19.758  0.00  0.00    +0.000 C 
ATOM      2  C   UNL     1       3.110   6.931  18.612  0.00  0.00    +0.000 C 
ENDROOT
BRANCH   2   3
ATOM      3  C   UNL     1       3.806   6.063  17.662  0.00  0.00    +0.000 A 
ATOM      4  C   UNL     1       4.951   6.547  17.021  0.00  0.00    +0.000 A 
ATOM      5  C   UNL     1       5.690   5.711  16.187  0.00  0.00    +0.000 A 
ATOM      6  C   UNL     1       5.308   4.381  16.007  0.00  0.00    +0.000 A 
ATOM      7  C   UNL     1       4.145   3.907  16.617  0.00  0.00    +0.000 A 
ATOM      8  C   UNL     1       3.394   4.746  17.447  0.00  0.00    +0.000 A 
BRANCH   6   9
ATOM      9  O   UNL     1       6.124   3.641  15.196  0.00  0.00    +0.000 OA
ATOM     10  C   UNL     1       6.116   4.029  13.827  0.00  0.00    +0.000 C 
ENDBRANCH   6   9
ENDBRANCH   2   3
BRANCH   1  11
ATOM     11  N   UNL     1       1.805   7.568  20.532  0.00  0.00    +0.000 N 
ATOM     12  C   UNL     1       1.227   8.765  20.144  0.00  0.00    +0.000 C 
ATOM     13  O   UNL     1       1.294   9.240  19.014  0.00  0.00    +0.000 OA
ATOM     14  H   UNL     1       1.693   7.320  21.516  0.00  0.00    +0.000 HD
BRANCH  12  15
ATOM     15  C   UNL     1       0.498   9.444  21.196  0.00  0.00    +0.000 A 
ATOM     16  C   UNL     1      -0.320  10.558  21.137  0.00  0.00    +0.000 A 
ATOM     17  C   UNL     1      -0.802  10.785  22.447  0.00  0.00    +0.000 A 
ATOM     18  C   UNL     1      -0.246   9.797  23.228  0.00  0.00    +0.000 A 
ATOM     19  O   UNL     1       0.544   8.978  22.483  0.00  0.00    +0.000 OA
ENDBRANCH  12  15
ENDBRANCH   1  11
BRANCH   1  20
ATOM     20  C   UNL     1       2.414   5.224  20.344  0.00  0.00    +0.000 C 
ATOM     21  O   UNL     1       3.441   4.618  20.636  0.00  0.00    +0.000 OA
BRANCH  20  22
ATOM     22  O   UNL     1       1.154   4.783  20.531  0.00  0.00    +0.000 OA
BRANCH  22  23
ATOM     23  C   UNL     1       0.951   3.371  20.638  0.00  0.00    +0.000 C 
BRANCH  23  25
ATOM     24  C   UNL     1       1.596   1.916  18.693  0.00  0.00    +0.000 C 
ATOM     25  C   UNL     1       0.784   2.822  19.254  0.00  0.00    +0.000 C 
ENDBRANCH  23  25
ENDBRANCH  22  23
ENDBRANCH  20  22
ENDBRANCH   1  20
TORSDOF 8
ENDMDL
MODEL 7
REMARK VINA RESULT:      -6.2      0.766      1.342
REMARK  Name = 
REMARK  9 active torsions:
REMARK  status: ('A' for Active; 'I' for Inactive)
REMARK    1  A    between atoms: C_2  and  C_3
REMARK    2  A    between atoms: C_3  and  O_4
REMARK    3  A    between atoms: O_4  and  C_5
REMARK    4  A    between atoms: C_5  and  C_7
REMARK    5  A    between atoms: C_7  and  N_17
REMARK    6  A    between atoms: C_8  and  C_9
REMARK    7  A    between atoms: C_12  and  O_13
REMARK    8  A    between atoms: O_13  and  C_14
REMARK    9  A    between atoms: C_18  and  C_20
REMARK                            x       y       z     vdW  Elec       q    Type
REMARK                         _______ _______ _______ _____ _____    ______ ____
ROOT
ATOM      1  C   UNL     1       2.804   6.644  19.401  0.00  0.00    +0.000 C 
ATOM      2  C   UNL     1       3.822   7.057  18.621  0.00  0.00    +0.000 C 
ENDROOT
BRANCH   2   3
ATOM      3  C   UNL     1       4.623   6.307  17.653  0.00  0.00    +0.000 A 
ATOM      4  C   UNL     1       5.352   5.200  18.095  0.00  0.00    +0.000 A 
ATOM      5  C   UNL     1       6.044   4.408  17.180  0.00  0.00    +0.000 A 
ATOM      6  C   UNL     1       5.992   4.701  15.818  0.00  0.00    +0.000 A 
ATOM      7  C   UNL     1       5.294   5.828  15.378  0.00  0.00    +0.000 A 
ATOM      8  C   UNL     1       4.607   6.632  16.295  0.00  0.00    +0.000 A 
BRANCH   6   9
ATOM      9  O   UNL     1       6.678   3.840  15.005  0.00  0.00    +0.000 OA
ATOM     10  C   UNL     1       6.260   3.842  13.645  0.00  0.00    +0.000 C 
ENDBRANCH   6   9
ENDBRANCH   2   3
BRANCH   1  11
ATOM     11  N   UNL     1       2.100   7.508  20.242  0.00  0.00    +0.000 N 
ATOM     12  C   UNL     1       1.384   8.649  19.924  0.00  0.00    +0.000 C 
ATOM     13  O   UNL     1       1.327   9.151  18.805  0.00  0.00    +0.000 OA
ATOM     14  H   UNL     1       2.081   7.231  21.224  0.00  0.00    +0.000 HD
BRANCH  12  15
ATOM     15  C   UNL     1       0.667   9.233  21.040  0.00  0.00    +0.000 A 
ATOM     16  C   UNL     1       0.777   8.989  22.397  0.00  0.00    +0.000 A 
ATOM     17  C   UNL     1      -0.136   9.851  23.046  0.00  0.00    +0.000 A 
ATOM     18  C   UNL     1      -0.753  10.568  22.046  0.00  0.00    +0.000 A 
ATOM     19  O   UNL     1      -0.276  10.204  20.826  0.00  0.00    +0.000 OA
ENDBRANCH  12  15
ENDBRANCH   1  11
BRANCH   1  20
ATOM     20  C   UNL     1       2.311   5.215  19.468  0.00  0.00    +0.000 C 
ATOM     21  O   UNL     1       2.518   4.522  20.459  0.00  0.00    +0.000 OA
BRANCH  20  22
ATOM     22  O   UNL     1       1.615   4.844  18.374  0.00  0.00    +0.000 OA
BRANCH  22  23
ATOM     23  C   UNL     1       1.397   3.445  18.166  0.00  0.00    +0.000 C 
BRANCH  23  25
ATOM     24  C   UNL     1       3.369   1.904  17.944  0.00  0.00    +0.000 C 
ATOM     25  C   UNL     1       2.598   2.889  17.464  0.00  0.00    +0.000 C 
ENDBRANCH  23  25
ENDBRANCH  22  23
ENDBRANCH  20  22
ENDBRANCH   1  20
TORSDOF 8
ENDMDL
MODEL 8
REMARK VINA RESULT:      -6.2      1.431      2.132
REMARK  Name = 
REMARK  9 active torsions:
REMARK  status: ('A' for Active; 'I' for Inactive)
REMARK    1  A    between atoms: C_2  and  C_3
REMARK    2  A    between atoms: C_3  and  O_4
REMARK    3  A    between atoms: O_4  and  C_5
REMARK    4  A    between atoms: C_5  and  C_7
REMARK    5  A    between atoms: C_7  and  N_17
REMARK    6  A    between atoms: C_8  and  C_9
REMARK    7  A    between atoms: C_12  and  O_13
REMARK    8  A    between atoms: O_13  and  C_14
REMARK    9  A    between atoms: C_18  and  C_20
REMARK                            x       y       z     vdW  Elec       q    Type
REMARK                         _______ _______ _______ _____ _____    ______ ____
ROOT
ATOM      1  C   UNL     1       2.837   6.346  18.667  0.00  0.00    +0.000 C 
ATOM      2  C   UNL     1       4.006   6.609  18.050  0.00  0.00    +0.000 C 
ENDROOT
BRANCH   2   3
ATOM      3  C   UNL     1       4.718   5.841  17.028  0.00  0.00    +0.000 A 
ATOM      4  C   UNL     1       4.969   4.485  17.258  0.00  0.00    +0.000 A 
ATOM      5  C   UNL     1       5.557   3.705  16.264  0.00  0.00    +0.000 A 
ATOM      6  C   UNL     1       5.873   4.267  15.027  0.00  0.00    +0.000 A 
ATOM      7  C   UNL     1       5.657   5.629  14.808  0.00  0.00    +0.000 A 
ATOM      8  C   UNL     1       5.077   6.417  15.808  0.00  0.00    +0.000 A 
BRANCH   6   9
ATOM      9  O   UNL     1       6.414   3.405  14.112  0.00  0.00    +0.000 OA
ATOM     10  C   UNL     1       6.024   3.643  12.764  0.00  0.00    +0.000 C 
ENDBRANCH   6   9
ENDBRANCH   2   3
BRANCH   1  11
ATOM     11  N   UNL     1       2.259   7.219  19.590  0.00  0.00    +0.000 N 
ATOM     12  C   UNL     1       1.599   8.416  19.370  0.00  0.00    +0.000 C 
ATOM     13  O   UNL     1       1.490   8.965  18.277  0.00  0.00    +0.000 OA
ATOM     14  H   UNL     1       2.296   6.905  20.561  0.00  0.00    +0.000 HD
BRANCH  12  15
ATOM     15  C   UNL     1       1.010   9.000  20.558  0.00  0.00    +0.000 A 
ATOM     16  C   UNL     1       1.069   8.587  21.878  0.00  0.00    +0.000 A 
ATOM     17  C   UNL     1       0.342   9.532  22.637  0.00  0.00    +0.000 A 
ATOM     18  C   UNL     1      -0.120  10.464  21.736  0.00  0.00    +0.000 A 
ATOM     19  O   UNL     1       0.276  10.154  20.473  0.00  0.00    +0.000 OA
ENDBRANCH  12  15
ENDBRANCH   1  11
BRANCH   1  20
ATOM     20  C   UNL     1       2.023   5.090  18.445  0.00  0.00    +0.000 C 
ATOM     21  O   UNL     1       1.365   4.938  17.421  0.00  0.00    +0.000 OA
BRANCH  20  22
ATOM     22  O   UNL     1       2.148   4.195  19.447  0.00  0.00    +0.000 OA
BRANCH  22  23
ATOM     23  C   UNL     1       0.957   3.573  19.937  0.00  0.00    +0.000 C 
BRANCH  23  25
ATOM     24  C   UNL     1       2.478   2.661  21.717  0.00  0.00    +0.000 C 
ATOM     25  C   UNL     1       1.255   3.005  21.290  0.00  0.00    +0.000 C 
ENDBRANCH  23  25
ENDBRANCH  22  23
ENDBRANCH  20  22
ENDBRANCH   1  20
TORSDOF 8
ENDMDL
MODEL 9
REMARK VINA RESULT:      -6.2      1.931      7.455
REMARK  Name = 
REMARK  9 active torsions:
REMARK  status: ('A' for Active; 'I' for Inactive)
REMARK    1  A    between atoms: C_2  and  C_3
REMARK    2  A    between atoms: C_3  and  O_4
REMARK    3  A    between atoms: O_4  and  C_5
REMARK    4  A    between atoms: C_5  and  C_7
REMARK    5  A    between atoms: C_7  and  N_17
REMARK    6  A    between atoms: C_8  and  C_9
REMARK    7  A    between atoms: C_12  and  O_13
REMARK    8  A    between atoms: O_13  and  C_14
REMARK    9  A    between atoms: C_18  and  C_20
REMARK                            x       y       z     vdW  Elec       q    Type
REMARK                         _______ _______ _______ _____ _____    ______ ____
ROOT
ATOM      1  C   UNL     1       2.973   6.504  17.933  0.00  0.00    +0.000 C 
ATOM      2  C   UNL     1       2.666   7.807  18.081  0.00  0.00    +0.000 C 
ENDROOT
BRANCH   2   3
ATOM      3  C   UNL     1       1.760   8.453  19.031  0.00  0.00    +0.000 A 
ATOM      4  C   UNL     1       1.834   8.096  20.381  0.00  0.00    +0.000 A 
ATOM      5  C   UNL     1       1.053   8.763  21.324  0.00  0.00    +0.000 A 
ATOM      6  C   UNL     1       0.215   9.806  20.930  0.00  0.00    +0.000 A 
ATOM      7  C   UNL     1       0.112  10.139  19.577  0.00  0.00    +0.000 A 
ATOM      8  C   UNL     1       0.886   9.464  18.627  0.00  0.00    +0.000 A 
BRANCH   6   9
ATOM      9  O   UNL     1      -0.479  10.414  21.940  0.00  0.00    +0.000 OA
ATOM     10  C   UNL     1      -0.405   9.753  23.198  0.00  0.00    +0.000 C 
ENDBRANCH   6   9
ENDBRANCH   2   3
BRANCH   1  11
ATOM     11  N   UNL     1       3.910   6.051  17.002  0.00  0.00    +0.000 N 
ATOM     12  C   UNL     1       5.274   5.862  17.152  0.00  0.00    +0.000 C 
ATOM     13  O   UNL     1       5.915   6.161  18.156  0.00  0.00    +0.000 OA
ATOM     14  H   UNL     1       3.523   5.786  16.096  0.00  0.00    +0.000 HD
BRANCH  12  15
ATOM     15  C   UNL     1       5.922   5.254  16.008  0.00  0.00    +0.000 A 
ATOM     16  C   UNL     1       5.469   4.272  15.145  0.00  0.00    +0.000 A 
ATOM     17  C   UNL     1       6.486   4.066  14.185  0.00  0.00    +0.000 A 
ATOM     18  C   UNL     1       7.502   4.933  14.522  0.00  0.00    +0.000 A 
ATOM     19  O   UNL     1       7.173   5.658  15.624  0.00  0.00    +0.000 OA
ENDBRANCH  12  15
ENDBRANCH   1  11
BRANCH   1  20
ATOM     20  C   UNL     1       2.347   5.386  18.737  0.00  0.00    +0.000 C 
ATOM     21  O   UNL     1       1.355   4.793  18.326  0.00  0.00    +0.000 OA
BRANCH  20  22
ATOM     22  O   UNL     1       3.014   5.118  19.878  0.00  0.00    +0.000 OA
BRANCH  22  23
ATOM     23  C   UNL     1       2.244   4.774  21.034  0.00  0.00    +0.000 C 
BRANCH  23  25
ATOM     24  C   UNL     1       1.462   2.473  21.674  0.00  0.00    +0.000 C 
ATOM     25  C   UNL     1       2.437   3.312  21.299  0.00  0.00    +0.000 C 
ENDBRANCH  23  25
ENDBRANCH  22  23
ENDBRANCH  20  22
ENDBRANCH   1  20
TORSDOF 8
ENDMDL
