MODEL 1
REMARK VINA RESULT:      -8.9      0.000      0.000
REMARK  Name = 
REMARK  3 active torsions:
REMARK  status: ('A' for Active; 'I' for Inactive)
REMARK    1  A    between atoms: C_4  and  C_5
REMARK    2  A    between atoms: C_7  and  C_8
REMARK    3  A    between atoms: N_17  and  C_18
REMARK                            x       y       z     vdW  Elec       q    Type
REMARK                         _______ _______ _______ _____ _____    ______ ____
ROOT
ATOM      1  O   UNL     1       1.417   4.413  17.478  0.00  0.00    +0.000 OA
ATOM      2  C   UNL     1       2.414   4.474  18.181  0.00  0.00    +0.000 C 
ATOM      3  C   UNL     1       3.248   3.255  18.507  0.00  0.00    +0.000 C 
ATOM      4  C   UNL     1       4.561   3.845  18.995  0.00  0.00    +0.000 C 
ATOM      5  C   UNL     1       4.132   5.163  19.620  0.00  0.00    +0.000 C 
ATOM      6  N   UNL     1       2.960   5.568  18.874  0.00  0.00    +0.000 N 
ENDROOT
BRANCH   6   7
ATOM      7  C   UNL     1       2.423   6.886  18.929  0.00  0.00    +0.000 A 
ATOM      8  C   UNL     1       1.889   7.417  20.110  0.00  0.00    +0.000 A 
ATOM      9  C   UNL     1       1.365   8.716  20.156  0.00  0.00    +0.000 A 
ATOM     10  C   UNL     1       1.357   9.509  19.015  0.00  0.00    +0.000 A 
ATOM     11  C   UNL     1       1.880   9.005  17.830  0.00  0.00    +0.000 A 
ATOM     12  C   UNL     1       2.413   7.710  17.790  0.00  0.00    +0.000 A 
ENDBRANCH   6   7
BRANCH   4  13
ATOM     13  C   UNL     1       5.500   4.089  17.869  0.00  0.00    +0.000 A 
ATOM     14  N   UNL     1       5.294   3.976  16.581  0.00  0.00    +0.000 NA
ATOM     15  C   UNL     1       6.496   4.376  16.043  0.00  0.00    +0.000 A 
ATOM     16  N   UNL     1       7.411   4.723  16.966  0.00  0.00    +0.000 NA
ATOM     17  O   UNL     1       6.750   4.533  18.180  0.00  0.00    +0.000 OA
BRANCH  15  18
ATOM     18  C   UNL     1       6.715   4.403  14.602  0.00  0.00    +0.000 A 
ATOM     19  C   UNL     1       5.954   3.572  13.764  0.00  0.00    +0.000 A 
ATOM     20  C   UNL     1       6.158   3.571  12.384  0.00  0.00    +0.000 A 
ATOM     21  C   UNL     1       7.127   4.403  11.826  0.00  0.00    +0.000 A 
ATOM     22  C   UNL     1       7.887   5.238  12.644  0.00  0.00    +0.000 A 
ATOM     23  C   UNL     1       7.682   5.239  14.026  0.00  0.00    +0.000 A 
ENDBRANCH  15  18
ENDBRANCH   4  13
TORSDOF 3
ENDMDL
MODEL 2
REMARK VINA RESULT:      -8.9      0.050      1.001
REMARK  Name = 
REMARK  3 active torsions:
REMARK  status: ('A' for Active; 'I' for Inactive)
REMARK    1  A    between atoms: C_4  and  C_5
REMARK    2  A    between atoms: C_7  and  C_8
REMARK    3  A    between atoms: N_17  and  C_18
REMARK                            x       y       z     vdW  Elec       q    Type
REMARK                         _______ _______ _______ _____ _____    ______ ____
ROOT
ATOM      1  O   UNL     1       1.457   4.382  17.503  0.00  0.00    +0.000 OA
ATOM      2  C   UNL     1       2.460   4.461  18.195  0.00  0.00    +0.000 C 
ATOM      3  C   UNL     1       3.311   3.256  18.526  0.00  0.00    +0.000 C 
ATOM      4  C   UNL     1       4.623   3.865  18.994  0.00  0.00    +0.000 C 
ATOM      5  C   UNL     1       4.185   5.186  19.608  0.00  0.00    +0.000 C 
ATOM      6  N   UNL     1       3.001   5.570  18.870  0.00  0.00    +0.000 N 
ENDROOT
BRANCH   6   7
ATOM      7  C   UNL     1       2.450   6.882  18.916  0.00  0.00    +0.000 A 
ATOM      8  C   UNL     1       2.473   7.733  17.803  0.00  0.00    +0.000 A 
ATOM      9  C   UNL     1       1.928   9.022  17.856  0.00  0.00    +0.000 A 
ATOM     10  C   UNL     1       1.353   9.491  19.031  0.00  0.00    +0.000 A 
ATOM     11  C   UNL     1       1.319   8.668  20.150  0.00  0.00    +0.000 A 
ATOM     12  C   UNL     1       1.855   7.375  20.090  0.00  0.00    +0.000 A 
ENDBRANCH   6   7
BRANCH   4  13
ATOM     13  C   UNL     1       5.547   4.108  17.856  0.00  0.00    +0.000 A 
ATOM     14  N   UNL     1       5.327   3.986  16.571  0.00  0.00    +0.000 NA
ATOM     15  C   UNL     1       6.521   4.388  16.016  0.00  0.00    +0.000 A 
ATOM     16  N   UNL     1       7.444   4.745  16.927  0.00  0.00    +0.000 NA
ATOM     17  O   UNL     1       6.798   4.559  18.149  0.00  0.00    +0.000 OA
BRANCH  15  18
ATOM     18  C   UNL     1       6.722   4.407  14.573  0.00  0.00    +0.000 A 
ATOM     19  C   UNL     1       5.943   3.581  13.747  0.00  0.00    +0.000 A 
ATOM     20  C   UNL     1       6.131   3.572  12.365  0.00  0.00    +0.000 A 
ATOM     21  C   UNL     1       7.102   4.392  11.792  0.00  0.00    +0.000 A 
ATOM     22  C   UNL     1       7.881   5.222  12.598  0.00  0.00    +0.000 A 
ATOM     23  C   UNL     1       7.692   5.230  13.983  0.00  0.00    +0.000 A 
ENDBRANCH  15  18
ENDBRANCH   4  13
TORSDOF 3
ENDMDL
MODEL 3
REMARK VINA RESULT:      -8.8      2.397      3.690
REMARK  Name = 
REMARK  3 active torsions:
REMARK  status: ('A' for Active; 'I' for Inactive)
REMARK    1  A    between atoms: C_4  and  C_5
REMARK    2  A    between atoms: C_7  and  C_8
REMARK    3  A    between atoms: N_17  and  C_18
REMARK                            x       y       z     vdW  Elec       q    Type
REMARK                         _______ _______ _______ _____ _____    ______ ____
ROOT
ATOM      1  O   UNL     1       6.000   4.326  19.676  0.00  0.00    +0.000 OA
ATOM      2  C   UNL     1       5.568   5.100  18.835  0.00  0.00    +0.000 C 
ATOM      3  C   UNL     1       6.392   6.246  18.292  0.00  0.00    +0.000 C 
ATOM      4  C   UNL     1       5.661   6.634  17.016  0.00  0.00    +0.000 C 
ATOM      5  C   UNL     1       4.214   6.286  17.333  0.00  0.00    +0.000 C 
ATOM      6  N   UNL     1       4.289   5.176  18.258  0.00  0.00    +0.000 N 
ENDROOT
BRANCH   6   7
ATOM      7  C   UNL     1       3.171   4.351  18.569  0.00  0.00    +0.000 A 
ATOM      8  C   UNL     1       2.937   3.140  17.904  0.00  0.00    +0.000 A 
ATOM      9  C   UNL     1       1.835   2.334  18.218  0.00  0.00    +0.000 A 
ATOM     10  C   UNL     1       0.937   2.728  19.202  0.00  0.00    +0.000 A 
ATOM     11  C   UNL     1       1.145   3.925  19.876  0.00  0.00    +0.000 A 
ATOM     12  C   UNL     1       2.254   4.724  19.567  0.00  0.00    +0.000 A 
ENDBRANCH   6   7
BRANCH   4  13
ATOM     13  C   UNL     1       6.138   5.842  15.853  0.00  0.00    +0.000 A 
ATOM     14  N   UNL     1       5.452   5.109  15.014  0.00  0.00    +0.000 NA
ATOM     15  C   UNL     1       6.415   4.667  14.135  0.00  0.00    +0.000 A 
ATOM     16  N   UNL     1       7.652   5.111  14.424  0.00  0.00    +0.000 NA
ATOM     17  O   UNL     1       7.469   5.892  15.565  0.00  0.00    +0.000 OA
BRANCH  15  18
ATOM     18  C   UNL     1       6.082   3.797  13.013  0.00  0.00    +0.000 A 
ATOM     19  C   UNL     1       4.756   3.718  12.560  0.00  0.00    +0.000 A 
ATOM     20  C   UNL     1       4.413   2.881  11.498  0.00  0.00    +0.000 A 
ATOM     21  C   UNL     1       5.396   2.112  10.877  0.00  0.00    +0.000 A 
ATOM     22  C   UNL     1       6.719   2.183  11.312  0.00  0.00    +0.000 A 
ATOM     23  C   UNL     1       7.061   3.022  12.376  0.00  0.00    +0.000 A 
ENDBRANCH  15  18
ENDBRANCH   4  13
TORSDOF 3
ENDMDL
MODEL 4
REMARK VINA RESULT:      -8.8      2.396      3.746
REMARK  Name = 
REMARK  3 active torsions:
REMARK  status: ('A' for Active; 'I' for Inactive)
REMARK    1  A    between atoms: C_4  and  C_5
REMARK    2  A    between atoms: C_7  and  C_8
REMARK    3  A    between atoms: N_17  and  C_18
REMARK                            x       y       z     vdW  Elec       q    Type
REMARK                         _______ _______ _______ _____ _____    ______ ____
ROOT
ATOM      1  O   UNL     1       5.965   4.210  19.672  0.00  0.00    +0.000 OA
ATOM      2  C   UNL     1       5.548   5.018  18.856  0.00  0.00    +0.000 C 
ATOM      3  C   UNL     1       6.392   6.168  18.355  0.00  0.00    +0.000 C 
ATOM      4  C   UNL     1       5.672   6.611  17.091  0.00  0.00    +0.000 C 
ATOM      5  C   UNL     1       4.219   6.276  17.391  0.00  0.00    +0.000 C 
ATOM      6  N   UNL     1       4.273   5.134  18.278  0.00  0.00    +0.000 N 
ENDROOT
BRANCH   6   7
ATOM      7  C   UNL     1       3.140   4.317  18.559  0.00  0.00    +0.000 A 
ATOM      8  C   UNL     1       2.911   3.114  17.878  0.00  0.00    +0.000 A 
ATOM      9  C   UNL     1       1.795   2.315  18.161  0.00  0.00    +0.000 A 
ATOM     10  C   UNL     1       0.879   2.710  19.129  0.00  0.00    +0.000 A 
ATOM     11  C   UNL     1       1.083   3.899  19.817  0.00  0.00    +0.000 A 
ATOM     12  C   UNL     1       2.205   4.690  19.539  0.00  0.00    +0.000 A 
ENDBRANCH   6   7
BRANCH   4  13
ATOM     13  C   UNL     1       6.141   5.851  15.903  0.00  0.00    +0.000 A 
ATOM     14  N   UNL     1       5.461   5.082  15.091  0.00  0.00    +0.000 NA
ATOM     15  C   UNL     1       6.407   4.698  14.168  0.00  0.00    +0.000 A 
ATOM     16  N   UNL     1       7.628   5.212  14.403  0.00  0.00    +0.000 NA
ATOM     17  O   UNL     1       7.452   5.978  15.556  0.00  0.00    +0.000 OA
BRANCH  15  18
ATOM     18  C   UNL     1       6.074   3.814  13.058  0.00  0.00    +0.000 A 
ATOM     19  C   UNL     1       7.086   3.075  12.425  0.00  0.00    +0.000 A 
ATOM     20  C   UNL     1       6.791   2.236  11.350  0.00  0.00    +0.000 A 
ATOM     21  C   UNL     1       5.477   2.127  10.897  0.00  0.00    +0.000 A 
ATOM     22  C   UNL     1       4.460   2.850  11.518  0.00  0.00    +0.000 A 
ATOM     23  C   UNL     1       4.757   3.691  12.594  0.00  0.00    +0.000 A 
ENDBRANCH  15  18
ENDBRANCH   4  13
TORSDOF 3
ENDMDL
MODEL 5
REMARK VINA RESULT:      -8.8      2.388      3.537
REMARK  Name = 
REMARK  3 active torsions:
REMARK  status: ('A' for Active; 'I' for Inactive)
REMARK    1  A    between atoms: C_4  and  C_5
REMARK    2  A    between atoms: C_7  and  C_8
REMARK    3  A    between atoms: N_17  and  C_18
REMARK                            x       y       z     vdW  Elec       q    Type
REMARK                         _______ _______ _______ _____ _____    ______ ____
ROOT
ATOM      1  O   UNL     1       5.977   4.338  19.824  0.00  0.00    +0.000 OA
ATOM      2  C   UNL     1       5.556   5.125  18.990  0.00  0.00    +0.000 C 
ATOM      3  C   UNL     1       6.394   6.269  18.464  0.00  0.00    +0.000 C 
ATOM      4  C   UNL     1       5.674   6.679  17.190  0.00  0.00    +0.000 C 
ATOM      5  C   UNL     1       4.222   6.342  17.495  0.00  0.00    +0.000 C 
ATOM      6  N   UNL     1       4.281   5.220  18.407  0.00  0.00    +0.000 N 
ENDROOT
BRANCH   6   7
ATOM      7  C   UNL     1       3.153   4.403  18.704  0.00  0.00    +0.000 A 
ATOM      8  C   UNL     1       2.288   4.695  19.766  0.00  0.00    +0.000 A 
ATOM      9  C   UNL     1       1.179   3.887  20.049  0.00  0.00    +0.000 A 
ATOM     10  C   UNL     1       0.919   2.761  19.278  0.00  0.00    +0.000 A 
ATOM     11  C   UNL     1       1.763   2.447  18.221  0.00  0.00    +0.000 A 
ATOM     12  C   UNL     1       2.864   3.264  17.933  0.00  0.00    +0.000 A 
ENDBRANCH   6   7
BRANCH   4  13
ATOM     13  C   UNL     1       6.149   5.896  16.020  0.00  0.00    +0.000 A 
ATOM     14  N   UNL     1       5.460   5.184  15.165  0.00  0.00    +0.000 NA
ATOM     15  C   UNL     1       6.424   4.739  14.288  0.00  0.00    +0.000 A 
ATOM     16  N   UNL     1       7.664   5.162  14.593  0.00  0.00    +0.000 NA
ATOM     17  O   UNL     1       7.483   5.930  15.743  0.00  0.00    +0.000 OA
BRANCH  15  18
ATOM     18  C   UNL     1       6.087   3.890  13.152  0.00  0.00    +0.000 A 
ATOM     19  C   UNL     1       4.753   3.783  12.730  0.00  0.00    +0.000 A 
ATOM     20  C   UNL     1       4.407   2.964  11.655  0.00  0.00    +0.000 A 
ATOM     21  C   UNL     1       5.396   2.240  10.990  0.00  0.00    +0.000 A 
ATOM     22  C   UNL     1       6.727   2.339  11.394  0.00  0.00    +0.000 A 
ATOM     23  C   UNL     1       7.072   3.160  12.471  0.00  0.00    +0.000 A 
ENDBRANCH  15  18
ENDBRANCH   4  13
TORSDOF 3
ENDMDL
MODEL 6
REMARK VINA RESULT:      -8.8      0.036      1.008
REMARK  Name = 
REMARK  3 active torsions:
REMARK  status: ('A' for Active; 'I' for Inactive)
REMARK    1  A    between atoms: C_4  and  C_5
REMARK    2  A    between atoms: C_7  and  C_8
REMARK    3  A    between atoms: N_17  and  C_18
REMARK                            x       y       z     vdW  Elec       q    Type
REMARK                         _______ _______ _______ _____ _____    ______ ____
ROOT
ATOM      1  O   UNL     1       1.425   4.388  17.511  0.00  0.00    +0.000 OA
ATOM      2  C   UNL     1       2.425   4.458  18.209  0.00  0.00    +0.000 C 
ATOM      3  C   UNL     1       3.262   3.244  18.545  0.00  0.00    +0.000 C 
ATOM      4  C   UNL     1       4.577   3.840  19.019  0.00  0.00    +0.000 C 
ATOM      5  C   UNL     1       4.150   5.166  19.630  0.00  0.00    +0.000 C 
ATOM      6  N   UNL     1       2.974   5.561  18.885  0.00  0.00    +0.000 N 
ENDROOT
BRANCH   6   7
ATOM      7  C   UNL     1       2.437   6.879  18.927  0.00  0.00    +0.000 A 
ATOM      8  C   UNL     1       1.877   7.412  20.095  0.00  0.00    +0.000 A 
ATOM      9  C   UNL     1       1.352   8.710  20.129  0.00  0.00    +0.000 A 
ATOM     10  C   UNL     1       1.370   9.502  18.986  0.00  0.00    +0.000 A 
ATOM     11  C   UNL     1       1.918   8.997  17.814  0.00  0.00    +0.000 A 
ATOM     12  C   UNL     1       2.452   7.702  17.787  0.00  0.00    +0.000 A 
ENDBRANCH   6   7
BRANCH   4  13
ATOM     13  C   UNL     1       5.510   4.072  17.885  0.00  0.00    +0.000 A 
ATOM     14  N   UNL     1       5.295   3.950  16.599  0.00  0.00    +0.000 NA
ATOM     15  C   UNL     1       6.496   4.340  16.050  0.00  0.00    +0.000 A 
ATOM     16  N   UNL     1       7.418   4.689  16.965  0.00  0.00    +0.000 NA
ATOM     17  O   UNL     1       6.764   4.511  18.184  0.00  0.00    +0.000 OA
BRANCH  15  18
ATOM     18  C   UNL     1       6.705   4.355  14.607  0.00  0.00    +0.000 A 
ATOM     19  C   UNL     1       7.648   5.231  14.047  0.00  0.00    +0.000 A 
ATOM     20  C   UNL     1       7.852   5.273  12.667  0.00  0.00    +0.000 A 
ATOM     21  C   UNL     1       7.113   4.436  11.832  0.00  0.00    +0.000 A 
ATOM     22  C   UNL     1       6.176   3.557  12.374  0.00  0.00    +0.000 A 
ATOM     23  C   UNL     1       5.972   3.516  13.756  0.00  0.00    +0.000 A 
ENDBRANCH  15  18
ENDBRANCH   4  13
TORSDOF 3
ENDMDL
MODEL 7
REMARK VINA RESULT:      -8.8      0.042      1.420
REMARK  Name = 
REMARK  3 active torsions:
REMARK  status: ('A' for Active; 'I' for Inactive)
REMARK    1  A    between atoms: C_4  and  C_5
REMARK    2  A    between atoms: C_7  and  C_8
REMARK    3  A    between atoms: N_17  and  C_18
REMARK                            x       y       z     vdW  Elec       q    Type
REMARK                         _______ _______ _______ _____ _____    ______ ____
ROOT
ATOM      1  O   UNL     1       1.432   4.387  17.509  0.00  0.00    +0.000 OA
ATOM      2  C   UNL     1       2.436   4.457  18.201  0.00  0.00    +0.000 C 
ATOM      3  C   UNL     1       3.279   3.245  18.528  0.00  0.00    +0.000 C 
ATOM      4  C   UNL     1       4.595   3.844  18.998  0.00  0.00    +0.000 C 
ATOM      5  C   UNL     1       4.166   5.166  19.617  0.00  0.00    +0.000 C 
ATOM      6  N   UNL     1       2.984   5.560  18.879  0.00  0.00    +0.000 N 
ENDROOT
BRANCH   6   7
ATOM      7  C   UNL     1       2.442   6.876  18.929  0.00  0.00    +0.000 A 
ATOM      8  C   UNL     1       2.442   7.718  17.810  0.00  0.00    +0.000 A 
ATOM      9  C   UNL     1       1.905   9.011  17.867  0.00  0.00    +0.000 A 
ATOM     10  C   UNL     1       1.364   9.492  19.053  0.00  0.00    +0.000 A 
ATOM     11  C   UNL     1       1.353   8.677  20.178  0.00  0.00    +0.000 A 
ATOM     12  C   UNL     1       1.881   7.381  20.114  0.00  0.00    +0.000 A 
ENDBRANCH   6   7
BRANCH   4  13
ATOM     13  C   UNL     1       5.520   4.084  17.861  0.00  0.00    +0.000 A 
ATOM     14  N   UNL     1       5.308   3.942  16.577  0.00  0.00    +0.000 NA
ATOM     15  C   UNL     1       6.499   4.353  16.022  0.00  0.00    +0.000 A 
ATOM     16  N   UNL     1       7.413   4.734  16.932  0.00  0.00    +0.000 NA
ATOM     17  O   UNL     1       6.764   4.556  18.153  0.00  0.00    +0.000 OA
BRANCH  15  18
ATOM     18  C   UNL     1       6.706   4.356  14.579  0.00  0.00    +0.000 A 
ATOM     19  C   UNL     1       7.643   5.233  14.009  0.00  0.00    +0.000 A 
ATOM     20  C   UNL     1       7.845   5.262  12.629  0.00  0.00    +0.000 A 
ATOM     21  C   UNL     1       7.111   4.412  11.802  0.00  0.00    +0.000 A 
ATOM     22  C   UNL     1       6.180   3.532  12.354  0.00  0.00    +0.000 A 
ATOM     23  C   UNL     1       5.978   3.503  13.736  0.00  0.00    +0.000 A 
ENDBRANCH  15  18
ENDBRANCH   4  13
TORSDOF 3
ENDMDL
MODEL 8
REMARK VINA RESULT:      -8.8      2.397      3.641
REMARK  Name = 
REMARK  3 active torsions:
REMARK  status: ('A' for Active; 'I' for Inactive)
REMARK    1  A    between atoms: C_4  and  C_5
REMARK    2  A    between atoms: C_7  and  C_8
REMARK    3  A    between atoms: N_17  and  C_18
REMARK                            x       y       z     vdW  Elec       q    Type
REMARK                         _______ _______ _______ _____ _____    ______ ____
ROOT
ATOM      1  O   UNL     1       6.028   4.390  19.709  0.00  0.00    +0.000 OA
ATOM      2  C   UNL     1       5.600   5.158  18.861  0.00  0.00    +0.000 C 
ATOM      3  C   UNL     1       6.433   6.290  18.303  0.00  0.00    +0.000 C 
ATOM      4  C   UNL     1       5.702   6.671  17.025  0.00  0.00    +0.000 C 
ATOM      5  C   UNL     1       4.253   6.341  17.350  0.00  0.00    +0.000 C 
ATOM      6  N   UNL     1       4.320   5.239  18.287  0.00  0.00    +0.000 N 
ENDROOT
BRANCH   6   7
ATOM      7  C   UNL     1       3.195   4.429  18.611  0.00  0.00    +0.000 A 
ATOM      8  C   UNL     1       2.346   4.738  19.681  0.00  0.00    +0.000 A 
ATOM      9  C   UNL     1       1.240   3.936  19.993  0.00  0.00    +0.000 A 
ATOM     10  C   UNL     1       0.966   2.799  19.241  0.00  0.00    +0.000 A 
ATOM     11  C   UNL     1       1.794   2.470  18.175  0.00  0.00    +0.000 A 
ATOM     12  C   UNL     1       2.892   3.280  17.860  0.00  0.00    +0.000 A 
ENDBRANCH   6   7
BRANCH   4  13
ATOM     13  C   UNL     1       6.168   5.862  15.869  0.00  0.00    +0.000 A 
ATOM     14  N   UNL     1       5.473   5.123  15.042  0.00  0.00    +0.000 NA
ATOM     15  C   UNL     1       6.429   4.663  14.165  0.00  0.00    +0.000 A 
ATOM     16  N   UNL     1       7.670   5.103  14.441  0.00  0.00    +0.000 NA
ATOM     17  O   UNL     1       7.498   5.899  15.574  0.00  0.00    +0.000 OA
BRANCH  15  18
ATOM     18  C   UNL     1       6.084   3.782  13.055  0.00  0.00    +0.000 A 
ATOM     19  C   UNL     1       7.079   2.996  12.452  0.00  0.00    +0.000 A 
ATOM     20  C   UNL     1       6.773   2.158  11.379  0.00  0.00    +0.000 A 
ATOM     21  C   UNL     1       5.466   2.098  10.897  0.00  0.00    +0.000 A 
ATOM     22  C   UNL     1       4.466   2.870  11.489  0.00  0.00    +0.000 A 
ATOM     23  C   UNL     1       4.773   3.708  12.563  0.00  0.00    +0.000 A 
ENDBRANCH  15  18
ENDBRANCH   4  13
TORSDOF 3
ENDMDL
MODEL 9
REMARK VINA RESULT:      -8.3      4.648      5.941
REMARK  Name = 
REMARK  3 active torsions:
REMARK  status: ('A' for Active; 'I' for Inactive)
REMARK    1  A    between atoms: C_4  and  C_5
REMARK    2  A    between atoms: C_7  and  C_8
REMARK    3  A    between atoms: N_17  and  C_18
REMARK                            x       y       z     vdW  Elec       q    Type
REMARK                         _______ _______ _______ _____ _____    ______ ____
ROOT
ATOM      1  O   UNL     1       4.835   4.610  16.313  0.00  0.00    +0.000 OA
ATOM      2  C   UNL     1       5.625   4.769  17.230  0.00  0.00    +0.000 C 
ATOM      3  C   UNL     1       7.122   4.720  17.024  0.00  0.00    +0.000 C 
ATOM      4  C   UNL     1       7.674   5.389  18.273  0.00  0.00    +0.000 C 
ATOM      5  C   UNL     1       6.632   5.052  19.329  0.00  0.00    +0.000 C 
ATOM      6  N   UNL     1       5.384   4.946  18.603  0.00  0.00    +0.000 N 
ENDROOT
BRANCH   6   7
ATOM      7  C   UNL     1       4.112   4.945  19.245  0.00  0.00    +0.000 A 
ATOM      8  C   UNL     1       3.553   3.774  19.773  0.00  0.00    +0.000 A 
ATOM      9  C   UNL     1       2.302   3.782  20.405  0.00  0.00    +0.000 A 
ATOM     10  C   UNL     1       1.580   4.965  20.513  0.00  0.00    +0.000 A 
ATOM     11  C   UNL     1       2.112   6.139  19.996  0.00  0.00    +0.000 A 
ATOM     12  C   UNL     1       3.368   6.130  19.375  0.00  0.00    +0.000 A 
ENDBRANCH   6   7
BRANCH   4  13
ATOM     13  C   UNL     1       7.777   6.861  18.102  0.00  0.00    +0.000 A 
ATOM     14  N   UNL     1       8.501   7.723  18.770  0.00  0.00    +0.000 NA
ATOM     15  C   UNL     1       8.222   8.913  18.136  0.00  0.00    +0.000 A 
ATOM     16  N   UNL     1       7.356   8.789  17.114  0.00  0.00    +0.000 NA
ATOM     17  O   UNL     1       7.060   7.426  17.091  0.00  0.00    +0.000 OA
BRANCH  15  18
ATOM     18  C   UNL     1       8.829  10.167  18.568  0.00  0.00    +0.000 A 
ATOM     19  C   UNL     1       9.467  10.241  19.816  0.00  0.00    +0.000 A 
ATOM     20  C   UNL     1      10.040  11.435  20.255  0.00  0.00    +0.000 A 
ATOM     21  C   UNL     1       9.981  12.570  19.447  0.00  0.00    +0.000 A 
ATOM     22  C   UNL     1       9.355  12.510  18.202  0.00  0.00    +0.000 A 
ATOM     23  C   UNL     1       8.782  11.314  17.764  0.00  0.00    +0.000 A 
ENDBRANCH  15  18
ENDBRANCH   4  13
TORSDOF 3
ENDMDL
