MODEL 1
REMARK VINA RESULT:      -7.1      0.000      0.000
REMARK  Name = 
REMARK  11 active torsions:
REMARK  status: ('A' for Active; 'I' for Inactive)
REMARK    1  A    between atoms: C_1  and  C_2
REMARK    2  A    between atoms: C_2  and  N_3
REMARK    3  A    between atoms: N_3  and  C_4
REMARK    4  A    between atoms: N_3  and  C_9
REMARK    5  A    between atoms: C_4  and  C_5
REMARK    6  A    between atoms: C_5  and  C_6
REMARK    7  A    between atoms: C_9  and  C_10
REMARK    8  A    between atoms: C_11  and  C_12
REMARK    9  A    between atoms: N_15  and  C_16
REMARK   10  A    between atoms: C_17  and  C_18
REMARK   11  A    between atoms: C_20  and  C_21
REMARK                            x       y       z     vdW  Elec       q    Type
REMARK                         _______ _______ _______ _____ _____    ______ ____
ROOT
ATOM      1  C   UNL     1       6.075   5.702  16.996  0.00  0.00    +0.000 A 
ATOM      2  C   UNL     1       6.365   6.989  17.444  0.00  0.00    +0.000 A 
ATOM      3  C   UNL     1       7.631   7.749  17.308  0.00  0.00    +0.000 C 
ATOM      4  N   UNL     1       5.270   7.562  18.081  0.00  0.00    +0.000 NA
ATOM      5  C   UNL     1       4.354   6.620  18.100  0.00  0.00    +0.000 A 
ATOM      6  N   UNL     1       3.087   6.397  18.578  0.00  0.00    +0.000 N 
ATOM      7  C   UNL     1       2.784   5.011  18.197  0.00  0.00    +0.000 A 
ATOM      8  N   UNL     1       1.694   4.266  18.434  0.00  0.00    +0.000 NA
ATOM      9  C   UNL     1       1.687   3.024  17.879  0.00  0.00    +0.000 A 
ATOM     10  C   UNL     1       2.745   2.460  17.161  0.00  0.00    +0.000 A 
ATOM     11  C   UNL     1       3.903   3.206  16.977  0.00  0.00    +0.000 A 
ATOM     12  C   UNL     1       3.877   4.482  17.492  0.00  0.00    +0.000 A 
ATOM     13  N   UNL     1       4.815   5.489  17.466  0.00  0.00    +0.000 N 
ENDROOT
BRANCH   6  14
ATOM     14  C   UNL     1       2.236   7.289  19.300  0.00  0.00    +0.000 A 
ATOM     15  C   UNL     1       1.803   8.541  18.779  0.00  0.00    +0.000 A 
ATOM     16  C   UNL     1       2.088   9.081  17.401  0.00  0.00    +0.000 C 
ATOM     17  C   UNL     1       1.030   9.426  19.580  0.00  0.00    +0.000 A 
ATOM     18  C   UNL     1       0.688   9.132  20.897  0.00  0.00    +0.000 A 
ATOM     19  C   UNL     1      -0.108  10.095  21.728  0.00  0.00    +0.000 C 
ATOM     20  C   UNL     1       1.082   7.907  21.412  0.00  0.00    +0.000 A 
ATOM     21  C   UNL     1       1.802   6.988  20.625  0.00  0.00    +0.000 A 
ATOM     22 CL   UNL     1       1.946   5.410  21.348  0.00  0.00    +0.000 Cl
ENDBRANCH   6  14
BRANCH   1  23
ATOM     23  C   UNL     1       6.858   4.739  16.179  0.00  0.00    +0.000 C 
BRANCH  23  24
ATOM     24  N   UNL     1       6.730   4.986  14.725  0.00  0.00    +0.000 NA
BRANCH  24  26
ATOM     25  C   UNL     1       8.105   5.543  12.667  0.00  0.00    +0.000 C 
ATOM     26  C   UNL     1       7.980   5.569  14.184  0.00  0.00    +0.000 C 
ENDBRANCH  24  26
BRANCH  24  27
ATOM     27  C   UNL     1       6.360   3.744  14.006  0.00  0.00    +0.000 C 
BRANCH  27  28
ATOM     28  C   UNL     1       4.976   3.778  13.323  0.00  0.00    +0.000 C 
BRANCH  28  29
ATOM     29  C   UNL     1       5.072   3.562  11.838  0.00  0.00    +0.000 C 
ATOM     30  C   UNL     1       5.120   2.170  11.261  0.00  0.00    +0.000 C 
ATOM     31  C   UNL     1       3.888   3.010  11.081  0.00  0.00    +0.000 C 
ENDBRANCH  28  29
ENDBRANCH  27  28
ENDBRANCH  24  27
ENDBRANCH  23  24
ENDBRANCH   1  23
TORSDOF 7
ENDMDL
MODEL 2
REMARK VINA RESULT:      -6.8      2.191      8.497
REMARK  Name = 
REMARK  11 active torsions:
REMARK  status: ('A' for Active; 'I' for Inactive)
REMARK    1  A    between atoms: C_1  and  C_2
REMARK    2  A    between atoms: C_2  and  N_3
REMARK    3  A    between atoms: N_3  and  C_4
REMARK    4  A    between atoms: N_3  and  C_9
REMARK    5  A    between atoms: C_4  and  C_5
REMARK    6  A    between atoms: C_5  and  C_6
REMARK    7  A    between atoms: C_9  and  C_10
REMARK    8  A    between atoms: C_11  and  C_12
REMARK    9  A    between atoms: N_15  and  C_16
REMARK   10  A    between atoms: C_17  and  C_18
REMARK   11  A    between atoms: C_20  and  C_21
REMARK                            x       y       z     vdW  Elec       q    Type
REMARK                         _______ _______ _______ _____ _____    ______ ____
ROOT
ATOM      1  C   UNL     1       1.948   8.018  19.557  0.00  0.00    +0.000 A 
ATOM      2  C   UNL     1       2.347   8.751  18.441  0.00  0.00    +0.000 A 
ATOM      3  C   UNL     1       1.951  10.126  18.051  0.00  0.00    +0.000 C 
ATOM      4  N   UNL     1       3.234   8.028  17.652  0.00  0.00    +0.000 NA
ATOM      5  C   UNL     1       3.315   6.847  18.222  0.00  0.00    +0.000 A 
ATOM      6  N   UNL     1       3.907   5.625  18.026  0.00  0.00    +0.000 N 
ATOM      7  C   UNL     1       3.434   4.798  19.145  0.00  0.00    +0.000 A 
ATOM      8  N   UNL     1       3.677   3.511  19.433  0.00  0.00    +0.000 NA
ATOM      9  C   UNL     1       3.144   3.049  20.596  0.00  0.00    +0.000 A 
ATOM     10  C   UNL     1       2.318   3.786  21.448  0.00  0.00    +0.000 A 
ATOM     11  C   UNL     1       2.008   5.098  21.112  0.00  0.00    +0.000 A 
ATOM     12  C   UNL     1       2.600   5.574  19.965  0.00  0.00    +0.000 A 
ATOM     13  N   UNL     1       2.544   6.811  19.362  0.00  0.00    +0.000 N 
ENDROOT
BRANCH   6  14
ATOM     14  C   UNL     1       4.781   5.216  16.972  0.00  0.00    +0.000 A 
ATOM     15  C   UNL     1       6.052   5.813  16.741  0.00  0.00    +0.000 A 
ATOM     16  C   UNL     1       6.704   6.878  17.585  0.00  0.00    +0.000 C 
ATOM     17  C   UNL     1       6.838   5.424  15.622  0.00  0.00    +0.000 A 
ATOM     18  C   UNL     1       6.401   4.480  14.697  0.00  0.00    +0.000 A 
ATOM     19  C   UNL     1       7.240   4.106  13.510  0.00  0.00    +0.000 C 
ATOM     20  C   UNL     1       5.176   3.872  14.919  0.00  0.00    +0.000 A 
ATOM     21  C   UNL     1       4.399   4.198  16.048  0.00  0.00    +0.000 A 
ATOM     22 CL   UNL     1       3.049   3.128  16.301  0.00  0.00    +0.000 Cl
ENDBRANCH   6  14
BRANCH   1  23
ATOM     23  C   UNL     1       1.115   8.381  20.733  0.00  0.00    +0.000 C 
BRANCH  23  24
ATOM     24  N   UNL     1       0.482   9.712  20.597  0.00  0.00    +0.000 NA
BRANCH  24  26
ATOM     25  C   UNL     1      -1.310  10.426  18.948  0.00  0.00    +0.000 C 
ATOM     26  C   UNL     1      -0.925   9.577  20.152  0.00  0.00    +0.000 C 
ENDBRANCH  24  26
BRANCH  24  27
ATOM     27  C   UNL     1       0.575  10.478  21.863  0.00  0.00    +0.000 C 
BRANCH  27  28
ATOM     28  C   UNL     1      -0.704  10.461  22.727  0.00  0.00    +0.000 C 
BRANCH  28  29
ATOM     29  C   UNL     1      -1.222  11.846  22.998  0.00  0.00    +0.000 C 
ATOM     30  C   UNL     1      -2.077  12.563  21.984  0.00  0.00    +0.000 C 
ATOM     31  C   UNL     1      -2.693  12.060  23.258  0.00  0.00    +0.000 C 
ENDBRANCH  28  29
ENDBRANCH  27  28
ENDBRANCH  24  27
ENDBRANCH  23  24
ENDBRANCH   1  23
TORSDOF 7
ENDMDL
MODEL 3
REMARK VINA RESULT:      -6.6      3.809      6.858
REMARK  Name = 
REMARK  11 active torsions:
REMARK  status: ('A' for Active; 'I' for Inactive)
REMARK    1  A    between atoms: C_1  and  C_2
REMARK    2  A    between atoms: C_2  and  N_3
REMARK    3  A    between atoms: N_3  and  C_4
REMARK    4  A    between atoms: N_3  and  C_9
REMARK    5  A    between atoms: C_4  and  C_5
REMARK    6  A    between atoms: C_5  and  C_6
REMARK    7  A    between atoms: C_9  and  C_10
REMARK    8  A    between atoms: C_11  and  C_12
REMARK    9  A    between atoms: N_15  and  C_16
REMARK   10  A    between atoms: C_17  and  C_18
REMARK   11  A    between atoms: C_20  and  C_21
REMARK                            x       y       z     vdW  Elec       q    Type
REMARK                         _______ _______ _______ _____ _____    ______ ____
ROOT
ATOM      1  C   UNL     1       1.842   8.230  19.453  0.00  0.00    +0.000 A 
ATOM      2  C   UNL     1       2.398   8.794  18.307  0.00  0.00    +0.000 A 
ATOM      3  C   UNL     1       3.241   8.144  17.275  0.00  0.00    +0.000 C 
ATOM      4  N   UNL     1       2.064  10.138  18.192  0.00  0.00    +0.000 NA
ATOM      5  C   UNL     1       1.388  10.418  19.284  0.00  0.00    +0.000 A 
ATOM      6  N   UNL     1       0.797  11.488  19.907  0.00  0.00    +0.000 N 
ATOM      7  C   UNL     1       0.274  10.942  21.167  0.00  0.00    +0.000 A 
ATOM      8  N   UNL     1      -0.371  11.551  22.173  0.00  0.00    +0.000 NA
ATOM      9  C   UNL     1      -0.796  10.746  23.184  0.00  0.00    +0.000 A 
ATOM     10  C   UNL     1      -0.544   9.375  23.277  0.00  0.00    +0.000 A 
ATOM     11  C   UNL     1       0.187   8.757  22.270  0.00  0.00    +0.000 A 
ATOM     12  C   UNL     1       0.561   9.569  21.224  0.00  0.00    +0.000 A 
ATOM     13  N   UNL     1       1.250   9.293  20.063  0.00  0.00    +0.000 N 
ENDROOT
BRANCH   6  14
ATOM     14  C   UNL     1       0.707  12.843  19.462  0.00  0.00    +0.000 A 
ATOM     15  C   UNL     1       1.657  13.841  19.815  0.00  0.00    +0.000 A 
ATOM     16  C   UNL     1       2.916  13.630  20.618  0.00  0.00    +0.000 C 
ATOM     17  C   UNL     1       1.466  15.191  19.416  0.00  0.00    +0.000 A 
ATOM     18  C   UNL     1       0.347  15.605  18.698  0.00  0.00    +0.000 A 
ATOM     19  C   UNL     1       0.158  17.042  18.310  0.00  0.00    +0.000 C 
ATOM     20  C   UNL     1      -0.577  14.642  18.326  0.00  0.00    +0.000 A 
ATOM     21  C   UNL     1      -0.387  13.287  18.661  0.00  0.00    +0.000 A 
ATOM     22 CL   UNL     1      -1.493  12.206  17.860  0.00  0.00    +0.000 Cl
ENDBRANCH   6  14
BRANCH   1  23
ATOM     23  C   UNL     1       1.815   6.831  19.955  0.00  0.00    +0.000 C 
BRANCH  23  24
ATOM     24  N   UNL     1       2.518   5.888  19.056  0.00  0.00    +0.000 NA
BRANCH  24  26
ATOM     25  C   UNL     1       4.990   5.318  19.008  0.00  0.00    +0.000 C 
ATOM     26  C   UNL     1       3.664   5.259  19.754  0.00  0.00    +0.000 C 
ENDBRANCH  24  26
BRANCH  24  27
ATOM     27  C   UNL     1       1.585   4.866  18.524  0.00  0.00    +0.000 C 
BRANCH  27  28
ATOM     28  C   UNL     1       1.491   3.574  19.362  0.00  0.00    +0.000 C 
BRANCH  28  29
ATOM     29  C   UNL     1       1.754   2.344  18.537  0.00  0.00    +0.000 C 
ATOM     30  C   UNL     1       2.725   2.379  17.385  0.00  0.00    +0.000 C 
ATOM     31  C   UNL     1       3.084   1.639  18.642  0.00  0.00    +0.000 C 
ENDBRANCH  28  29
ENDBRANCH  27  28
ENDBRANCH  24  27
ENDBRANCH  23  24
ENDBRANCH   1  23
TORSDOF 7
ENDMDL
MODEL 4
REMARK VINA RESULT:      -6.6      4.068      7.097
REMARK  Name = 
REMARK  11 active torsions:
REMARK  status: ('A' for Active; 'I' for Inactive)
REMARK    1  A    between atoms: C_1  and  C_2
REMARK    2  A    between atoms: C_2  and  N_3
REMARK    3  A    between atoms: N_3  and  C_4
REMARK    4  A    between atoms: N_3  and  C_9
REMARK    5  A    between atoms: C_4  and  C_5
REMARK    6  A    between atoms: C_5  and  C_6
REMARK    7  A    between atoms: C_9  and  C_10
REMARK    8  A    between atoms: C_11  and  C_12
REMARK    9  A    between atoms: N_15  and  C_16
REMARK   10  A    between atoms: C_17  and  C_18
REMARK   11  A    between atoms: C_20  and  C_21
REMARK                            x       y       z     vdW  Elec       q    Type
REMARK                         _______ _______ _______ _____ _____    ______ ____
ROOT
ATOM      1  C   UNL     1       1.894   8.136  19.368  0.00  0.00    +0.000 A 
ATOM      2  C   UNL     1       2.435   8.732  18.231  0.00  0.00    +0.000 A 
ATOM      3  C   UNL     1       3.257   8.108  17.166  0.00  0.00    +0.000 C 
ATOM      4  N   UNL     1       2.107  10.081  18.162  0.00  0.00    +0.000 NA
ATOM      5  C   UNL     1       1.450  10.331  19.272  0.00  0.00    +0.000 A 
ATOM      6  N   UNL     1       0.876  11.384  19.937  0.00  0.00    +0.000 N 
ATOM      7  C   UNL     1       0.370  10.803  21.189  0.00  0.00    +0.000 A 
ATOM      8  N   UNL     1      -0.255  11.385  22.223  0.00  0.00    +0.000 NA
ATOM      9  C   UNL     1      -0.669  10.552  23.216  0.00  0.00    +0.000 A 
ATOM     10  C   UNL     1      -0.424   9.178  23.263  0.00  0.00    +0.000 A 
ATOM     11  C   UNL     1       0.287   8.587  22.226  0.00  0.00    +0.000 A 
ATOM     12  C   UNL     1       0.650   9.428  21.199  0.00  0.00    +0.000 A 
ATOM     13  N   UNL     1       1.318   9.183  20.020  0.00  0.00    +0.000 N 
ENDROOT
BRANCH   6  14
ATOM     14  C   UNL     1       0.787  12.752  19.535  0.00  0.00    +0.000 A 
ATOM     15  C   UNL     1      -0.260  13.252  18.710  0.00  0.00    +0.000 A 
ATOM     16  C   UNL     1      -1.450  12.475  18.209  0.00  0.00    +0.000 C 
ATOM     17  C   UNL     1      -0.246  14.604  18.269  0.00  0.00    +0.000 A 
ATOM     18  C   UNL     1       0.785  15.482  18.590  0.00  0.00    +0.000 A 
ATOM     19  C   UNL     1       0.788  16.897  18.090  0.00  0.00    +0.000 C 
ATOM     20  C   UNL     1       1.800  15.018  19.411  0.00  0.00    +0.000 A 
ATOM     21  C   UNL     1       1.786  13.700  19.908  0.00  0.00    +0.000 A 
ATOM     22 CL   UNL     1       2.978  13.404  21.142  0.00  0.00    +0.000 Cl
ENDBRANCH   6  14
BRANCH   1  23
ATOM     23  C   UNL     1       1.866   6.723  19.827  0.00  0.00    +0.000 C 
BRANCH  23  24
ATOM     24  N   UNL     1       2.671   5.827  18.967  0.00  0.00    +0.000 NA
BRANCH  24  26
ATOM     25  C   UNL     1       4.886   4.598  18.815  0.00  0.00    +0.000 C 
ATOM     26  C   UNL     1       3.996   5.569  19.579  0.00  0.00    +0.000 C 
ENDBRANCH  24  26
BRANCH  24  27
ATOM     27  C   UNL     1       1.949   4.561  18.695  0.00  0.00    +0.000 C 
BRANCH  27  28
ATOM     28  C   UNL     1       1.023   4.084  19.834  0.00  0.00    +0.000 C 
BRANCH  28  29
ATOM     29  C   UNL     1       1.462   2.764  20.404  0.00  0.00    +0.000 C 
ATOM     30  C   UNL     1       2.735   2.653  21.204  0.00  0.00    +0.000 C 
ATOM     31  C   UNL     1       1.407   2.535  21.896  0.00  0.00    +0.000 C 
ENDBRANCH  28  29
ENDBRANCH  27  28
ENDBRANCH  24  27
ENDBRANCH  23  24
ENDBRANCH   1  23
TORSDOF 7
ENDMDL
MODEL 5
REMARK VINA RESULT:      -6.6      4.018      7.146
REMARK  Name = 
REMARK  11 active torsions:
REMARK  status: ('A' for Active; 'I' for Inactive)
REMARK    1  A    between atoms: C_1  and  C_2
REMARK    2  A    between atoms: C_2  and  N_3
REMARK    3  A    between atoms: N_3  and  C_4
REMARK    4  A    between atoms: N_3  and  C_9
REMARK    5  A    between atoms: C_4  and  C_5
REMARK    6  A    between atoms: C_5  and  C_6
REMARK    7  A    between atoms: C_9  and  C_10
REMARK    8  A    between atoms: C_11  and  C_12
REMARK    9  A    between atoms: N_15  and  C_16
REMARK   10  A    between atoms: C_17  and  C_18
REMARK   11  A    between atoms: C_20  and  C_21
REMARK                            x       y       z     vdW  Elec       q    Type
REMARK                         _______ _______ _______ _____ _____    ______ ____
ROOT
ATOM      1  C   UNL     1       1.859   8.188  19.407  0.00  0.00    +0.000 A 
ATOM      2  C   UNL     1       2.311   8.753  18.216  0.00  0.00    +0.000 A 
ATOM      3  C   UNL     1       3.122   8.124  17.146  0.00  0.00    +0.000 C 
ATOM      4  N   UNL     1       1.895  10.074  18.094  0.00  0.00    +0.000 NA
ATOM      5  C   UNL     1       1.275  10.343  19.221  0.00  0.00    +0.000 A 
ATOM      6  N   UNL     1       0.665  11.394  19.858  0.00  0.00    +0.000 N 
ATOM      7  C   UNL     1       0.253  10.852  21.160  0.00  0.00    +0.000 A 
ATOM      8  N   UNL     1      -0.361  11.449  22.192  0.00  0.00    +0.000 NA
ATOM      9  C   UNL     1      -0.677  10.647  23.244  0.00  0.00    +0.000 A 
ATOM     10  C   UNL     1      -0.344   9.295  23.350  0.00  0.00    +0.000 A 
ATOM     11  C   UNL     1       0.356   8.693  22.311  0.00  0.00    +0.000 A 
ATOM     12  C   UNL     1       0.619   9.498  21.226  0.00  0.00    +0.000 A 
ATOM     13  N   UNL     1       1.248   9.232  20.031  0.00  0.00    +0.000 N 
ENDROOT
BRANCH   6  14
ATOM     14  C   UNL     1       0.472  12.731  19.391  0.00  0.00    +0.000 A 
ATOM     15  C   UNL     1       1.548  13.629  19.143  0.00  0.00    +0.000 A 
ATOM     16  C   UNL     1       3.017  13.311  19.245  0.00  0.00    +0.000 C 
ATOM     17  C   UNL     1       1.290  14.975  18.765  0.00  0.00    +0.000 A 
ATOM     18  C   UNL     1      -0.002  15.482  18.650  0.00  0.00    +0.000 A 
ATOM     19  C   UNL     1      -0.246  16.914  18.274  0.00  0.00    +0.000 C 
ATOM     20  C   UNL     1      -1.061  14.615  18.865  0.00  0.00    +0.000 A 
ATOM     21  C   UNL     1      -0.836  13.262  19.188  0.00  0.00    +0.000 A 
ATOM     22 CL   UNL     1      -2.274  12.281  19.132  0.00  0.00    +0.000 Cl
ENDBRANCH   6  14
BRANCH   1  23
ATOM     23  C   UNL     1       1.941   6.802  19.938  0.00  0.00    +0.000 C 
BRANCH  23  24
ATOM     24  N   UNL     1       2.670   5.885  19.033  0.00  0.00    +0.000 NA
BRANCH  24  26
ATOM     25  C   UNL     1       4.936   4.816  18.632  0.00  0.00    +0.000 C 
ATOM     26  C   UNL     1       4.014   5.577  19.575  0.00  0.00    +0.000 C 
ENDBRANCH  24  26
BRANCH  24  27
ATOM     27  C   UNL     1       1.891   4.648  18.790  0.00  0.00    +0.000 C 
BRANCH  27  28
ATOM     28  C   UNL     1       0.999   4.200  19.968  0.00  0.00    +0.000 C 
BRANCH  28  29
ATOM     29  C   UNL     1       1.372   2.834  20.473  0.00  0.00    +0.000 C 
ATOM     30  C   UNL     1       2.757   2.556  20.998  0.00  0.00    +0.000 C 
ATOM     31  C   UNL     1       1.598   2.615  21.950  0.00  0.00    +0.000 C 
ENDBRANCH  28  29
ENDBRANCH  27  28
ENDBRANCH  24  27
ENDBRANCH  23  24
ENDBRANCH   1  23
TORSDOF 7
ENDMDL
MODEL 6
REMARK VINA RESULT:      -6.3      5.599     11.058
REMARK  Name = 
REMARK  11 active torsions:
REMARK  status: ('A' for Active; 'I' for Inactive)
REMARK    1  A    between atoms: C_1  and  C_2
REMARK    2  A    between atoms: C_2  and  N_3
REMARK    3  A    between atoms: N_3  and  C_4
REMARK    4  A    between atoms: N_3  and  C_9
REMARK    5  A    between atoms: C_4  and  C_5
REMARK    6  A    between atoms: C_5  and  C_6
REMARK    7  A    between atoms: C_9  and  C_10
REMARK    8  A    between atoms: C_11  and  C_12
REMARK    9  A    between atoms: N_15  and  C_16
REMARK   10  A    between atoms: C_17  and  C_18
REMARK   11  A    between atoms: C_20  and  C_21
REMARK                            x       y       z     vdW  Elec       q    Type
REMARK                         _______ _______ _______ _____ _____    ______ ____
ROOT
ATOM      1  C   UNL     1      -1.830  13.386  20.927  0.00  0.00    +0.000 A 
ATOM      2  C   UNL     1      -0.720  13.298  21.765  0.00  0.00    +0.000 A 
ATOM      3  C   UNL     1      -0.250  14.274  22.777  0.00  0.00    +0.000 C 
ATOM      4  N   UNL     1      -0.027  12.110  21.563  0.00  0.00    +0.000 NA
ATOM      5  C   UNL     1      -0.646  11.517  20.567  0.00  0.00    +0.000 A 
ATOM      6  N   UNL     1      -0.541  10.396  19.784  0.00  0.00    +0.000 N 
ATOM      7  C   UNL     1      -1.652  10.502  18.828  0.00  0.00    +0.000 A 
ATOM      8  N   UNL     1      -2.006   9.695  17.818  0.00  0.00    +0.000 NA
ATOM      9  C   UNL     1      -3.144  10.033  17.153  0.00  0.00    +0.000 A 
ATOM     10  C   UNL     1      -3.903  11.180  17.397  0.00  0.00    +0.000 A 
ATOM     11  C   UNL     1      -3.495  12.055  18.396  0.00  0.00    +0.000 A 
ATOM     12  C   UNL     1      -2.378  11.673  19.101  0.00  0.00    +0.000 A 
ATOM     13  N   UNL     1      -1.726  12.267  20.159  0.00  0.00    +0.000 N 
ENDROOT
BRANCH   6  14
ATOM     14  C   UNL     1       0.429   9.348  19.851  0.00  0.00    +0.000 A 
ATOM     15  C   UNL     1       1.429   9.153  18.858  0.00  0.00    +0.000 A 
ATOM     16  C   UNL     1       1.680  10.031  17.659  0.00  0.00    +0.000 C 
ATOM     17  C   UNL     1       2.310   8.040  18.932  0.00  0.00    +0.000 A 
ATOM     18  C   UNL     1       2.223   7.086  19.943  0.00  0.00    +0.000 A 
ATOM     19  C   UNL     1       3.149   5.907  19.985  0.00  0.00    +0.000 C 
ATOM     20  C   UNL     1       1.269   7.274  20.931  0.00  0.00    +0.000 A 
ATOM     21  C   UNL     1       0.418   8.396  20.913  0.00  0.00    +0.000 A 
ATOM     22 CL   UNL     1      -0.500   8.602  22.379  0.00  0.00    +0.000 Cl
ENDBRANCH   6  14
BRANCH   1  23
ATOM     23  C   UNL     1      -2.927  14.385  20.839  0.00  0.00    +0.000 C 
BRANCH  23  24
ATOM     24  N   UNL     1      -4.195  13.896  21.425  0.00  0.00    +0.000 NA
BRANCH  24  26
ATOM     25  C   UNL     1      -3.843  15.573  23.296  0.00  0.00    +0.000 C 
ATOM     26  C   UNL     1      -4.232  14.160  22.883  0.00  0.00    +0.000 C 
ENDBRANCH  24  26
BRANCH  24  27
ATOM     27  C   UNL     1      -5.364  14.496  20.739  0.00  0.00    +0.000 C 
BRANCH  27  28
ATOM     28  C   UNL     1      -6.664  13.668  20.827  0.00  0.00    +0.000 C 
BRANCH  28  29
ATOM     29  C   UNL     1      -6.414  12.200  20.624  0.00  0.00    +0.000 C 
ATOM     30  C   UNL     1      -7.480  11.183  20.941  0.00  0.00    +0.000 C 
ATOM     31  C   UNL     1      -7.120  11.464  19.511  0.00  0.00    +0.000 C 
ENDBRANCH  28  29
ENDBRANCH  27  28
ENDBRANCH  24  27
ENDBRANCH  23  24
ENDBRANCH   1  23
TORSDOF 7
ENDMDL
MODEL 7
REMARK VINA RESULT:      -6.2      5.428     10.818
REMARK  Name = 
REMARK  11 active torsions:
REMARK  status: ('A' for Active; 'I' for Inactive)
REMARK    1  A    between atoms: C_1  and  C_2
REMARK    2  A    between atoms: C_2  and  N_3
REMARK    3  A    between atoms: N_3  and  C_4
REMARK    4  A    between atoms: N_3  and  C_9
REMARK    5  A    between atoms: C_4  and  C_5
REMARK    6  A    between atoms: C_5  and  C_6
REMARK    7  A    between atoms: C_9  and  C_10
REMARK    8  A    between atoms: C_11  and  C_12
REMARK    9  A    between atoms: N_15  and  C_16
REMARK   10  A    between atoms: C_17  and  C_18
REMARK   11  A    between atoms: C_20  and  C_21
REMARK                            x       y       z     vdW  Elec       q    Type
REMARK                         _______ _______ _______ _____ _____    ______ ____
ROOT
ATOM      1  C   UNL     1      -0.209  13.781  20.456  0.00  0.00    +0.000 A 
ATOM      2  C   UNL     1       1.036  13.594  21.053  0.00  0.00    +0.000 A 
ATOM      3  C   UNL     1       1.900  14.599  21.719  0.00  0.00    +0.000 C 
ATOM      4  N   UNL     1       1.439  12.266  20.975  0.00  0.00    +0.000 NA
ATOM      5  C   UNL     1       0.505  11.665  20.273  0.00  0.00    +0.000 A 
ATOM      6  N   UNL     1       0.220  10.432  19.744  0.00  0.00    +0.000 N 
ATOM      7  C   UNL     1      -1.050  10.618  19.029  0.00  0.00    +0.000 A 
ATOM      8  N   UNL     1      -1.773   9.750  18.307  0.00  0.00    +0.000 NA
ATOM      9  C   UNL     1      -2.958  10.213  17.826  0.00  0.00    +0.000 A 
ATOM     10  C   UNL     1      -3.423  11.524  17.966  0.00  0.00    +0.000 A 
ATOM     11  C   UNL     1      -2.639  12.443  18.653  0.00  0.00    +0.000 A 
ATOM     12  C   UNL     1      -1.471  11.948  19.185  0.00  0.00    +0.000 A 
ATOM     13  N   UNL     1      -0.491  12.554  19.939  0.00  0.00    +0.000 N 
ENDROOT
BRANCH   6  14
ATOM     14  C   UNL     1       0.977   9.224  19.837  0.00  0.00    +0.000 A 
ATOM     15  C   UNL     1       1.833   8.762  18.798  0.00  0.00    +0.000 A 
ATOM     16  C   UNL     1       2.140   9.480  17.509  0.00  0.00    +0.000 C 
ATOM     17  C   UNL     1       2.491   7.507  18.911  0.00  0.00    +0.000 A 
ATOM     18  C   UNL     1       2.313   6.669  20.008  0.00  0.00    +0.000 A 
ATOM     19  C   UNL     1       3.000   5.337  20.092  0.00  0.00    +0.000 C 
ATOM     20  C   UNL     1       1.501   7.113  21.039  0.00  0.00    +0.000 A 
ATOM     21  C   UNL     1       0.879   8.375  20.979  0.00  0.00    +0.000 A 
ATOM     22 CL   UNL     1       0.147   8.867  22.481  0.00  0.00    +0.000 Cl
ENDBRANCH   6  14
BRANCH   1  23
ATOM     23  C   UNL     1      -1.100  14.968  20.377  0.00  0.00    +0.000 C 
BRANCH  23  24
ATOM     24  N   UNL     1      -1.792  15.250  21.656  0.00  0.00    +0.000 NA
BRANCH  24  26
ATOM     25  C   UNL     1      -0.868  17.291  22.847  0.00  0.00    +0.000 C 
ATOM     26  C   UNL     1      -1.894  16.710  21.883  0.00  0.00    +0.000 C 
ENDBRANCH  24  26
BRANCH  24  27
ATOM     27  C   UNL     1      -3.126  14.605  21.692  0.00  0.00    +0.000 C 
BRANCH  27  28
ATOM     28  C   UNL     1      -3.131  13.154  22.219  0.00  0.00    +0.000 C 
BRANCH  28  29
ATOM     29  C   UNL     1      -2.987  13.095  23.714  0.00  0.00    +0.000 C 
ATOM     30  C   UNL     1      -3.692  14.091  24.599  0.00  0.00    +0.000 C 
ATOM     31  C   UNL     1      -4.157  12.663  24.566  0.00  0.00    +0.000 C 
ENDBRANCH  28  29
ENDBRANCH  27  28
ENDBRANCH  24  27
ENDBRANCH  23  24
ENDBRANCH   1  23
TORSDOF 7
ENDMDL
MODEL 8
REMARK VINA RESULT:      -6.2      6.157     10.599
REMARK  Name = 
REMARK  11 active torsions:
REMARK  status: ('A' for Active; 'I' for Inactive)
REMARK    1  A    between atoms: C_1  and  C_2
REMARK    2  A    between atoms: C_2  and  N_3
REMARK    3  A    between atoms: N_3  and  C_4
REMARK    4  A    between atoms: N_3  and  C_9
REMARK    5  A    between atoms: C_4  and  C_5
REMARK    6  A    between atoms: C_5  and  C_6
REMARK    7  A    between atoms: C_9  and  C_10
REMARK    8  A    between atoms: C_11  and  C_12
REMARK    9  A    between atoms: N_15  and  C_16
REMARK   10  A    between atoms: C_17  and  C_18
REMARK   11  A    between atoms: C_20  and  C_21
REMARK                            x       y       z     vdW  Elec       q    Type
REMARK                         _______ _______ _______ _____ _____    ______ ____
ROOT
ATOM      1  C   UNL     1      -0.818  12.352  19.245  0.00  0.00    +0.000 A 
ATOM      2  C   UNL     1      -0.059  13.123  20.124  0.00  0.00    +0.000 A 
ATOM      3  C   UNL     1       1.417  13.195  20.249  0.00  0.00    +0.000 C 
ATOM      4  N   UNL     1      -0.869  13.897  20.946  0.00  0.00    +0.000 NA
ATOM      5  C   UNL     1      -2.099  13.550  20.640  0.00  0.00    +0.000 A 
ATOM      6  N   UNL     1      -3.390  13.806  21.028  0.00  0.00    +0.000 N 
ATOM      7  C   UNL     1      -4.214  12.939  20.176  0.00  0.00    +0.000 A 
ATOM      8  N   UNL     1      -5.544  12.763  20.148  0.00  0.00    +0.000 NA
ATOM      9  C   UNL     1      -6.016  11.933  19.180  0.00  0.00    +0.000 A 
ATOM     10  C   UNL     1      -5.222  11.209  18.287  0.00  0.00    +0.000 A 
ATOM     11  C   UNL     1      -3.840  11.336  18.363  0.00  0.00    +0.000 A 
ATOM     12  C   UNL     1      -3.376  12.223  19.307  0.00  0.00    +0.000 A 
ATOM     13  N   UNL     1      -2.096  12.616  19.629  0.00  0.00    +0.000 N 
ENDROOT
BRANCH   6  14
ATOM     14  C   UNL     1      -3.857  14.700  22.041  0.00  0.00    +0.000 A 
ATOM     15  C   UNL     1      -4.336  16.010  21.759  0.00  0.00    +0.000 A 
ATOM     16  C   UNL     1      -4.507  16.623  20.393  0.00  0.00    +0.000 C 
ATOM     17  C   UNL     1      -4.703  16.886  22.817  0.00  0.00    +0.000 A 
ATOM     18  C   UNL     1      -4.587  16.525  24.157  0.00  0.00    +0.000 A 
ATOM     19  C   UNL     1      -4.957  17.478  25.255  0.00  0.00    +0.000 C 
ATOM     20  C   UNL     1      -4.143  15.245  24.448  0.00  0.00    +0.000 A 
ATOM     21  C   UNL     1      -3.823  14.337  23.420  0.00  0.00    +0.000 A 
ATOM     22 CL   UNL     1      -3.570  12.708  23.979  0.00  0.00    +0.000 Cl
ENDBRANCH   6  14
BRANCH   1  23
ATOM     23  C   UNL     1      -0.428  11.463  18.120  0.00  0.00    +0.000 C 
BRANCH  23  24
ATOM     24  N   UNL     1      -0.065  10.100  18.567  0.00  0.00    +0.000 NA
BRANCH  24  26
ATOM     25  C   UNL     1       1.960   8.813  17.742  0.00  0.00    +0.000 C 
ATOM     26  C   UNL     1       1.407   9.938  18.605  0.00  0.00    +0.000 C 
ENDBRANCH  24  26
BRANCH  24  27
ATOM     27  C   UNL     1      -0.675   9.791  19.882  0.00  0.00    +0.000 C 
BRANCH  27  28
ATOM     28  C   UNL     1       0.297   9.201  20.926  0.00  0.00    +0.000 C 
BRANCH  28  29
ATOM     29  C   UNL     1       0.390  10.056  22.159  0.00  0.00    +0.000 C 
ATOM     30  C   UNL     1      -0.853  10.555  22.849  0.00  0.00    +0.000 C 
ATOM     31  C   UNL     1      -0.017   9.490  23.498  0.00  0.00    +0.000 C 
ENDBRANCH  28  29
ENDBRANCH  27  28
ENDBRANCH  24  27
ENDBRANCH  23  24
ENDBRANCH   1  23
TORSDOF 7
ENDMDL
MODEL 9
REMARK VINA RESULT:      -6.2      3.860      6.804
REMARK  Name = 
REMARK  11 active torsions:
REMARK  status: ('A' for Active; 'I' for Inactive)
REMARK    1  A    between atoms: C_1  and  C_2
REMARK    2  A    between atoms: C_2  and  N_3
REMARK    3  A    between atoms: N_3  and  C_4
REMARK    4  A    between atoms: N_3  and  C_9
REMARK    5  A    between atoms: C_4  and  C_5
REMARK    6  A    between atoms: C_5  and  C_6
REMARK    7  A    between atoms: C_9  and  C_10
REMARK    8  A    between atoms: C_11  and  C_12
REMARK    9  A    between atoms: N_15  and  C_16
REMARK   10  A    between atoms: C_17  and  C_18
REMARK   11  A    between atoms: C_20  and  C_21
REMARK                            x       y       z     vdW  Elec       q    Type
REMARK                         _______ _______ _______ _____ _____    ______ ____
ROOT
ATOM      1  C   UNL     1       1.723   8.252  19.345  0.00  0.00    +0.000 A 
ATOM      2  C   UNL     1       2.316   8.830  18.224  0.00  0.00    +0.000 A 
ATOM      3  C   UNL     1       3.131   8.176  17.172  0.00  0.00    +0.000 C 
ATOM      4  N   UNL     1       2.053  10.193  18.159  0.00  0.00    +0.000 NA
ATOM      5  C   UNL     1       1.384  10.466  19.257  0.00  0.00    +0.000 A 
ATOM      6  N   UNL     1       0.845  11.540  19.918  0.00  0.00    +0.000 N 
ATOM      7  C   UNL     1       0.285  10.974  21.153  0.00  0.00    +0.000 A 
ATOM      8  N   UNL     1      -0.335  11.577  22.179  0.00  0.00    +0.000 NA
ATOM      9  C   UNL     1      -0.809  10.757  23.155  0.00  0.00    +0.000 A 
ATOM     10  C   UNL     1      -0.629   9.372  23.197  0.00  0.00    +0.000 A 
ATOM     11  C   UNL     1       0.076   8.756  22.170  0.00  0.00    +0.000 A 
ATOM     12  C   UNL     1       0.500   9.587  21.158  0.00  0.00    +0.000 A 
ATOM     13  N   UNL     1       1.182   9.320  19.992  0.00  0.00    +0.000 N 
ENDROOT
BRANCH   6  14
ATOM     14  C   UNL     1       0.828  12.914  19.525  0.00  0.00    +0.000 A 
ATOM     15  C   UNL     1       1.801  13.857  19.961  0.00  0.00    +0.000 A 
ATOM     16  C   UNL     1       3.012  13.564  20.809  0.00  0.00    +0.000 C 
ATOM     17  C   UNL     1       1.681  15.229  19.610  0.00  0.00    +0.000 A 
ATOM     18  C   UNL     1       0.613  15.716  18.861  0.00  0.00    +0.000 A 
ATOM     19  C   UNL     1       0.498  17.174  18.524  0.00  0.00    +0.000 C 
ATOM     20  C   UNL     1      -0.330  14.807  18.409  0.00  0.00    +0.000 A 
ATOM     21  C   UNL     1      -0.209  13.434  18.696  0.00  0.00    +0.000 A 
ATOM     22 CL   UNL     1      -1.319  12.432  17.804  0.00  0.00    +0.000 Cl
ENDBRANCH   6  14
BRANCH   1  23
ATOM     23  C   UNL     1       1.620   6.838  19.791  0.00  0.00    +0.000 C 
BRANCH  23  24
ATOM     24  N   UNL     1       2.682   5.980  19.222  0.00  0.00    +0.000 NA
BRANCH  24  26
ATOM     25  C   UNL     1       2.258   4.353  21.122  0.00  0.00    +0.000 C 
ATOM     26  C   UNL     1       3.267   5.110  20.269  0.00  0.00    +0.000 C 
ENDBRANCH  24  26
BRANCH  24  27
ATOM     27  C   UNL     1       2.168   5.181  18.084  0.00  0.00    +0.000 C 
BRANCH  27  28
ATOM     28  C   UNL     1       3.178   4.181  17.483  0.00  0.00    +0.000 C 
BRANCH  28  29
ATOM     29  C   UNL     1       4.359   4.874  16.862  0.00  0.00    +0.000 C 
ATOM     30  C   UNL     1       5.767   4.442  17.186  0.00  0.00    +0.000 C 
ATOM     31  C   UNL     1       5.192   4.156  15.828  0.00  0.00    +0.000 C 
ENDBRANCH  28  29
ENDBRANCH  27  28
ENDBRANCH  24  27
ENDBRANCH  23  24
ENDBRANCH   1  23
TORSDOF 7
ENDMDL
