MODEL 1
REMARK VINA RESULT:      -9.3      0.000      0.000
REMARK  Name = 
REMARK  2 active torsions:
REMARK  status: ('A' for Active; 'I' for Inactive)
REMARK    1  A    between atoms: C_7  and  N_8
REMARK    2  A    between atoms: N_8  and  C_9
REMARK                            x       y       z     vdW  Elec       q    Type
REMARK                         _______ _______ _______ _____ _____    ______ ____
ROOT
ATOM      1  N   UNL     1       5.655   3.709  18.889  0.00  0.00    +0.000 N 
ATOM      2  H   UNL     1       6.132   2.822  19.000  0.00  0.00    +0.000 HD
ENDROOT
BRANCH   1   9
ATOM      3  N   UNL     1       6.806   5.175  14.560  0.00  0.00    +0.000 N 
ATOM      4  C   UNL     1       6.877   5.348  15.927  0.00  0.00    +0.000 A 
ATOM      5  N   UNL     1       7.477   6.439  16.372  0.00  0.00    +0.000 NA
ATOM      6  C   UNL     1       7.494   6.567  17.705  0.00  0.00    +0.000 A 
ATOM      7 CL   UNL     1       8.217   8.023  18.264  0.00  0.00    +0.000 Cl
ATOM      8  C   UNL     1       6.959   5.669  18.591  0.00  0.00    +0.000 A 
ATOM      9  C   UNL     1       6.345   4.572  18.034  0.00  0.00    +0.000 A 
ATOM     10  N   UNL     1       6.338   4.397  16.703  0.00  0.00    +0.000 NA
ATOM     11  H   UNL     1       7.521   5.724  14.098  0.00  0.00    +0.000 HD
ATOM     12  H   UNL     1       6.735   4.193  14.331  0.00  0.00    +0.000 HD
ENDBRANCH   1   9
BRANCH   1  13
ATOM     13  C   UNL     1       4.188   3.627  18.899  0.00  0.00    +0.000 C 
ATOM     14  C   UNL     1       3.624   2.786  17.731  0.00  0.00    +0.000 C 
ATOM     15  C   UNL     1       2.084   2.729  17.814  0.00  0.00    +0.000 C 
ATOM     16  C   UNL     1       1.664   2.042  19.125  0.00  0.00    +0.000 C 
ATOM     17  C   UNL     1       2.228   2.818  20.326  0.00  0.00    +0.000 C 
ATOM     18  C   UNL     1       1.633   4.234  20.313  0.00  0.00    +0.000 C 
ATOM     19  C   UNL     1       2.024   4.949  19.015  0.00  0.00    +0.000 C 
ATOM     20  C   UNL     1       1.522   4.160  17.793  0.00  0.00    +0.000 C 
ATOM     21  C   UNL     1       3.550   5.040  18.948  0.00  0.00    +0.000 C 
ATOM     22  C   UNL     1       3.765   2.898  20.211  0.00  0.00    +0.000 C 
ENDBRANCH   1  13
TORSDOF 2
ENDMDL
MODEL 2
REMARK VINA RESULT:      -9.3      0.064      1.726
REMARK  Name = 
REMARK  2 active torsions:
REMARK  status: ('A' for Active; 'I' for Inactive)
REMARK    1  A    between atoms: C_7  and  N_8
REMARK    2  A    between atoms: N_8  and  C_9
REMARK                            x       y       z     vdW  Elec       q    Type
REMARK                         _______ _______ _______ _____ _____    ______ ____
ROOT
ATOM      1  N   UNL     1       5.664   3.693  18.868  0.00  0.00    +0.000 N 
ATOM      2  H   UNL     1       6.102   2.779  18.917  0.00  0.00    +0.000 HD
ENDROOT
BRANCH   1   9
ATOM      3  N   UNL     1       6.827   5.175  14.549  0.00  0.00    +0.000 N 
ATOM      4  C   UNL     1       6.891   5.345  15.917  0.00  0.00    +0.000 A 
ATOM      5  N   UNL     1       7.484   6.437  16.366  0.00  0.00    +0.000 NA
ATOM      6  C   UNL     1       7.494   6.562  17.700  0.00  0.00    +0.000 A 
ATOM      7 CL   UNL     1       8.207   8.020  18.266  0.00  0.00    +0.000 Cl
ATOM      8  C   UNL     1       6.960   5.660  18.582  0.00  0.00    +0.000 A 
ATOM      9  C   UNL     1       6.353   4.561  18.019  0.00  0.00    +0.000 A 
ATOM     10  N   UNL     1       6.353   4.389  16.688  0.00  0.00    +0.000 NA
ATOM     11  H   UNL     1       7.541   5.729  14.091  0.00  0.00    +0.000 HD
ATOM     12  H   UNL     1       6.761   4.193  14.317  0.00  0.00    +0.000 HD
ENDBRANCH   1   9
BRANCH   1  13
ATOM     13  C   UNL     1       4.197   3.678  18.949  0.00  0.00    +0.000 C 
ATOM     14  C   UNL     1       3.575   5.090  18.852  0.00  0.00    +0.000 C 
ATOM     15  C   UNL     1       2.037   4.998  18.926  0.00  0.00    +0.000 C 
ATOM     16  C   UNL     1       1.511   4.176  17.736  0.00  0.00    +0.000 C 
ATOM     17  C   UNL     1       2.125   2.768  17.761  0.00  0.00    +0.000 C 
ATOM     18  C   UNL     1       1.688   2.070  19.057  0.00  0.00    +0.000 C 
ATOM     19  C   UNL     1       2.187   2.865  20.269  0.00  0.00    +0.000 C 
ATOM     20  C   UNL     1       1.633   4.300  20.236  0.00  0.00    +0.000 C 
ATOM     21  C   UNL     1       3.715   2.926  20.217  0.00  0.00    +0.000 C 
ATOM     22  C   UNL     1       3.664   2.877  17.722  0.00  0.00    +0.000 C 
ENDBRANCH   1  13
TORSDOF 2
ENDMDL
MODEL 3
REMARK VINA RESULT:      -9.2      0.125      1.707
REMARK  Name = 
REMARK  2 active torsions:
REMARK  status: ('A' for Active; 'I' for Inactive)
REMARK    1  A    between atoms: C_7  and  N_8
REMARK    2  A    between atoms: N_8  and  C_9
REMARK                            x       y       z     vdW  Elec       q    Type
REMARK                         _______ _______ _______ _____ _____    ______ ____
ROOT
ATOM      1  N   UNL     1       5.696   3.724  18.926  0.00  0.00    +0.000 N 
ATOM      2  H   UNL     1       6.188   2.845  19.042  0.00  0.00    +0.000 HD
ENDROOT
BRANCH   1   9
ATOM      3  N   UNL     1       6.775   5.142  14.563  0.00  0.00    +0.000 N 
ATOM      4  C   UNL     1       6.857   5.338  15.927  0.00  0.00    +0.000 A 
ATOM      5  N   UNL     1       7.443   6.446  16.348  0.00  0.00    +0.000 NA
ATOM      6  C   UNL     1       7.471   6.595  17.679  0.00  0.00    +0.000 A 
ATOM      7 CL   UNL     1       8.173   8.073  18.207  0.00  0.00    +0.000 Cl
ATOM      8  C   UNL     1       6.962   5.702  18.584  0.00  0.00    +0.000 A 
ATOM      9  C   UNL     1       6.361   4.586  18.051  0.00  0.00    +0.000 A 
ATOM     10  N   UNL     1       6.343   4.389  16.723  0.00  0.00    +0.000 NA
ATOM     11  H   UNL     1       7.475   5.697  14.085  0.00  0.00    +0.000 HD
ATOM     12  H   UNL     1       6.719   4.155  14.350  0.00  0.00    +0.000 HD
ENDBRANCH   1   9
BRANCH   1  13
ATOM     13  C   UNL     1       4.230   3.621  18.958  0.00  0.00    +0.000 C 
ATOM     14  C   UNL     1       3.705   2.905  20.224  0.00  0.00    +0.000 C 
ATOM     15  C   UNL     1       2.164   2.847  20.199  0.00  0.00    +0.000 C 
ATOM     16  C   UNL     1       1.594   4.277  20.203  0.00  0.00    +0.000 C 
ATOM     17  C   UNL     1       2.112   5.050  18.980  0.00  0.00    +0.000 C 
ATOM     18  C   UNL     1       1.619   4.340  17.711  0.00  0.00    +0.000 C 
ATOM     19  C   UNL     1       2.161   2.906  17.674  0.00  0.00    +0.000 C 
ATOM     20  C   UNL     1       1.704   2.127  18.920  0.00  0.00    +0.000 C 
ATOM     21  C   UNL     1       3.690   2.962  17.662  0.00  0.00    +0.000 C 
ATOM     22  C   UNL     1       3.655   5.069  19.000  0.00  0.00    +0.000 C 
ENDBRANCH   1  13
TORSDOF 2
ENDMDL
MODEL 4
REMARK VINA RESULT:      -8.8      1.456      1.916
REMARK  Name = 
REMARK  2 active torsions:
REMARK  status: ('A' for Active; 'I' for Inactive)
REMARK    1  A    between atoms: C_7  and  N_8
REMARK    2  A    between atoms: N_8  and  C_9
REMARK                            x       y       z     vdW  Elec       q    Type
REMARK                         _______ _______ _______ _____ _____    ______ ____
ROOT
ATOM      1  N   UNL     1       5.528   3.770  18.874  0.00  0.00    +0.000 N 
ATOM      2  H   UNL     1       6.061   2.910  18.938  0.00  0.00    +0.000 HD
ENDROOT
BRANCH   1   9
ATOM      3  N   UNL     1       8.028   7.689  18.099  0.00  0.00    +0.000 N 
ATOM      4  C   UNL     1       7.392   6.572  17.599  0.00  0.00    +0.000 A 
ATOM      5  N   UNL     1       7.510   6.334  16.304  0.00  0.00    +0.000 NA
ATOM      6  C   UNL     1       6.894   5.223  15.878  0.00  0.00    +0.000 A 
ATOM      7 CL   UNL     1       7.114   4.891  14.206  0.00  0.00    +0.000 Cl
ATOM      8  C   UNL     1       6.175   4.367  16.670  0.00  0.00    +0.000 A 
ATOM      9  C   UNL     1       6.119   4.691  18.006  0.00  0.00    +0.000 A 
ATOM     10  N   UNL     1       6.698   5.813  18.460  0.00  0.00    +0.000 NA
ATOM     11  H   UNL     1       8.204   8.356  17.357  0.00  0.00    +0.000 HD
ATOM     12  H   UNL     1       7.564   8.016  18.936  0.00  0.00    +0.000 HD
ENDBRANCH   1   9
BRANCH   1  13
ATOM     13  C   UNL     1       4.071   3.602  18.961  0.00  0.00    +0.000 C 
ATOM     14  C   UNL     1       3.500   2.709  17.835  0.00  0.00    +0.000 C 
ATOM     15  C   UNL     1       1.973   2.562  17.998  0.00  0.00    +0.000 C 
ATOM     16  C   UNL     1       1.661   1.874  19.339  0.00  0.00    +0.000 C 
ATOM     17  C   UNL     1       2.238   2.702  20.498  0.00  0.00    +0.000 C 
ATOM     18  C   UNL     1       1.559   4.080  20.496  0.00  0.00    +0.000 C 
ATOM     19  C   UNL     1       1.841   4.796  19.169  0.00  0.00    +0.000 C 
ATOM     20  C   UNL     1       1.325   3.957  17.986  0.00  0.00    +0.000 C 
ATOM     21  C   UNL     1       3.353   4.975  19.023  0.00  0.00    +0.000 C 
ATOM     22  C   UNL     1       3.759   2.871  20.303  0.00  0.00    +0.000 C 
ENDBRANCH   1  13
TORSDOF 2
ENDMDL
MODEL 5
REMARK VINA RESULT:      -8.8      1.449      2.566
REMARK  Name = 
REMARK  2 active torsions:
REMARK  status: ('A' for Active; 'I' for Inactive)
REMARK    1  A    between atoms: C_7  and  N_8
REMARK    2  A    between atoms: N_8  and  C_9
REMARK                            x       y       z     vdW  Elec       q    Type
REMARK                         _______ _______ _______ _____ _____    ______ ____
ROOT
ATOM      1  N   UNL     1       5.567   3.723  18.926  0.00  0.00    +0.000 N 
ATOM      2  H   UNL     1       6.106   2.865  18.970  0.00  0.00    +0.000 HD
ENDROOT
BRANCH   1   9
ATOM      3  N   UNL     1       8.014   7.670  18.120  0.00  0.00    +0.000 N 
ATOM      4  C   UNL     1       7.378   6.548  17.628  0.00  0.00    +0.000 A 
ATOM      5  N   UNL     1       7.472   6.318  16.329  0.00  0.00    +0.000 NA
ATOM      6  C   UNL     1       6.858   5.203  15.911  0.00  0.00    +0.000 A 
ATOM      7 CL   UNL     1       7.048   4.881  14.233  0.00  0.00    +0.000 Cl
ATOM      8  C   UNL     1       6.164   4.336  16.713  0.00  0.00    +0.000 A 
ATOM      9  C   UNL     1       6.132   4.653  18.050  0.00  0.00    +0.000 A 
ATOM     10  N   UNL     1       6.709   5.779  18.499  0.00  0.00    +0.000 NA
ATOM     11  H   UNL     1       8.168   8.342  17.378  0.00  0.00    +0.000 HD
ATOM     12  H   UNL     1       7.563   7.988  18.968  0.00  0.00    +0.000 HD
ENDBRANCH   1   9
BRANCH   1  13
ATOM     13  C   UNL     1       4.114   3.546  19.048  0.00  0.00    +0.000 C 
ATOM     14  C   UNL     1       3.702   2.826  20.353  0.00  0.00    +0.000 C 
ATOM     15  C   UNL     1       2.167   2.689  20.421  0.00  0.00    +0.000 C 
ATOM     16  C   UNL     1       1.525   4.088  20.441  0.00  0.00    +0.000 C 
ATOM     17  C   UNL     1       1.929   4.866  19.179  0.00  0.00    +0.000 C 
ATOM     18  C   UNL     1       1.399   4.111  17.951  0.00  0.00    +0.000 C 
ATOM     19  C   UNL     1       2.011   2.706  17.901  0.00  0.00    +0.000 C 
ATOM     20  C   UNL     1       1.670   1.925  19.182  0.00  0.00    +0.000 C 
ATOM     21  C   UNL     1       3.532   2.840  17.796  0.00  0.00    +0.000 C 
ATOM     22  C   UNL     1       3.467   4.964  19.105  0.00  0.00    +0.000 C 
ENDBRANCH   1  13
TORSDOF 2
ENDMDL
MODEL 6
REMARK VINA RESULT:      -8.8      1.457      2.595
REMARK  Name = 
REMARK  2 active torsions:
REMARK  status: ('A' for Active; 'I' for Inactive)
REMARK    1  A    between atoms: C_7  and  N_8
REMARK    2  A    between atoms: N_8  and  C_9
REMARK                            x       y       z     vdW  Elec       q    Type
REMARK                         _______ _______ _______ _____ _____    ______ ____
ROOT
ATOM      1  N   UNL     1       5.570   3.687  18.779  0.00  0.00    +0.000 N 
ATOM      2  H   UNL     1       6.043   2.791  18.726  0.00  0.00    +0.000 HD
ENDROOT
BRANCH   1   9
ATOM      3  N   UNL     1       7.991   7.664  18.053  0.00  0.00    +0.000 N 
ATOM      4  C   UNL     1       7.372   6.543  17.539  0.00  0.00    +0.000 A 
ATOM      5  N   UNL     1       7.486   6.329  16.239  0.00  0.00    +0.000 NA
ATOM      6  C   UNL     1       6.888   5.214  15.799  0.00  0.00    +0.000 A 
ATOM      7 CL   UNL     1       7.103   4.914  14.120  0.00  0.00    +0.000 Cl
ATOM      8  C   UNL     1       6.191   4.331  16.581  0.00  0.00    +0.000 A 
ATOM      9  C   UNL     1       6.138   4.632  17.922  0.00  0.00    +0.000 A 
ATOM     10  N   UNL     1       6.699   5.758  18.391  0.00  0.00    +0.000 NA
ATOM     11  H   UNL     1       8.149   8.347  17.321  0.00  0.00    +0.000 HD
ATOM     12  H   UNL     1       7.526   7.968  18.898  0.00  0.00    +0.000 HD
ENDBRANCH   1   9
BRANCH   1  13
ATOM     13  C   UNL     1       4.121   3.606  19.004  0.00  0.00    +0.000 C 
ATOM     14  C   UNL     1       3.439   4.994  19.038  0.00  0.00    +0.000 C 
ATOM     15  C   UNL     1       1.921   4.833  19.261  0.00  0.00    +0.000 C 
ATOM     16  C   UNL     1       1.309   4.043  18.090  0.00  0.00    +0.000 C 
ATOM     17  C   UNL     1       1.975   2.663  17.985  0.00  0.00    +0.000 C 
ATOM     18  C   UNL     1       1.698   1.889  19.283  0.00  0.00    +0.000 C 
ATOM     19  C   UNL     1       2.287   2.650  20.477  0.00  0.00    +0.000 C 
ATOM     20  C   UNL     1       1.679   4.061  20.569  0.00  0.00    +0.000 C 
ATOM     21  C   UNL     1       3.799   2.779  20.276  0.00  0.00    +0.000 C 
ATOM     22  C   UNL     1       3.497   2.839  17.799  0.00  0.00    +0.000 C 
ENDBRANCH   1  13
TORSDOF 2
ENDMDL
MODEL 7
REMARK VINA RESULT:      -8.7      2.007      2.670
REMARK  Name = 
REMARK  2 active torsions:
REMARK  status: ('A' for Active; 'I' for Inactive)
REMARK    1  A    between atoms: C_7  and  N_8
REMARK    2  A    between atoms: N_8  and  C_9
REMARK                            x       y       z     vdW  Elec       q    Type
REMARK                         _______ _______ _______ _____ _____    ______ ____
ROOT
ATOM      1  N   UNL     1       3.797   5.400  17.411  0.00  0.00    +0.000 N 
ATOM      2  H   UNL     1       3.698   6.377  17.664  0.00  0.00    +0.000 HD
ENDROOT
BRANCH   1   9
ATOM      3  N   UNL     1       8.343   4.284  17.955  0.00  0.00    +0.000 N 
ATOM      4  C   UNL     1       7.272   4.516  17.116  0.00  0.00    +0.000 A 
ATOM      5  N   UNL     1       7.455   4.303  15.824  0.00  0.00    +0.000 NA
ATOM      6  C   UNL     1       6.375   4.519  15.061  0.00  0.00    +0.000 A 
ATOM      7 CL   UNL     1       6.610   4.172  13.394  0.00  0.00    +0.000 Cl
ATOM      8  C   UNL     1       5.155   4.938  15.520  0.00  0.00    +0.000 A 
ATOM      9  C   UNL     1       5.058   5.121  16.880  0.00  0.00    +0.000 A 
ATOM     10  N   UNL     1       6.129   4.944  17.670  0.00  0.00    +0.000 NA
ATOM     11  H   UNL     1       9.211   4.319  17.435  0.00  0.00    +0.000 HD
ATOM     12  H   UNL     1       8.264   4.845  18.793  0.00  0.00    +0.000 HD
ENDBRANCH   1   9
BRANCH   1  13
ATOM     13  C   UNL     1       3.094   4.459  18.294  0.00  0.00    +0.000 C 
ATOM     14  C   UNL     1       3.781   3.076  18.369  0.00  0.00    +0.000 C 
ATOM     15  C   UNL     1       3.002   2.148  19.324  0.00  0.00    +0.000 C 
ATOM     16  C   UNL     1       3.007   2.746  20.742  0.00  0.00    +0.000 C 
ATOM     17  C   UNL     1       2.365   4.142  20.723  0.00  0.00    +0.000 C 
ATOM     18  C   UNL     1       0.905   4.000  20.267  0.00  0.00    +0.000 C 
ATOM     19  C   UNL     1       0.858   3.398  18.857  0.00  0.00    +0.000 C 
ATOM     20  C   UNL     1       1.549   2.023  18.836  0.00  0.00    +0.000 C 
ATOM     21  C   UNL     1       1.599   4.336  17.901  0.00  0.00    +0.000 C 
ATOM     22  C   UNL     1       3.132   5.048  19.738  0.00  0.00    +0.000 C 
ENDBRANCH   1  13
TORSDOF 2
ENDMDL
MODEL 8
REMARK VINA RESULT:      -8.7      1.227      1.782
REMARK  Name = 
REMARK  2 active torsions:
REMARK  status: ('A' for Active; 'I' for Inactive)
REMARK    1  A    between atoms: C_7  and  N_8
REMARK    2  A    between atoms: N_8  and  C_9
REMARK                            x       y       z     vdW  Elec       q    Type
REMARK                         _______ _______ _______ _____ _____    ______ ____
ROOT
ATOM      1  N   UNL     1       3.481   5.535  17.415  0.00  0.00    +0.000 N 
ATOM      2  H   UNL     1       3.075   6.455  17.541  0.00  0.00    +0.000 HD
ENDROOT
BRANCH   1   9
ATOM      3  N   UNL     1       6.939   5.021  14.255  0.00  0.00    +0.000 N 
ATOM      4  C   UNL     1       6.533   5.416  15.513  0.00  0.00    +0.000 A 
ATOM      5  N   UNL     1       7.433   6.001  16.286  0.00  0.00    +0.000 NA
ATOM      6  C   UNL     1       6.977   6.386  17.486  0.00  0.00    +0.000 A 
ATOM      7 CL   UNL     1       8.139   7.205  18.451  0.00  0.00    +0.000 Cl
ATOM      8  C   UNL     1       5.696   6.207  17.938  0.00  0.00    +0.000 A 
ATOM      9  C   UNL     1       4.830   5.601  17.058  0.00  0.00    +0.000 A 
ATOM     10  N   UNL     1       5.261   5.174  15.861  0.00  0.00    +0.000 NA
ATOM     11  H   UNL     1       7.947   4.917  14.226  0.00  0.00    +0.000 HD
ATOM     12  H   UNL     1       6.370   4.253  13.925  0.00  0.00    +0.000 HD
ENDBRANCH   1   9
BRANCH   1  13
ATOM     13  C   UNL     1       2.962   4.502  18.322  0.00  0.00    +0.000 C 
ATOM     14  C   UNL     1       3.881   3.262  18.411  0.00  0.00    +0.000 C 
ATOM     15  C   UNL     1       3.285   2.229  19.390  0.00  0.00    +0.000 C 
ATOM     16  C   UNL     1       3.198   2.844  20.798  0.00  0.00    +0.000 C 
ATOM     17  C   UNL     1       2.322   4.106  20.765  0.00  0.00    +0.000 C 
ATOM     18  C   UNL     1       0.905   3.703  20.328  0.00  0.00    +0.000 C 
ATOM     19  C   UNL     1       0.951   3.077  18.929  0.00  0.00    +0.000 C 
ATOM     20  C   UNL     1       1.872   1.844  18.922  0.00  0.00    +0.000 C 
ATOM     21  C   UNL     1       1.508   4.112  17.949  0.00  0.00    +0.000 C 
ATOM     22  C   UNL     1       2.910   5.114  19.755  0.00  0.00    +0.000 C 
ENDBRANCH   1  13
TORSDOF 2
ENDMDL
MODEL 9
REMARK VINA RESULT:      -8.6      1.236      2.278
REMARK  Name = 
REMARK  2 active torsions:
REMARK  status: ('A' for Active; 'I' for Inactive)
REMARK    1  A    between atoms: C_7  and  N_8
REMARK    2  A    between atoms: N_8  and  C_9
REMARK                            x       y       z     vdW  Elec       q    Type
REMARK                         _______ _______ _______ _____ _____    ______ ____
ROOT
ATOM      1  N   UNL     1       3.473   5.662  17.560  0.00  0.00    +0.000 N 
ATOM      2  H   UNL     1       3.093   6.590  17.712  0.00  0.00    +0.000 HD
ENDROOT
BRANCH   1   9
ATOM      3  N   UNL     1       6.850   5.055  14.330  0.00  0.00    +0.000 N 
ATOM      4  C   UNL     1       6.479   5.470  15.593  0.00  0.00    +0.000 A 
ATOM      5  N   UNL     1       7.406   6.046  16.340  0.00  0.00    +0.000 NA
ATOM      6  C   UNL     1       6.984   6.451  17.545  0.00  0.00    +0.000 A 
ATOM      7 CL   UNL     1       8.181   7.259  18.477  0.00  0.00    +0.000 Cl
ATOM      8  C   UNL     1       5.710   6.300  18.027  0.00  0.00    +0.000 A 
ATOM      9  C   UNL     1       4.814   5.701  17.173  0.00  0.00    +0.000 A 
ATOM     10  N   UNL     1       5.211   5.254  15.971  0.00  0.00    +0.000 NA
ATOM     11  H   UNL     1       7.855   4.934  14.280  0.00  0.00    +0.000 HD
ATOM     12  H   UNL     1       6.260   4.295  14.020  0.00  0.00    +0.000 HD
ENDBRANCH   1   9
BRANCH   1  13
ATOM     13  C   UNL     1       2.948   4.626  18.460  0.00  0.00    +0.000 C 
ATOM     14  C   UNL     1       2.692   5.147  19.893  0.00  0.00    +0.000 C 
ATOM     15  C   UNL     1       2.128   4.014  20.776  0.00  0.00    +0.000 C 
ATOM     16  C   UNL     1       0.779   3.539  20.206  0.00  0.00    +0.000 C 
ATOM     17  C   UNL     1       0.967   3.040  18.765  0.00  0.00    +0.000 C 
ATOM     18  C   UNL     1       1.929   1.842  18.786  0.00  0.00    +0.000 C 
ATOM     19  C   UNL     1       3.285   2.275  19.357  0.00  0.00    +0.000 C 
ATOM     20  C   UNL     1       3.115   2.835  20.780  0.00  0.00    +0.000 C 
ATOM     21  C   UNL     1       3.863   3.373  18.462  0.00  0.00    +0.000 C 
ATOM     22  C   UNL     1       1.565   4.171  17.903  0.00  0.00    +0.000 C 
ENDBRANCH   1  13
TORSDOF 2
ENDMDL
