MODEL 1
REMARK VINA RESULT:      -6.6      0.000      0.000
REMARK  Name = 
REMARK  9 active torsions:
REMARK  status: ('A' for Active; 'I' for Inactive)
REMARK    1  A    between atoms: C_2  and  C_3
REMARK    2  A    between atoms: C_3  and  S_4
REMARK    3  A    between atoms: S_4  and  C_5
REMARK    4  A    between atoms: C_9  and  C_10
REMARK    5  A    between atoms: C_10  and  C_11
REMARK    6  A    between atoms: C_12  and  C_13
REMARK    7  A    between atoms: N_17  and  C_18
REMARK    8  A    between atoms: C_21  and  O_22
REMARK    9  A    between atoms: O_22  and  C_23
REMARK                            x       y       z     vdW  Elec       q    Type
REMARK                         _______ _______ _______ _____ _____    ______ ____
ROOT
ATOM      1  C   UNL     1       2.380   5.953  20.385  0.00  0.00    +0.000 A 
ATOM      2  N   UNL     1       1.640   6.619  21.218  0.00  0.00    +0.000 NA
ATOM      3  C   UNL     1       1.248   7.860  20.794  0.00  0.00    +0.000 A 
ATOM      4  S   UNL     1       0.213   8.868  21.707  0.00  0.00    +0.000 S 
ATOM      5  C   UNL     1       0.183  10.113  20.497  0.00  0.00    +0.000 A 
ATOM      6  C   UNL     1       0.960   9.754  19.400  0.00  0.00    +0.000 A 
ATOM      7  C   UNL     1       1.214  10.512  18.127  0.00  0.00    +0.000 C 
ATOM      8  C   UNL     1       1.558   8.453  19.608  0.00  0.00    +0.000 A 
ATOM      9  C   UNL     1       2.411   7.727  18.695  0.00  0.00    +0.000 A 
ATOM     10  O   UNL     1       2.746   8.231  17.612  0.00  0.00    +0.000 OA
ATOM     11  N   UNL     1       2.809   6.462  19.134  0.00  0.00    +0.000 N 
ENDROOT
BRANCH  11  12
ATOM     12  C   UNL     1       3.641   5.750  18.227  0.00  0.00    +0.000 A 
ATOM     13  C   UNL     1       3.133   4.694  17.476  0.00  0.00    +0.000 A 
ATOM     14  C   UNL     1       3.977   3.971  16.637  0.00  0.00    +0.000 A 
ATOM     15  C   UNL     1       5.333   4.282  16.555  0.00  0.00    +0.000 A 
ATOM     16  C   UNL     1       5.862   5.294  17.354  0.00  0.00    +0.000 A 
ATOM     17  C   UNL     1       5.020   6.027  18.190  0.00  0.00    +0.000 A 
BRANCH  15  18
ATOM     18  O   UNL     1       6.048   3.492  15.699  0.00  0.00    +0.000 OA
ATOM     19  C   UNL     1       6.240   4.020  14.394  0.00  0.00    +0.000 C 
ENDBRANCH  15  18
ENDBRANCH  11  12
BRANCH   5  20
ATOM     20  C   UNL     1      -0.590  11.386  20.792  0.00  0.00    +0.000 C 
ATOM     21  C   UNL     1      -0.836  11.656  22.273  0.00  0.00    +0.000 C 
ENDBRANCH   5  20
BRANCH   1  22
ATOM     22  S   UNL     1       2.862   4.300  20.839  0.00  0.00    +0.000 S 
BRANCH  22  23
ATOM     23  C   UNL     1       1.281   3.387  20.986  0.00  0.00    +0.000 C 
BRANCH  23  25
ATOM     24  C   UNL     1       0.591   2.144  18.545  0.00  0.00    +0.000 C 
ATOM     25  C   UNL     1       0.909   2.718  19.672  0.00  0.00    +0.000 C 
ENDBRANCH  23  25
ENDBRANCH  22  23
ENDBRANCH   1  22
TORSDOF 6
ENDMDL
MODEL 2
REMARK VINA RESULT:      -6.5      1.489      1.991
REMARK  Name = 
REMARK  9 active torsions:
REMARK  status: ('A' for Active; 'I' for Inactive)
REMARK    1  A    between atoms: C_2  and  C_3
REMARK    2  A    between atoms: C_3  and  S_4
REMARK    3  A    between atoms: S_4  and  C_5
REMARK    4  A    between atoms: C_9  and  C_10
REMARK    5  A    between atoms: C_10  and  C_11
REMARK    6  A    between atoms: C_12  and  C_13
REMARK    7  A    between atoms: N_17  and  C_18
REMARK    8  A    between atoms: C_21  and  O_22
REMARK    9  A    between atoms: O_22  and  C_23
REMARK                            x       y       z     vdW  Elec       q    Type
REMARK                         _______ _______ _______ _____ _____    ______ ____
ROOT
ATOM      1  C   UNL     1       3.808   5.001  19.073  0.00  0.00    +0.000 A 
ATOM      2  N   UNL     1       3.057   5.362  20.068  0.00  0.00    +0.000 NA
ATOM      3  C   UNL     1       2.448   6.580  19.934  0.00  0.00    +0.000 A 
ATOM      4  S   UNL     1       1.364   7.209  21.097  0.00  0.00    +0.000 S 
ATOM      5  C   UNL     1       1.037   8.641  20.172  0.00  0.00    +0.000 A 
ATOM      6  C   UNL     1       1.753   8.635  18.980  0.00  0.00    +0.000 A 
ATOM      7  C   UNL     1       1.772   9.655  17.877  0.00  0.00    +0.000 C 
ATOM      8  C   UNL     1       2.555   7.434  18.878  0.00  0.00    +0.000 A 
ATOM      9  C   UNL     1       3.417   7.048  17.784  0.00  0.00    +0.000 A 
ATOM     10  O   UNL     1       3.571   7.800  16.811  0.00  0.00    +0.000 OA
ATOM     11  N   UNL     1       4.038   5.805  17.929  0.00  0.00    +0.000 N 
ENDROOT
BRANCH  11  12
ATOM     12  C   UNL     1       4.878   5.429  16.846  0.00  0.00    +0.000 A 
ATOM     13  C   UNL     1       4.404   4.600  15.833  0.00  0.00    +0.000 A 
ATOM     14  C   UNL     1       5.259   4.194  14.812  0.00  0.00    +0.000 A 
ATOM     15  C   UNL     1       6.593   4.595  14.802  0.00  0.00    +0.000 A 
ATOM     16  C   UNL     1       7.093   5.369  15.848  0.00  0.00    +0.000 A 
ATOM     17  C   UNL     1       6.240   5.786  16.870  0.00  0.00    +0.000 A 
BRANCH  15  18
ATOM     18  O   UNL     1       7.323   4.122  13.748  0.00  0.00    +0.000 OA
ATOM     19  C   UNL     1       6.568   3.704  12.619  0.00  0.00    +0.000 C 
ENDBRANCH  15  18
ENDBRANCH  11  12
BRANCH   5  20
ATOM     20  C   UNL     1       0.114   9.690  20.769  0.00  0.00    +0.000 C 
ATOM     21  C   UNL     1      -0.214   9.485  22.245  0.00  0.00    +0.000 C 
ENDBRANCH   5  20
BRANCH   1  22
ATOM     22  S   UNL     1       4.570   3.393  19.146  0.00  0.00    +0.000 S 
BRANCH  22  23
ATOM     23  C   UNL     1       3.437   2.306  18.204  0.00  0.00    +0.000 C 
BRANCH  23  25
ATOM     24  C   UNL     1       0.764   2.635  19.055  0.00  0.00    +0.000 C 
ATOM     25  C   UNL     1       1.998   2.483  18.663  0.00  0.00    +0.000 C 
ENDBRANCH  23  25
ENDBRANCH  22  23
ENDBRANCH   1  22
TORSDOF 6
ENDMDL
MODEL 3
REMARK VINA RESULT:      -6.5      0.416      1.134
REMARK  Name = 
REMARK  9 active torsions:
REMARK  status: ('A' for Active; 'I' for Inactive)
REMARK    1  A    between atoms: C_2  and  C_3
REMARK    2  A    between atoms: C_3  and  S_4
REMARK    3  A    between atoms: S_4  and  C_5
REMARK    4  A    between atoms: C_9  and  C_10
REMARK    5  A    between atoms: C_10  and  C_11
REMARK    6  A    between atoms: C_12  and  C_13
REMARK    7  A    between atoms: N_17  and  C_18
REMARK    8  A    between atoms: C_21  and  O_22
REMARK    9  A    between atoms: O_22  and  C_23
REMARK                            x       y       z     vdW  Elec       q    Type
REMARK                         _______ _______ _______ _____ _____    ______ ____
ROOT
ATOM      1  C   UNL     1       2.357   5.970  20.418  0.00  0.00    +0.000 A 
ATOM      2  N   UNL     1       1.602   6.678  21.202  0.00  0.00    +0.000 NA
ATOM      3  C   UNL     1       1.250   7.911  20.724  0.00  0.00    +0.000 A 
ATOM      4  S   UNL     1       0.205   8.969  21.568  0.00  0.00    +0.000 S 
ATOM      5  C   UNL     1       0.241  10.172  20.317  0.00  0.00    +0.000 A 
ATOM      6  C   UNL     1       1.048   9.762  19.260  0.00  0.00    +0.000 A 
ATOM      7  C   UNL     1       1.359  10.471  17.972  0.00  0.00    +0.000 C 
ATOM      8  C   UNL     1       1.612   8.457  19.530  0.00  0.00    +0.000 A 
ATOM      9  C   UNL     1       2.480   7.685  18.671  0.00  0.00    +0.000 A 
ATOM     10  O   UNL     1       2.861   8.146  17.585  0.00  0.00    +0.000 OA
ATOM     11  N   UNL     1       2.837   6.428  19.166  0.00  0.00    +0.000 N 
ENDROOT
BRANCH  11  12
ATOM     12  C   UNL     1       3.685   5.670  18.312  0.00  0.00    +0.000 A 
ATOM     13  C   UNL     1       5.037   5.981  18.195  0.00  0.00    +0.000 A 
ATOM     14  C   UNL     1       5.838   5.265  17.309  0.00  0.00    +0.000 A 
ATOM     15  C   UNL     1       5.295   4.252  16.521  0.00  0.00    +0.000 A 
ATOM     16  C   UNL     1       3.929   3.981  16.583  0.00  0.00    +0.000 A 
ATOM     17  C   UNL     1       3.123   4.688  17.474  0.00  0.00    +0.000 A 
BRANCH  15  18
ATOM     18  O   UNL     1       6.189   3.634  15.691  0.00  0.00    +0.000 OA
ATOM     19  C   UNL     1       6.893   4.492  14.803  0.00  0.00    +0.000 C 
ENDBRANCH  15  18
ENDBRANCH  11  12
BRANCH   5  20
ATOM     20  C   UNL     1      -0.515  11.469  20.542  0.00  0.00    +0.000 C 
ATOM     21  C   UNL     1      -1.748  11.651  19.662  0.00  0.00    +0.000 C 
ENDBRANCH   5  20
BRANCH   1  22
ATOM     22  S   UNL     1       2.790   4.324  20.942  0.00  0.00    +0.000 S 
BRANCH  22  23
ATOM     23  C   UNL     1       1.194   3.428  21.000  0.00  0.00    +0.000 C 
BRANCH  23  25
ATOM     24  C   UNL     1       0.645   2.161  18.536  0.00  0.00    +0.000 C 
ATOM     25  C   UNL     1       0.898   2.746  19.673  0.00  0.00    +0.000 C 
ENDBRANCH  23  25
ENDBRANCH  22  23
ENDBRANCH   1  22
TORSDOF 6
ENDMDL
MODEL 4
REMARK VINA RESULT:      -6.4      1.232      1.697
REMARK  Name = 
REMARK  9 active torsions:
REMARK  status: ('A' for Active; 'I' for Inactive)
REMARK    1  A    between atoms: C_2  and  C_3
REMARK    2  A    between atoms: C_3  and  S_4
REMARK    3  A    between atoms: S_4  and  C_5
REMARK    4  A    between atoms: C_9  and  C_10
REMARK    5  A    between atoms: C_10  and  C_11
REMARK    6  A    between atoms: C_12  and  C_13
REMARK    7  A    between atoms: N_17  and  C_18
REMARK    8  A    between atoms: C_21  and  O_22
REMARK    9  A    between atoms: O_22  and  C_23
REMARK                            x       y       z     vdW  Elec       q    Type
REMARK                         _______ _______ _______ _____ _____    ______ ____
ROOT
ATOM      1  C   UNL     1       3.450   5.422  19.573  0.00  0.00    +0.000 A 
ATOM      2  N   UNL     1       2.584   5.838  20.447  0.00  0.00    +0.000 NA
ATOM      3  C   UNL     1       2.016   7.054  20.180  0.00  0.00    +0.000 A 
ATOM      4  S   UNL     1       0.803   7.746  21.166  0.00  0.00    +0.000 S 
ATOM      5  C   UNL     1       0.618   9.137  20.143  0.00  0.00    +0.000 A 
ATOM      6  C   UNL     1       1.480   9.067  19.053  0.00  0.00    +0.000 A 
ATOM      7  C   UNL     1       1.654  10.034  17.916  0.00  0.00    +0.000 C 
ATOM      8  C   UNL     1       2.269   7.855  19.109  0.00  0.00    +0.000 A 
ATOM      9  C   UNL     1       3.257   7.411  18.153  0.00  0.00    +0.000 A 
ATOM     10  O   UNL     1       3.545   8.114  17.174  0.00  0.00    +0.000 OA
ATOM     11  N   UNL     1       3.835   6.170  18.433  0.00  0.00    +0.000 N 
ENDROOT
BRANCH  11  12
ATOM     12  C   UNL     1       4.800   5.735  17.483  0.00  0.00    +0.000 A 
ATOM     13  C   UNL     1       6.100   6.233  17.512  0.00  0.00    +0.000 A 
ATOM     14  C   UNL     1       7.014   5.840  16.538  0.00  0.00    +0.000 A 
ATOM     15  C   UNL     1       6.636   4.965  15.521  0.00  0.00    +0.000 A 
ATOM     16  C   UNL     1       5.319   4.515  15.447  0.00  0.00    +0.000 A 
ATOM     17  C   UNL     1       4.400   4.899  16.424  0.00  0.00    +0.000 A 
BRANCH  15  18
ATOM     18  O   UNL     1       7.627   4.667  14.628  0.00  0.00    +0.000 OA
ATOM     19  C   UNL     1       7.252   4.717  13.258  0.00  0.00    +0.000 C 
ENDBRANCH  15  18
ENDBRANCH  11  12
BRANCH   5  20
ATOM     20  C   UNL     1      -0.357  10.221  20.569  0.00  0.00    +0.000 C 
ATOM     21  C   UNL     1       0.296  11.500  21.082  0.00  0.00    +0.000 C 
ENDBRANCH   5  20
BRANCH   1  22
ATOM     22  S   UNL     1       4.171   3.813  19.816  0.00  0.00    +0.000 S 
BRANCH  22  23
ATOM     23  C   UNL     1       2.843   2.830  20.606  0.00  0.00    +0.000 C 
BRANCH  23  25
ATOM     24  C   UNL     1       0.744   2.305  18.790  0.00  0.00    +0.000 C 
ATOM     25  C   UNL     1       1.714   2.547  19.628  0.00  0.00    +0.000 C 
ENDBRANCH  23  25
ENDBRANCH  22  23
ENDBRANCH   1  22
TORSDOF 6
ENDMDL
MODEL 5
REMARK VINA RESULT:      -5.9      2.457      3.999
REMARK  Name = 
REMARK  9 active torsions:
REMARK  status: ('A' for Active; 'I' for Inactive)
REMARK    1  A    between atoms: C_2  and  C_3
REMARK    2  A    between atoms: C_3  and  S_4
REMARK    3  A    between atoms: S_4  and  C_5
REMARK    4  A    between atoms: C_9  and  C_10
REMARK    5  A    between atoms: C_10  and  C_11
REMARK    6  A    between atoms: C_12  and  C_13
REMARK    7  A    between atoms: N_17  and  C_18
REMARK    8  A    between atoms: C_21  and  O_22
REMARK    9  A    between atoms: O_22  and  C_23
REMARK                            x       y       z     vdW  Elec       q    Type
REMARK                         _______ _______ _______ _____ _____    ______ ____
ROOT
ATOM      1  C   UNL     1       3.290   7.482  17.648  0.00  0.00    +0.000 A 
ATOM      2  N   UNL     1       2.963   8.728  17.486  0.00  0.00    +0.000 NA
ATOM      3  C   UNL     1       2.109   9.241  18.424  0.00  0.00    +0.000 A 
ATOM      4  S   UNL     1       1.614  10.876  18.432  0.00  0.00    +0.000 S 
ATOM      5  C   UNL     1       0.672  10.694  19.879  0.00  0.00    +0.000 A 
ATOM      6  C   UNL     1       0.741   9.387  20.352  0.00  0.00    +0.000 A 
ATOM      7  C   UNL     1       0.099   8.782  21.569  0.00  0.00    +0.000 C 
ATOM      8  C   UNL     1       1.575   8.580  19.488  0.00  0.00    +0.000 A 
ATOM      9  C   UNL     1       1.910   7.184  19.651  0.00  0.00    +0.000 A 
ATOM     10  O   UNL     1       1.430   6.529  20.589  0.00  0.00    +0.000 OA
ATOM     11  N   UNL     1       2.781   6.667  18.689  0.00  0.00    +0.000 N 
ENDROOT
BRANCH  11  12
ATOM     12  C   UNL     1       3.112   5.295  18.861  0.00  0.00    +0.000 A 
ATOM     13  C   UNL     1       4.192   4.918  19.655  0.00  0.00    +0.000 A 
ATOM     14  C   UNL     1       4.537   3.574  19.763  0.00  0.00    +0.000 A 
ATOM     15  C   UNL     1       3.822   2.599  19.069  0.00  0.00    +0.000 A 
ATOM     16  C   UNL     1       2.782   2.974  18.220  0.00  0.00    +0.000 A 
ATOM     17  C   UNL     1       2.427   4.319  18.113  0.00  0.00    +0.000 A 
BRANCH  15  18
ATOM     18  O   UNL     1       4.268   1.321  19.259  0.00  0.00    +0.000 OA
ATOM     19  C   UNL     1       5.054   1.113  20.426  0.00  0.00    +0.000 C 
ENDBRANCH  15  18
ENDBRANCH  11  12
BRANCH   5  20
ATOM     20  C   UNL     1      -0.111  11.892  20.386  0.00  0.00    +0.000 C 
ATOM     21  C   UNL     1      -1.565  11.944  19.930  0.00  0.00    +0.000 C 
ENDBRANCH   5  20
BRANCH   1  22
ATOM     22  S   UNL     1       4.459   6.772  16.509  0.00  0.00    +0.000 S 
BRANCH  22  23
ATOM     23  C   UNL     1       6.091   7.064  17.287  0.00  0.00    +0.000 C 
BRANCH  23  25
ATOM     24  C   UNL     1       7.544   4.655  17.543  0.00  0.00    +0.000 C 
ATOM     25  C   UNL     1       6.874   5.767  17.424  0.00  0.00    +0.000 C 
ENDBRANCH  23  25
ENDBRANCH  22  23
ENDBRANCH   1  22
TORSDOF 6
ENDMDL
MODEL 6
REMARK VINA RESULT:      -5.7      7.251     11.219
REMARK  Name = 
REMARK  9 active torsions:
REMARK  status: ('A' for Active; 'I' for Inactive)
REMARK    1  A    between atoms: C_2  and  C_3
REMARK    2  A    between atoms: C_3  and  S_4
REMARK    3  A    between atoms: S_4  and  C_5
REMARK    4  A    between atoms: C_9  and  C_10
REMARK    5  A    between atoms: C_10  and  C_11
REMARK    6  A    between atoms: C_12  and  C_13
REMARK    7  A    between atoms: N_17  and  C_18
REMARK    8  A    between atoms: C_21  and  O_22
REMARK    9  A    between atoms: O_22  and  C_23
REMARK                            x       y       z     vdW  Elec       q    Type
REMARK                         _______ _______ _______ _____ _____    ______ ____
ROOT
ATOM      1  C   UNL     1      -5.063  13.111  19.956  0.00  0.00    +0.000 A 
ATOM      2  N   UNL     1      -5.359  12.663  18.774  0.00  0.00    +0.000 NA
ATOM      3  C   UNL     1      -4.380  11.931  18.159  0.00  0.00    +0.000 A 
ATOM      4  S   UNL     1      -4.594  11.193  16.633  0.00  0.00    +0.000 S 
ATOM      5  C   UNL     1      -3.015  10.472  16.642  0.00  0.00    +0.000 A 
ATOM      6  C   UNL     1      -2.331  10.794  17.809  0.00  0.00    +0.000 A 
ATOM      7  C   UNL     1      -0.953  10.386  18.247  0.00  0.00    +0.000 C 
ATOM      8  C   UNL     1      -3.147  11.636  18.657  0.00  0.00    +0.000 A 
ATOM      9  C   UNL     1      -2.803  12.163  19.958  0.00  0.00    +0.000 A 
ATOM     10  O   UNL     1      -1.684  11.946  20.447  0.00  0.00    +0.000 OA
ATOM     11  N   UNL     1      -3.806  12.911  20.579  0.00  0.00    +0.000 N 
ENDROOT
BRANCH  11  12
ATOM     12  C   UNL     1      -3.463  13.418  21.863  0.00  0.00    +0.000 A 
ATOM     13  C   UNL     1      -3.800  12.717  23.017  0.00  0.00    +0.000 A 
ATOM     14  C   UNL     1      -3.508  13.259  24.266  0.00  0.00    +0.000 A 
ATOM     15  C   UNL     1      -2.898  14.507  24.374  0.00  0.00    +0.000 A 
ATOM     16  C   UNL     1      -2.620  15.245  23.225  0.00  0.00    +0.000 A 
ATOM     17  C   UNL     1      -2.902  14.705  21.970  0.00  0.00    +0.000 A 
BRANCH  15  18
ATOM     18  O   UNL     1      -2.674  14.923  25.657  0.00  0.00    +0.000 OA
ATOM     19  C   UNL     1      -1.911  16.116  25.789  0.00  0.00    +0.000 C 
ENDBRANCH  15  18
ENDBRANCH  11  12
BRANCH   5  20
ATOM     20  C   UNL     1      -2.578   9.678  15.423  0.00  0.00    +0.000 C 
ATOM     21  C   UNL     1      -3.275  10.067  14.124  0.00  0.00    +0.000 C 
ENDBRANCH   5  20
BRANCH   1  22
ATOM     22  S   UNL     1      -6.318  14.006  20.846  0.00  0.00    +0.000 S 
BRANCH  22  23
ATOM     23  C   UNL     1      -7.187  12.725  21.826  0.00  0.00    +0.000 C 
BRANCH  23  25
ATOM     24  C   UNL     1      -7.726  13.634  24.445  0.00  0.00    +0.000 C 
ATOM     25  C   UNL     1      -7.477  13.215  23.236  0.00  0.00    +0.000 C 
ENDBRANCH  23  25
ENDBRANCH  22  23
ENDBRANCH   1  22
TORSDOF 6
ENDMDL
MODEL 7
REMARK VINA RESULT:      -5.6      6.343     10.371
REMARK  Name = 
REMARK  9 active torsions:
REMARK  status: ('A' for Active; 'I' for Inactive)
REMARK    1  A    between atoms: C_2  and  C_3
REMARK    2  A    between atoms: C_3  and  S_4
REMARK    3  A    between atoms: S_4  and  C_5
REMARK    4  A    between atoms: C_9  and  C_10
REMARK    5  A    between atoms: C_10  and  C_11
REMARK    6  A    between atoms: C_12  and  C_13
REMARK    7  A    between atoms: N_17  and  C_18
REMARK    8  A    between atoms: C_21  and  O_22
REMARK    9  A    between atoms: O_22  and  C_23
REMARK                            x       y       z     vdW  Elec       q    Type
REMARK                         _______ _______ _______ _____ _____    ______ ____
ROOT
ATOM      1  C   UNL     1      -1.628  11.891  20.577  0.00  0.00    +0.000 A 
ATOM      2  N   UNL     1      -1.327  11.132  19.567  0.00  0.00    +0.000 NA
ATOM      3  C   UNL     1      -2.270  11.069  18.577  0.00  0.00    +0.000 A 
ATOM      4  S   UNL     1      -2.040  10.185  17.132  0.00  0.00    +0.000 S 
ATOM      5  C   UNL     1      -3.570  10.668  16.469  0.00  0.00    +0.000 A 
ATOM      6  C   UNL     1      -4.250  11.502  17.350  0.00  0.00    +0.000 A 
ATOM      7  C   UNL     1      -5.591  12.161  17.191  0.00  0.00    +0.000 C 
ATOM      8  C   UNL     1      -3.471  11.709  18.552  0.00  0.00    +0.000 A 
ATOM      9  C   UNL     1      -3.823  12.527  19.691  0.00  0.00    +0.000 A 
ATOM     10  O   UNL     1      -4.916  13.111  19.732  0.00  0.00    +0.000 OA
ATOM     11  N   UNL     1      -2.857  12.586  20.699  0.00  0.00    +0.000 N 
ENDROOT
BRANCH  11  12
ATOM     12  C   UNL     1      -3.206  13.398  21.812  0.00  0.00    +0.000 A 
ATOM     13  C   UNL     1      -2.886  14.753  21.831  0.00  0.00    +0.000 A 
ATOM     14  C   UNL     1      -3.183  15.519  22.954  0.00  0.00    +0.000 A 
ATOM     15  C   UNL     1      -3.782  14.940  24.071  0.00  0.00    +0.000 A 
ATOM     16  C   UNL     1      -4.043  13.571  24.086  0.00  0.00    +0.000 A 
ATOM     17  C   UNL     1      -3.755  12.799  22.961  0.00  0.00    +0.000 A 
BRANCH  15  18
ATOM     18  O   UNL     1      -4.013  15.802  25.106  0.00  0.00    +0.000 OA
ATOM     19  C   UNL     1      -3.258  17.006  25.081  0.00  0.00    +0.000 C 
ENDBRANCH  15  18
ENDBRANCH  11  12
BRANCH   5  20
ATOM     20  C   UNL     1      -3.980  10.106  15.119  0.00  0.00    +0.000 C 
ATOM     21  C   UNL     1      -2.842   9.968  14.113  0.00  0.00    +0.000 C 
ENDBRANCH   5  20
BRANCH   1  22
ATOM     22  S   UNL     1      -0.414  12.082  21.865  0.00  0.00    +0.000 S 
BRANCH  22  23
ATOM     23  C   UNL     1      -0.521  10.528  22.829  0.00  0.00    +0.000 C 
BRANCH  23  25
ATOM     24  C   UNL     1       1.146   8.530  21.730  0.00  0.00    +0.000 C 
ATOM     25  C   UNL     1       0.376   9.452  22.237  0.00  0.00    +0.000 C 
ENDBRANCH  23  25
ENDBRANCH  22  23
ENDBRANCH   1  22
TORSDOF 6
ENDMDL
MODEL 8
REMARK VINA RESULT:      -5.6      2.250      7.449
REMARK  Name = 
REMARK  9 active torsions:
REMARK  status: ('A' for Active; 'I' for Inactive)
REMARK    1  A    between atoms: C_2  and  C_3
REMARK    2  A    between atoms: C_3  and  S_4
REMARK    3  A    between atoms: S_4  and  C_5
REMARK    4  A    between atoms: C_9  and  C_10
REMARK    5  A    between atoms: C_10  and  C_11
REMARK    6  A    between atoms: C_12  and  C_13
REMARK    7  A    between atoms: N_17  and  C_18
REMARK    8  A    between atoms: C_21  and  O_22
REMARK    9  A    between atoms: O_22  and  C_23
REMARK                            x       y       z     vdW  Elec       q    Type
REMARK                         _______ _______ _______ _____ _____    ______ ____
ROOT
ATOM      1  C   UNL     1       0.954   7.839  20.426  0.00  0.00    +0.000 A 
ATOM      2  N   UNL     1       1.497   6.672  20.604  0.00  0.00    +0.000 NA
ATOM      3  C   UNL     1       2.452   6.322  19.689  0.00  0.00    +0.000 A 
ATOM      4  S   UNL     1       3.337   4.863  19.784  0.00  0.00    +0.000 S 
ATOM      5  C   UNL     1       4.299   5.232  18.386  0.00  0.00    +0.000 A 
ATOM      6  C   UNL     1       3.943   6.467  17.853  0.00  0.00    +0.000 A 
ATOM      7  C   UNL     1       4.510   7.187  16.663  0.00  0.00    +0.000 C 
ATOM      8  C   UNL     1       2.877   7.064  18.629  0.00  0.00    +0.000 A 
ATOM      9  C   UNL     1       2.249   8.347  18.410  0.00  0.00    +0.000 A 
ATOM     10  O   UNL     1       2.580   9.051  17.444  0.00  0.00    +0.000 OA
ATOM     11  N   UNL     1       1.274   8.697  19.346  0.00  0.00    +0.000 N 
ENDROOT
BRANCH  11  12
ATOM     12  C   UNL     1       0.667   9.965  19.129  0.00  0.00    +0.000 A 
ATOM     13  C   UNL     1       1.343  11.140  19.446  0.00  0.00    +0.000 A 
ATOM     14  C   UNL     1       0.710  12.369  19.282  0.00  0.00    +0.000 A 
ATOM     15  C   UNL     1      -0.603  12.435  18.820  0.00  0.00    +0.000 A 
ATOM     16  C   UNL     1      -1.309  11.261  18.565  0.00  0.00    +0.000 A 
ATOM     17  C   UNL     1      -0.679  10.027  18.720  0.00  0.00    +0.000 A 
BRANCH  15  18
ATOM     18  O   UNL     1      -1.106  13.702  18.710  0.00  0.00    +0.000 OA
ATOM     19  C   UNL     1      -0.161  14.752  18.868  0.00  0.00    +0.000 C 
ENDBRANCH  15  18
ENDBRANCH  11  12
BRANCH   5  20
ATOM     20  C   UNL     1       5.304   4.198  17.910  0.00  0.00    +0.000 C 
ATOM     21  C   UNL     1       5.168   3.804  16.443  0.00  0.00    +0.000 C 
ENDBRANCH   5  20
BRANCH   1  22
ATOM     22  S   UNL     1      -0.242   8.391  21.625  0.00  0.00    +0.000 S 
BRANCH  22  23
ATOM     23  C   UNL     1       0.589   9.771  22.497  0.00  0.00    +0.000 C 
BRANCH  23  25
ATOM     24  C   UNL     1      -1.143  11.984  22.784  0.00  0.00    +0.000 C 
ATOM     25  C   UNL     1      -0.343  10.963  22.652  0.00  0.00    +0.000 C 
ENDBRANCH  23  25
ENDBRANCH  22  23
ENDBRANCH   1  22
TORSDOF 6
ENDMDL
MODEL 9
REMARK VINA RESULT:      -5.5      5.474      8.426
REMARK  Name = 
REMARK  9 active torsions:
REMARK  status: ('A' for Active; 'I' for Inactive)
REMARK    1  A    between atoms: C_2  and  C_3
REMARK    2  A    between atoms: C_3  and  S_4
REMARK    3  A    between atoms: S_4  and  C_5
REMARK    4  A    between atoms: C_9  and  C_10
REMARK    5  A    between atoms: C_10  and  C_11
REMARK    6  A    between atoms: C_12  and  C_13
REMARK    7  A    between atoms: N_17  and  C_18
REMARK    8  A    between atoms: C_21  and  O_22
REMARK    9  A    between atoms: O_22  and  C_23
REMARK                            x       y       z     vdW  Elec       q    Type
REMARK                         _______ _______ _______ _____ _____    ______ ____
ROOT
ATOM      1  C   UNL     1       0.496  11.907  20.661  0.00  0.00    +0.000 A 
ATOM      2  N   UNL     1       1.644  12.308  21.116  0.00  0.00    +0.000 NA
ATOM      3  C   UNL     1       2.075  13.517  20.643  0.00  0.00    +0.000 A 
ATOM      4  S   UNL     1       3.524  14.256  21.169  0.00  0.00    +0.000 S 
ATOM      5  C   UNL     1       3.282  15.671  20.193  0.00  0.00    +0.000 A 
ATOM      6  C   UNL     1       2.096  15.576  19.471  0.00  0.00    +0.000 A 
ATOM      7  C   UNL     1       1.484  16.561  18.515  0.00  0.00    +0.000 C 
ATOM      8  C   UNL     1       1.430  14.323  19.754  0.00  0.00    +0.000 A 
ATOM      9  C   UNL     1       0.169  13.863  19.220  0.00  0.00    +0.000 A 
ATOM     10  O   UNL     1      -0.447  14.545  18.389  0.00  0.00    +0.000 OA
ATOM     11  N   UNL     1      -0.265  12.627  19.706  0.00  0.00    +0.000 N 
ENDROOT
BRANCH  11  12
ATOM     12  C   UNL     1      -1.511  12.185  19.183  0.00  0.00    +0.000 A 
ATOM     13  C   UNL     1      -1.578  11.559  17.941  0.00  0.00    +0.000 A 
ATOM     14  C   UNL     1      -2.814  11.187  17.419  0.00  0.00    +0.000 A 
ATOM     15  C   UNL     1      -3.990  11.451  18.120  0.00  0.00    +0.000 A 
ATOM     16  C   UNL     1      -3.936  12.137  19.332  0.00  0.00    +0.000 A 
ATOM     17  C   UNL     1      -2.700  12.506  19.864  0.00  0.00    +0.000 A 
BRANCH  15  18
ATOM     18  O   UNL     1      -5.132  11.039  17.493  0.00  0.00    +0.000 OA
ATOM     19  C   UNL     1      -6.316  11.097  18.277  0.00  0.00    +0.000 C 
ENDBRANCH  15  18
ENDBRANCH  11  12
BRANCH   5  20
ATOM     20  C   UNL     1       4.356  16.744  20.200  0.00  0.00    +0.000 C 
ATOM     21  C   UNL     1       5.292  16.718  18.996  0.00  0.00    +0.000 C 
ENDBRANCH   5  20
BRANCH   1  22
ATOM     22  S   UNL     1      -0.163  10.379  21.293  0.00  0.00    +0.000 S 
BRANCH  22  23
ATOM     23  C   UNL     1       0.966   9.091  20.645  0.00  0.00    +0.000 C 
BRANCH  23  25
ATOM     24  C   UNL     1       1.468   9.466  17.891  0.00  0.00    +0.000 C 
ATOM     25  C   UNL     1       1.237   9.293  19.163  0.00  0.00    +0.000 C 
ENDBRANCH  23  25
ENDBRANCH  22  23
ENDBRANCH   1  22
TORSDOF 6
ENDMDL
