MODEL 1
REMARK VINA RESULT:      -8.0      0.000      0.000
REMARK  Name = 
REMARK  7 active torsions:
REMARK  status: ('A' for Active; 'I' for Inactive)
REMARK    1  A    between atoms: C_1  and  C_2
REMARK    2  A    between atoms: C_2  and  O_3
REMARK    3  A    between atoms: O_3  and  C_4
REMARK    4  A    between atoms: C_4  and  C_6
REMARK    5  A    between atoms: C_6  and  C_7
REMARK    6  A    between atoms: C_9  and  C_10
REMARK    7  A    between atoms: C_18  and  C_19
REMARK                            x       y       z     vdW  Elec       q    Type
REMARK                         _______ _______ _______ _____ _____    ______ ____
ROOT
ATOM      1  C   UNL     1       3.674   4.787  17.714  0.00  0.00    +0.000 A 
ATOM      2  N   UNL     1       2.738   5.444  18.486  0.00  0.00    +0.000 NA
ATOM      3  C   UNL     1       2.966   6.722  18.256  0.00  0.00    +0.000 A 
ATOM      4  O   UNL     1       4.054   6.956  17.454  0.00  0.00    +0.000 OA
ATOM      5  C   UNL     1       4.472   5.707  17.058  0.00  0.00    +0.000 A 
ENDROOT
BRANCH   3   6
ATOM      6  C   UNL     1       2.195   7.879  18.708  0.00  0.00    +0.000 A 
ATOM      7  C   UNL     1       1.796   7.955  20.055  0.00  0.00    +0.000 A 
ATOM      8  C   UNL     1       1.017   9.020  20.517  0.00  0.00    +0.000 A 
ATOM      9  C   UNL     1       0.625  10.019  19.632  0.00  0.00    +0.000 A 
ATOM     10 CL   UNL     1      -0.349  11.322  20.191  0.00  0.00    +0.000 Cl
ATOM     11  C   UNL     1       1.007   9.961  18.293  0.00  0.00    +0.000 A 
ATOM     12  C   UNL     1       1.792   8.898  17.834  0.00  0.00    +0.000 A 
ENDBRANCH   3   6
BRANCH   5  13
ATOM     13  C   UNL     1       5.575   5.440  16.111  0.00  0.00    +0.000 A 
ATOM     14  C   UNL     1       5.528   4.822  14.834  0.00  0.00    +0.000 A 
ATOM     15  C   UNL     1       6.826   4.793  14.378  0.00  0.00    +0.000 A 
ATOM     16  O   UNL     1       7.662   5.355  15.289  0.00  0.00    +0.000 OA
ATOM     17  C   UNL     1       6.891   5.770  16.330  0.00  0.00    +0.000 A 
ENDBRANCH   5  13
BRANCH   1  18
ATOM     18  C   UNL     1       3.735   3.306  17.736  0.00  0.00    +0.000 C 
BRANCH  18  19
ATOM     19  C   UNL     1       4.014   2.810  19.130  0.00  0.00    +0.000 C 
ATOM     20  O   UNL     1       5.080   2.910  19.728  0.00  0.00    +0.000 OA
BRANCH  19  21
ATOM     21  O   UNL     1       2.892   2.219  19.632  0.00  0.00    +0.000 OA
BRANCH  21  23
ATOM     22  C   UNL     1       1.180   3.384  20.812  0.00  0.00    +0.000 C 
ATOM     23  C   UNL     1       2.514   2.669  20.938  0.00  0.00    +0.000 C 
ENDBRANCH  21  23
ENDBRANCH  19  21
ENDBRANCH  18  19
ENDBRANCH   1  18
TORSDOF 6
ENDMDL
MODEL 2
REMARK VINA RESULT:      -7.8      0.652      1.211
REMARK  Name = 
REMARK  7 active torsions:
REMARK  status: ('A' for Active; 'I' for Inactive)
REMARK    1  A    between atoms: C_1  and  C_2
REMARK    2  A    between atoms: C_2  and  O_3
REMARK    3  A    between atoms: O_3  and  C_4
REMARK    4  A    between atoms: C_4  and  C_6
REMARK    5  A    between atoms: C_6  and  C_7
REMARK    6  A    between atoms: C_9  and  C_10
REMARK    7  A    between atoms: C_18  and  C_19
REMARK                            x       y       z     vdW  Elec       q    Type
REMARK                         _______ _______ _______ _____ _____    ______ ____
ROOT
ATOM      1  C   UNL     1       3.469   4.685  17.575  0.00  0.00    +0.000 A 
ATOM      2  N   UNL     1       2.507   5.383  18.277  0.00  0.00    +0.000 NA
ATOM      3  C   UNL     1       2.906   6.637  18.217  0.00  0.00    +0.000 A 
ATOM      4  O   UNL     1       4.119   6.805  17.599  0.00  0.00    +0.000 OA
ATOM      5  C   UNL     1       4.451   5.554  17.134  0.00  0.00    +0.000 A 
ENDROOT
BRANCH   3   6
ATOM      6  C   UNL     1       2.208   7.837  18.679  0.00  0.00    +0.000 A 
ATOM      7  C   UNL     1       2.062   8.926  17.802  0.00  0.00    +0.000 A 
ATOM      8  C   UNL     1       1.444  10.109  18.219  0.00  0.00    +0.000 A 
ATOM      9  C   UNL     1       0.970  10.214  19.522  0.00  0.00    +0.000 A 
ATOM     10 CL   UNL     1       0.225  11.674  20.046  0.00  0.00    +0.000 Cl
ATOM     11  C   UNL     1       1.107   9.147  20.408  0.00  0.00    +0.000 A 
ATOM     12  C   UNL     1       1.720   7.962  19.987  0.00  0.00    +0.000 A 
ENDBRANCH   3   6
BRANCH   5  13
ATOM     13  C   UNL     1       5.646   5.237  16.323  0.00  0.00    +0.000 A 
ATOM     14  C   UNL     1       5.785   5.203  14.911  0.00  0.00    +0.000 A 
ATOM     15  C   UNL     1       7.087   4.829  14.667  0.00  0.00    +0.000 A 
ATOM     16  O   UNL     1       7.752   4.636  15.834  0.00  0.00    +0.000 OA
ATOM     17  C   UNL     1       6.876   4.910  16.839  0.00  0.00    +0.000 A 
ENDBRANCH   5  13
BRANCH   1  18
ATOM     18  C   UNL     1       3.363   3.212  17.449  0.00  0.00    +0.000 C 
BRANCH  18  19
ATOM     19  C   UNL     1       3.575   2.551  18.785  0.00  0.00    +0.000 C 
ATOM     20  O   UNL     1       4.510   2.764  19.550  0.00  0.00    +0.000 OA
BRANCH  19  21
ATOM     21  O   UNL     1       2.565   1.665  19.017  0.00  0.00    +0.000 OA
BRANCH  21  23
ATOM     22  C   UNL     1       1.157   2.874  20.512  0.00  0.00    +0.000 C 
ATOM     23  C   UNL     1       1.266   2.257  19.129  0.00  0.00    +0.000 C 
ENDBRANCH  21  23
ENDBRANCH  19  21
ENDBRANCH  18  19
ENDBRANCH   1  18
TORSDOF 6
ENDMDL
MODEL 3
REMARK VINA RESULT:      -7.6      1.053      1.494
REMARK  Name = 
REMARK  7 active torsions:
REMARK  status: ('A' for Active; 'I' for Inactive)
REMARK    1  A    between atoms: C_1  and  C_2
REMARK    2  A    between atoms: C_2  and  O_3
REMARK    3  A    between atoms: O_3  and  C_4
REMARK    4  A    between atoms: C_4  and  C_6
REMARK    5  A    between atoms: C_6  and  C_7
REMARK    6  A    between atoms: C_9  and  C_10
REMARK    7  A    between atoms: C_18  and  C_19
REMARK                            x       y       z     vdW  Elec       q    Type
REMARK                         _______ _______ _______ _____ _____    ______ ____
ROOT
ATOM      1  C   UNL     1       4.470   5.002  18.663  0.00  0.00    +0.000 A 
ATOM      2  N   UNL     1       3.553   5.695  19.427  0.00  0.00    +0.000 NA
ATOM      3  C   UNL     1       3.277   6.766  18.711  0.00  0.00    +0.000 A 
ATOM      4  O   UNL     1       4.020   6.874  17.563  0.00  0.00    +0.000 OA
ATOM      5  C   UNL     1       4.745   5.707  17.505  0.00  0.00    +0.000 A 
ENDROOT
BRANCH   3   6
ATOM      6  C   UNL     1       2.272   7.797  18.968  0.00  0.00    +0.000 A 
ATOM      7  C   UNL     1       1.856   8.628  17.913  0.00  0.00    +0.000 A 
ATOM      8  C   UNL     1       0.934   9.657  18.126  0.00  0.00    +0.000 A 
ATOM      9  C   UNL     1       0.422   9.868  19.402  0.00  0.00    +0.000 A 
ATOM     10 CL   UNL     1      -0.700  11.143  19.674  0.00  0.00    +0.000 Cl
ATOM     11  C   UNL     1       0.823   9.057  20.463  0.00  0.00    +0.000 A 
ATOM     12  C   UNL     1       1.742   8.024  20.246  0.00  0.00    +0.000 A 
ENDBRANCH   3   6
BRANCH   5  13
ATOM     13  C   UNL     1       5.643   5.317  16.397  0.00  0.00    +0.000 A 
ATOM     14  C   UNL     1       5.409   4.408  15.333  0.00  0.00    +0.000 A 
ATOM     15  C   UNL     1       6.567   4.384  14.591  0.00  0.00    +0.000 A 
ATOM     16  O   UNL     1       7.492   5.221  15.128  0.00  0.00    +0.000 OA
ATOM     17  C   UNL     1       6.913   5.806  16.212  0.00  0.00    +0.000 A 
ENDBRANCH   5  13
BRANCH   1  18
ATOM     18  C   UNL     1       5.036   3.729  19.170  0.00  0.00    +0.000 C 
BRANCH  18  19
ATOM     19  C   UNL     1       3.935   2.778  19.557  0.00  0.00    +0.000 C 
ATOM     20  O   UNL     1       3.623   2.470  20.702  0.00  0.00    +0.000 OA
BRANCH  19  21
ATOM     21  O   UNL     1       3.334   2.299  18.431  0.00  0.00    +0.000 OA
BRANCH  21  23
ATOM     22  C   UNL     1       1.277   3.465  18.128  0.00  0.00    +0.000 C 
ATOM     23  C   UNL     1       1.914   2.146  18.531  0.00  0.00    +0.000 C 
ENDBRANCH  21  23
ENDBRANCH  19  21
ENDBRANCH  18  19
ENDBRANCH   1  18
TORSDOF 6
ENDMDL
MODEL 4
REMARK VINA RESULT:      -7.6      1.047      1.115
REMARK  Name = 
REMARK  7 active torsions:
REMARK  status: ('A' for Active; 'I' for Inactive)
REMARK    1  A    between atoms: C_1  and  C_2
REMARK    2  A    between atoms: C_2  and  O_3
REMARK    3  A    between atoms: O_3  and  C_4
REMARK    4  A    between atoms: C_4  and  C_6
REMARK    5  A    between atoms: C_6  and  C_7
REMARK    6  A    between atoms: C_9  and  C_10
REMARK    7  A    between atoms: C_18  and  C_19
REMARK                            x       y       z     vdW  Elec       q    Type
REMARK                         _______ _______ _______ _____ _____    ______ ____
ROOT
ATOM      1  C   UNL     1       4.401   4.944  18.707  0.00  0.00    +0.000 A 
ATOM      2  N   UNL     1       3.504   5.690  19.444  0.00  0.00    +0.000 NA
ATOM      3  C   UNL     1       3.284   6.758  18.704  0.00  0.00    +0.000 A 
ATOM      4  O   UNL     1       4.047   6.812  17.565  0.00  0.00    +0.000 OA
ATOM      5  C   UNL     1       4.722   5.614  17.540  0.00  0.00    +0.000 A 
ENDROOT
BRANCH   3   6
ATOM      6  C   UNL     1       2.320   7.835  18.926  0.00  0.00    +0.000 A 
ATOM      7  C   UNL     1       1.773   8.012  20.210  0.00  0.00    +0.000 A 
ATOM      8  C   UNL     1       0.812   8.999  20.454  0.00  0.00    +0.000 A 
ATOM      9  C   UNL     1       0.387   9.817  19.412  0.00  0.00    +0.000 A 
ATOM     10 CL   UNL     1      -0.807  11.020  19.703  0.00  0.00    +0.000 Cl
ATOM     11  C   UNL     1       0.915   9.656  18.133  0.00  0.00    +0.000 A 
ATOM     12  C   UNL     1       1.880   8.672  17.892  0.00  0.00    +0.000 A 
ENDBRANCH   3   6
BRANCH   5  13
ATOM     13  C   UNL     1       5.618   5.166  16.453  0.00  0.00    +0.000 A 
ATOM     14  C   UNL     1       5.334   4.318  15.351  0.00  0.00    +0.000 A 
ATOM     15  C   UNL     1       6.512   4.195  14.651  0.00  0.00    +0.000 A 
ATOM     16  O   UNL     1       7.497   4.913  15.250  0.00  0.00    +0.000 OA
ATOM     17  C   UNL     1       6.939   5.523  16.332  0.00  0.00    +0.000 A 
ENDBRANCH   5  13
BRANCH   1  18
ATOM     18  C   UNL     1       4.906   3.659  19.246  0.00  0.00    +0.000 C 
BRANCH  18  19
ATOM     19  C   UNL     1       3.762   2.788  19.692  0.00  0.00    +0.000 C 
ATOM     20  O   UNL     1       3.422   2.590  20.854  0.00  0.00    +0.000 OA
BRANCH  19  21
ATOM     21  O   UNL     1       3.159   2.239  18.599  0.00  0.00    +0.000 OA
BRANCH  21  23
ATOM     22  C   UNL     1       1.164   3.475  18.185  0.00  0.00    +0.000 C 
ATOM     23  C   UNL     1       1.732   2.158  18.683  0.00  0.00    +0.000 C 
ENDBRANCH  21  23
ENDBRANCH  19  21
ENDBRANCH  18  19
ENDBRANCH   1  18
TORSDOF 6
ENDMDL
MODEL 5
REMARK VINA RESULT:      -7.5      0.802      1.472
REMARK  Name = 
REMARK  7 active torsions:
REMARK  status: ('A' for Active; 'I' for Inactive)
REMARK    1  A    between atoms: C_1  and  C_2
REMARK    2  A    between atoms: C_2  and  O_3
REMARK    3  A    between atoms: O_3  and  C_4
REMARK    4  A    between atoms: C_4  and  C_6
REMARK    5  A    between atoms: C_6  and  C_7
REMARK    6  A    between atoms: C_9  and  C_10
REMARK    7  A    between atoms: C_18  and  C_19
REMARK                            x       y       z     vdW  Elec       q    Type
REMARK                         _______ _______ _______ _____ _____    ______ ____
ROOT
ATOM      1  C   UNL     1       3.660   4.710  17.946  0.00  0.00    +0.000 A 
ATOM      2  N   UNL     1       2.708   5.425  18.645  0.00  0.00    +0.000 NA
ATOM      3  C   UNL     1       2.992   6.685  18.384  0.00  0.00    +0.000 A 
ATOM      4  O   UNL     1       4.126   6.855  17.631  0.00  0.00    +0.000 OA
ATOM      5  C   UNL     1       4.521   5.580  17.301  0.00  0.00    +0.000 A 
ENDROOT
BRANCH   3   6
ATOM      6  C   UNL     1       2.239   7.883  18.756  0.00  0.00    +0.000 A 
ATOM      7  C   UNL     1       2.105   8.926  17.822  0.00  0.00    +0.000 A 
ATOM      8  C   UNL     1       1.435  10.108  18.153  0.00  0.00    +0.000 A 
ATOM      9  C   UNL     1       0.894  10.258  19.427  0.00  0.00    +0.000 A 
ATOM     10 CL   UNL     1       0.084  11.716  19.845  0.00  0.00    +0.000 Cl
ATOM     11  C   UNL     1       1.018   9.237  20.367  0.00  0.00    +0.000 A 
ATOM     12  C   UNL     1       1.685   8.053  20.032  0.00  0.00    +0.000 A 
ENDBRANCH   3   6
BRANCH   5  13
ATOM     13  C   UNL     1       5.660   5.243  16.421  0.00  0.00    +0.000 A 
ATOM     14  C   UNL     1       5.710   5.181  15.005  0.00  0.00    +0.000 A 
ATOM     15  C   UNL     1       6.992   4.798  14.685  0.00  0.00    +0.000 A 
ATOM     16  O   UNL     1       7.730   4.624  15.812  0.00  0.00    +0.000 OA
ATOM     17  C   UNL     1       6.921   4.922  16.864  0.00  0.00    +0.000 A 
ENDBRANCH   5  13
BRANCH   1  18
ATOM     18  C   UNL     1       3.668   3.230  18.022  0.00  0.00    +0.000 C 
BRANCH  18  19
ATOM     19  C   UNL     1       2.312   2.714  18.424  0.00  0.00    +0.000 C 
ATOM     20  O   UNL     1       1.257   2.945  17.845  0.00  0.00    +0.000 OA
BRANCH  19  21
ATOM     21  O   UNL     1       2.435   1.948  19.546  0.00  0.00    +0.000 OA
BRANCH  21  23
ATOM     22  C   UNL     1       1.838   3.078  21.557  0.00  0.00    +0.000 C 
ATOM     23  C   UNL     1       2.990   2.630  20.676  0.00  0.00    +0.000 C 
ENDBRANCH  21  23
ENDBRANCH  19  21
ENDBRANCH  18  19
ENDBRANCH   1  18
TORSDOF 6
ENDMDL
MODEL 6
REMARK VINA RESULT:      -7.4      1.539      4.123
REMARK  Name = 
REMARK  7 active torsions:
REMARK  status: ('A' for Active; 'I' for Inactive)
REMARK    1  A    between atoms: C_1  and  C_2
REMARK    2  A    between atoms: C_2  and  O_3
REMARK    3  A    between atoms: O_3  and  C_4
REMARK    4  A    between atoms: C_4  and  C_6
REMARK    5  A    between atoms: C_6  and  C_7
REMARK    6  A    between atoms: C_9  and  C_10
REMARK    7  A    between atoms: C_18  and  C_19
REMARK                            x       y       z     vdW  Elec       q    Type
REMARK                         _______ _______ _______ _____ _____    ______ ____
ROOT
ATOM      1  C   UNL     1       4.461   5.568  17.405  0.00  0.00    +0.000 A 
ATOM      2  N   UNL     1       4.007   6.871  17.382  0.00  0.00    +0.000 NA
ATOM      3  C   UNL     1       2.986   6.875  18.214  0.00  0.00    +0.000 A 
ATOM      4  O   UNL     1       2.676   5.638  18.719  0.00  0.00    +0.000 OA
ATOM      5  C   UNL     1       3.664   4.808  18.243  0.00  0.00    +0.000 A 
ENDROOT
BRANCH   3   6
ATOM      6  C   UNL     1       2.197   8.015  18.682  0.00  0.00    +0.000 A 
ATOM      7  C   UNL     1       1.768   8.050  20.020  0.00  0.00    +0.000 A 
ATOM      8  C   UNL     1       0.972   9.096  20.495  0.00  0.00    +0.000 A 
ATOM      9  C   UNL     1       0.594  10.119  19.630  0.00  0.00    +0.000 A 
ATOM     10 CL   UNL     1      -0.399  11.401  20.204  0.00  0.00    +0.000 Cl
ATOM     11  C   UNL     1       1.008  10.103  18.300  0.00  0.00    +0.000 A 
ATOM     12  C   UNL     1       1.809   9.057  17.828  0.00  0.00    +0.000 A 
ENDBRANCH   3   6
BRANCH   5  13
ATOM     13  C   UNL     1       3.810   3.376  18.582  0.00  0.00    +0.000 A 
ATOM     14  C   UNL     1       4.450   2.783  19.701  0.00  0.00    +0.000 A 
ATOM     15  C   UNL     1       4.328   1.423  19.531  0.00  0.00    +0.000 A 
ATOM     16  O   UNL     1       3.653   1.146  18.386  0.00  0.00    +0.000 OA
ATOM     17  C   UNL     1       3.318   2.340  17.826  0.00  0.00    +0.000 A 
ENDBRANCH   5  13
BRANCH   1  18
ATOM     18  C   UNL     1       5.609   5.175  16.555  0.00  0.00    +0.000 C 
BRANCH  18  19
ATOM     19  C   UNL     1       6.889   5.206  17.347  0.00  0.00    +0.000 C 
ATOM     20  O   UNL     1       7.258   4.354  18.148  0.00  0.00    +0.000 OA
BRANCH  19  21
ATOM     21  O   UNL     1       7.580   6.342  17.044  0.00  0.00    +0.000 OA
BRANCH  21  23
ATOM     22  C   UNL     1       7.904   8.614  17.687  0.00  0.00    +0.000 C 
ATOM     23  C   UNL     1       7.884   7.174  18.169  0.00  0.00    +0.000 C 
ENDBRANCH  21  23
ENDBRANCH  19  21
ENDBRANCH  18  19
ENDBRANCH   1  18
TORSDOF 6
ENDMDL
MODEL 7
REMARK VINA RESULT:      -7.4      1.474      4.057
REMARK  Name = 
REMARK  7 active torsions:
REMARK  status: ('A' for Active; 'I' for Inactive)
REMARK    1  A    between atoms: C_1  and  C_2
REMARK    2  A    between atoms: C_2  and  O_3
REMARK    3  A    between atoms: O_3  and  C_4
REMARK    4  A    between atoms: C_4  and  C_6
REMARK    5  A    between atoms: C_6  and  C_7
REMARK    6  A    between atoms: C_9  and  C_10
REMARK    7  A    between atoms: C_18  and  C_19
REMARK                            x       y       z     vdW  Elec       q    Type
REMARK                         _______ _______ _______ _____ _____    ______ ____
ROOT
ATOM      1  C   UNL     1       4.330   5.843  17.307  0.00  0.00    +0.000 A 
ATOM      2  N   UNL     1       3.874   7.145  17.338  0.00  0.00    +0.000 NA
ATOM      3  C   UNL     1       2.883   7.122  18.206  0.00  0.00    +0.000 A 
ATOM      4  O   UNL     1       2.593   5.870  18.684  0.00  0.00    +0.000 OA
ATOM      5  C   UNL     1       3.563   5.057  18.148  0.00  0.00    +0.000 A 
ENDROOT
BRANCH   3   6
ATOM      6  C   UNL     1       2.111   8.246  18.735  0.00  0.00    +0.000 A 
ATOM      7  C   UNL     1       1.916   9.383  17.931  0.00  0.00    +0.000 A 
ATOM      8  C   UNL     1       1.226  10.499  18.416  0.00  0.00    +0.000 A 
ATOM      9  C   UNL     1       0.726  10.487  19.714  0.00  0.00    +0.000 A 
ATOM     10 CL   UNL     1      -0.109  11.863  20.321  0.00  0.00    +0.000 Cl
ATOM     11  C   UNL     1       0.910   9.371  20.528  0.00  0.00    +0.000 A 
ATOM     12  C   UNL     1       1.597   8.254  20.039  0.00  0.00    +0.000 A 
ENDBRANCH   3   6
BRANCH   5  13
ATOM     13  C   UNL     1       3.722   3.616  18.439  0.00  0.00    +0.000 A 
ATOM     14  C   UNL     1       3.185   2.499  17.748  0.00  0.00    +0.000 A 
ATOM     15  C   UNL     1       3.610   1.386  18.435  0.00  0.00    +0.000 A 
ATOM     16  O   UNL     1       4.374   1.747  19.497  0.00  0.00    +0.000 OA
ATOM     17  C   UNL     1       4.460   3.105  19.479  0.00  0.00    +0.000 A 
ENDBRANCH   5  13
BRANCH   1  18
ATOM     18  C   UNL     1       5.447   5.478  16.405  0.00  0.00    +0.000 C 
BRANCH  18  19
ATOM     19  C   UNL     1       6.717   5.282  17.190  0.00  0.00    +0.000 C 
ATOM     20  O   UNL     1       7.614   4.491  16.918  0.00  0.00    +0.000 OA
BRANCH  19  21
ATOM     21  O   UNL     1       6.718   6.121  18.265  0.00  0.00    +0.000 OA
BRANCH  21  23
ATOM     22  C   UNL     1       7.789   8.151  17.622  0.00  0.00    +0.000 C 
ATOM     23  C   UNL     1       7.924   6.874  18.433  0.00  0.00    +0.000 C 
ENDBRANCH  21  23
ENDBRANCH  19  21
ENDBRANCH  18  19
ENDBRANCH   1  18
TORSDOF 6
ENDMDL
MODEL 8
REMARK VINA RESULT:      -7.3      1.129      1.625
REMARK  Name = 
REMARK  7 active torsions:
REMARK  status: ('A' for Active; 'I' for Inactive)
REMARK    1  A    between atoms: C_1  and  C_2
REMARK    2  A    between atoms: C_2  and  O_3
REMARK    3  A    between atoms: O_3  and  C_4
REMARK    4  A    between atoms: C_4  and  C_6
REMARK    5  A    between atoms: C_6  and  C_7
REMARK    6  A    between atoms: C_9  and  C_10
REMARK    7  A    between atoms: C_18  and  C_19
REMARK                            x       y       z     vdW  Elec       q    Type
REMARK                         _______ _______ _______ _____ _____    ______ ____
ROOT
ATOM      1  C   UNL     1       3.125   4.791  17.833  0.00  0.00    +0.000 A 
ATOM      2  N   UNL     1       2.074   5.567  18.276  0.00  0.00    +0.000 NA
ATOM      3  C   UNL     1       2.620   6.738  18.534  0.00  0.00    +0.000 A 
ATOM      4  O   UNL     1       3.982   6.762  18.379  0.00  0.00    +0.000 OA
ATOM      5  C   UNL     1       4.298   5.524  17.870  0.00  0.00    +0.000 A 
ENDROOT
BRANCH   3   6
ATOM      6  C   UNL     1       1.958   7.986  18.914  0.00  0.00    +0.000 A 
ATOM      7  C   UNL     1       1.542   8.166  20.245  0.00  0.00    +0.000 A 
ATOM      8  C   UNL     1       0.863   9.323  20.638  0.00  0.00    +0.000 A 
ATOM      9  C   UNL     1       0.590  10.312  19.699  0.00  0.00    +0.000 A 
ATOM     10 CL   UNL     1      -0.260  11.730  20.174  0.00  0.00    +0.000 Cl
ATOM     11  C   UNL     1       0.991  10.153  18.374  0.00  0.00    +0.000 A 
ATOM     12  C   UNL     1       1.676   8.997  17.984  0.00  0.00    +0.000 A 
ENDBRANCH   3   6
BRANCH   5  13
ATOM     13  C   UNL     1       5.651   5.094  17.457  0.00  0.00    +0.000 A 
ATOM     14  C   UNL     1       6.781   4.800  18.263  0.00  0.00    +0.000 A 
ATOM     15  C   UNL     1       7.794   4.473  17.391  0.00  0.00    +0.000 A 
ATOM     16  O   UNL     1       7.358   4.543  16.107  0.00  0.00    +0.000 OA
ATOM     17  C   UNL     1       6.044   4.897  16.156  0.00  0.00    +0.000 A 
ENDBRANCH   5  13
BRANCH   1  18
ATOM     18  C   UNL     1       2.889   3.375  17.465  0.00  0.00    +0.000 C 
BRANCH  18  19
ATOM     19  C   UNL     1       1.933   2.730  18.433  0.00  0.00    +0.000 C 
ATOM     20  O   UNL     1       0.746   2.505  18.225  0.00  0.00    +0.000 OA
BRANCH  19  21
ATOM     21  O   UNL     1       2.592   2.437  19.591  0.00  0.00    +0.000 OA
BRANCH  21  23
ATOM     22  C   UNL     1       2.139   3.880  21.433  0.00  0.00    +0.000 C 
ATOM     23  C   UNL     1       1.796   2.555  20.776  0.00  0.00    +0.000 C 
ENDBRANCH  21  23
ENDBRANCH  19  21
ENDBRANCH  18  19
ENDBRANCH   1  18
TORSDOF 6
ENDMDL
MODEL 9
REMARK VINA RESULT:      -7.3      1.454      3.878
REMARK  Name = 
REMARK  7 active torsions:
REMARK  status: ('A' for Active; 'I' for Inactive)
REMARK    1  A    between atoms: C_1  and  C_2
REMARK    2  A    between atoms: C_2  and  O_3
REMARK    3  A    between atoms: O_3  and  C_4
REMARK    4  A    between atoms: C_4  and  C_6
REMARK    5  A    between atoms: C_6  and  C_7
REMARK    6  A    between atoms: C_9  and  C_10
REMARK    7  A    between atoms: C_18  and  C_19
REMARK                            x       y       z     vdW  Elec       q    Type
REMARK                         _______ _______ _______ _____ _____    ______ ____
ROOT
ATOM      1  C   UNL     1       4.202   5.919  17.291  0.00  0.00    +0.000 A 
ATOM      2  N   UNL     1       3.731   7.215  17.335  0.00  0.00    +0.000 NA
ATOM      3  C   UNL     1       2.774   7.183  18.241  0.00  0.00    +0.000 A 
ATOM      4  O   UNL     1       2.520   5.928  18.735  0.00  0.00    +0.000 OA
ATOM      5  C   UNL     1       3.480   5.126  18.165  0.00  0.00    +0.000 A 
ENDROOT
BRANCH   3   6
ATOM      6  C   UNL     1       2.008   8.298  18.795  0.00  0.00    +0.000 A 
ATOM      7  C   UNL     1       1.620   8.261  20.146  0.00  0.00    +0.000 A 
ATOM      8  C   UNL     1       0.846   9.283  20.702  0.00  0.00    +0.000 A 
ATOM      9  C   UNL     1       0.448  10.354  19.908  0.00  0.00    +0.000 A 
ATOM     10 CL   UNL     1      -0.520  11.606  20.583  0.00  0.00    +0.000 Cl
ATOM     11  C   UNL     1       0.819  10.409  18.566  0.00  0.00    +0.000 A 
ATOM     12  C   UNL     1       1.599   9.387  18.013  0.00  0.00    +0.000 A 
ENDBRANCH   3   6
BRANCH   5  13
ATOM     13  C   UNL     1       3.670   3.689  18.455  0.00  0.00    +0.000 A 
ATOM     14  C   UNL     1       3.160   2.561  17.760  0.00  0.00    +0.000 A 
ATOM     15  C   UNL     1       3.607   1.457  18.449  0.00  0.00    +0.000 A 
ATOM     16  O   UNL     1       4.359   1.834  19.515  0.00  0.00    +0.000 OA
ATOM     17  C   UNL     1       4.415   3.194  19.498  0.00  0.00    +0.000 A 
ENDBRANCH   5  13
BRANCH   1  18
ATOM     18  C   UNL     1       5.290   5.565  16.348  0.00  0.00    +0.000 C 
BRANCH  18  19
ATOM     19  C   UNL     1       6.552   6.310  16.693  0.00  0.00    +0.000 C 
ATOM     20  O   UNL     1       6.654   7.525  16.822  0.00  0.00    +0.000 OA
BRANCH  19  21
ATOM     21  O   UNL     1       7.577   5.422  16.834  0.00  0.00    +0.000 OA
BRANCH  21  23
ATOM     22  C   UNL     1       7.807   5.652  19.195  0.00  0.00    +0.000 C 
ATOM     23  C   UNL     1       7.557   4.678  18.057  0.00  0.00    +0.000 C 
ENDBRANCH  21  23
ENDBRANCH  19  21
ENDBRANCH  18  19
ENDBRANCH   1  18
TORSDOF 6
ENDMDL
