MODEL 1
REMARK VINA RESULT:      -8.0      0.000      0.000
REMARK  Name = 
REMARK  10 active torsions:
REMARK  status: ('A' for Active; 'I' for Inactive)
REMARK    1  A    between atoms: N_10  and  C_11
REMARK    2  A    between atoms: C_11  and  C_12
REMARK    3  A    between atoms: C_12  and  C_13
REMARK    4  A    between atoms: C_13  and  C_14
REMARK    5  A    between atoms: C_14  and  N_15
REMARK    6  A    between atoms: N_15  and  C_16
REMARK    7  A    between atoms: C_16  and  C_17
REMARK    8  A    between atoms: C_17  and  O_18
REMARK    9  A    between atoms: O_18  and  C_19
REMARK   10  A    between atoms: C_23  and  C_24
REMARK                            x       y       z     vdW  Elec       q    Type
REMARK                         _______ _______ _______ _____ _____    ______ ____
ROOT
ATOM      1  N   UNL     1       7.535   6.302  16.509  0.00  0.00    +0.000 NA
ATOM      2  H   UNL     1       8.527   6.492  16.240  0.00  0.00    +0.000 HD
ENDROOT
BRANCH   1   3
ATOM      3  C   UNL     1       7.065   7.301  17.494  0.00  0.00    +0.000 C 
BRANCH   3   4
ATOM      4  C   UNL     1       8.216   8.041  18.210  0.00  0.00    +0.000 C 
BRANCH   4   5
ATOM      5  C   UNL     1       8.354   9.502  17.764  0.00  0.00    +0.000 C 
BRANCH   5   6
ATOM      6  C   UNL     1       9.023  10.319  18.873  0.00  0.00    +0.000 C 
BRANCH   6  16
ATOM      7  O   UNL     1       7.991  12.541  17.345  0.00  0.00    +0.000 OA
ATOM      8  C   UNL     1       9.153  12.512  17.717  0.00  0.00    +0.000 C 
ATOM      9  C   UNL     1      10.146  13.621  17.540  0.00  0.00    +0.000 C 
ATOM     10  C   UNL     1       9.851  14.956  18.234  0.00  0.00    +0.000 C 
ATOM     11  C   UNL     1      10.449  14.752  19.622  0.00  0.00    +0.000 C 
ATOM     12  C   UNL     1      11.747  13.998  19.294  0.00  0.00    +0.000 C 
ATOM     13  N   UNL     1      11.264  13.087  18.292  0.00  0.00    +0.000 N 
ATOM     14  C   UNL     1      10.969  11.836  18.698  0.00  0.00    +0.000 C 
ATOM     15  O   UNL     1      11.679  11.193  19.461  0.00  0.00    +0.000 OA
ATOM     16  N   UNL     1       9.717  11.487  18.384  0.00  0.00    +0.000 N 
ENDBRANCH   6  16
ENDBRANCH   5   6
ENDBRANCH   4   5
ENDBRANCH   3   4
ENDBRANCH   1   3
BRANCH   1  17
ATOM     17  C   UNL     1       7.398   4.902  16.944  0.00  0.00    +0.000 C 
BRANCH  17  18
ATOM     18  C   UNL     1       5.926   4.517  16.976  0.00  0.00    +0.000 C 
BRANCH  18  19
ATOM     19  O   UNL     1       5.512   4.137  18.228  0.00  0.00    +0.000 OA
BRANCH  19  20
ATOM     20  C   UNL     1       4.288   3.589  18.453  0.00  0.00    +0.000 A 
ATOM     21  C   UNL     1       3.768   2.705  17.509  0.00  0.00    +0.000 A 
ATOM     22  C   UNL     1       2.511   2.127  17.705  0.00  0.00    +0.000 A 
ATOM     23  C   UNL     1       1.761   2.433  18.843  0.00  0.00    +0.000 A 
ATOM     24  C   UNL     1       2.268   3.322  19.808  0.00  0.00    +0.000 A 
ATOM     25  C   UNL     1       3.530   3.888  19.610  0.00  0.00    +0.000 A 
BRANCH  24  26
ATOM     26  C   UNL     1       1.490   3.679  21.051  0.00  0.00    +0.000 C 
ATOM     27  F   UNL     1       0.788   2.595  21.548  0.00  0.00    +0.000 F 
ATOM     28  F   UNL     1       2.358   4.130  22.031  0.00  0.00    +0.000 F 
ATOM     29  F   UNL     1       0.589   4.687  20.753  0.00  0.00    +0.000 F 
ENDBRANCH  24  26
ENDBRANCH  19  20
ENDBRANCH  18  19
ENDBRANCH  17  18
ENDBRANCH   1  17
TORSDOF 10
ENDMDL
MODEL 2
REMARK VINA RESULT:      -7.8      4.591     10.850
REMARK  Name = 
REMARK  10 active torsions:
REMARK  status: ('A' for Active; 'I' for Inactive)
REMARK    1  A    between atoms: N_10  and  C_11
REMARK    2  A    between atoms: C_11  and  C_12
REMARK    3  A    between atoms: C_12  and  C_13
REMARK    4  A    between atoms: C_13  and  C_14
REMARK    5  A    between atoms: C_14  and  N_15
REMARK    6  A    between atoms: N_15  and  C_16
REMARK    7  A    between atoms: C_16  and  C_17
REMARK    8  A    between atoms: C_17  and  O_18
REMARK    9  A    between atoms: O_18  and  C_19
REMARK   10  A    between atoms: C_23  and  C_24
REMARK                            x       y       z     vdW  Elec       q    Type
REMARK                         _______ _______ _______ _____ _____    ______ ____
ROOT
ATOM      1  N   UNL     1       6.711   7.111  16.717  0.00  0.00    +0.000 NA
ATOM      2  H   UNL     1       6.807   7.828  15.961  0.00  0.00    +0.000 HD
ENDROOT
BRANCH   1   3
ATOM      3  C   UNL     1       5.306   7.023  17.171  0.00  0.00    +0.000 C 
BRANCH   3   4
ATOM      4  C   UNL     1       4.640   5.669  16.839  0.00  0.00    +0.000 C 
BRANCH   4   5
ATOM      5  C   UNL     1       5.232   4.502  17.639  0.00  0.00    +0.000 C 
BRANCH   5   6
ATOM      6  C   UNL     1       4.447   3.221  17.339  0.00  0.00    +0.000 C 
BRANCH   6  16
ATOM      7  O   UNL     1       4.868   2.207  20.009  0.00  0.00    +0.000 OA
ATOM      8  C   UNL     1       3.749   2.474  19.601  0.00  0.00    +0.000 C 
ATOM      9  C   UNL     1       2.494   2.422  20.419  0.00  0.00    +0.000 C 
ATOM     10  C   UNL     1       2.391   3.367  21.622  0.00  0.00    +0.000 C 
ATOM     11  C   UNL     1       1.835   4.643  20.999  0.00  0.00    +0.000 C 
ATOM     12  C   UNL     1       0.804   4.082  20.008  0.00  0.00    +0.000 C 
ATOM     13  N   UNL     1       1.546   2.973  19.471  0.00  0.00    +0.000 N 
ATOM     14  C   UNL     1       2.164   3.169  18.289  0.00  0.00    +0.000 C 
ATOM     15  O   UNL     1       1.638   3.744  17.344  0.00  0.00    +0.000 OA
ATOM     16  N   UNL     1       3.472   2.898  18.353  0.00  0.00    +0.000 N 
ENDBRANCH   6  16
ENDBRANCH   5   6
ENDBRANCH   4   5
ENDBRANCH   3   4
ENDBRANCH   1   3
BRANCH   1  17
ATOM     17  C   UNL     1       7.684   7.386  17.788  0.00  0.00    +0.000 C 
BRANCH  17  18
ATOM     18  C   UNL     1       8.010   8.872  17.815  0.00  0.00    +0.000 C 
BRANCH  18  19
ATOM     19  O   UNL     1       8.839   9.206  18.856  0.00  0.00    +0.000 OA
BRANCH  19  20
ATOM     20  C   UNL     1       9.353  10.455  19.003  0.00  0.00    +0.000 A 
ATOM     21  C   UNL     1      10.098  10.999  17.957  0.00  0.00    +0.000 A 
ATOM     22  C   UNL     1      10.645  12.278  18.075  0.00  0.00    +0.000 A 
ATOM     23  C   UNL     1      10.459  13.024  19.242  0.00  0.00    +0.000 A 
ATOM     24  C   UNL     1       9.710  12.495  20.308  0.00  0.00    +0.000 A 
ATOM     25  C   UNL     1       9.158  11.218  20.179  0.00  0.00    +0.000 A 
BRANCH  24  26
ATOM     26  C   UNL     1       9.486  13.267  21.585  0.00  0.00    +0.000 C 
ATOM     27  F   UNL     1      10.498  14.181  21.819  0.00  0.00    +0.000 F 
ATOM     28  F   UNL     1       8.283  13.949  21.512  0.00  0.00    +0.000 F 
ATOM     29  F   UNL     1       9.435  12.384  22.651  0.00  0.00    +0.000 F 
ENDBRANCH  24  26
ENDBRANCH  19  20
ENDBRANCH  18  19
ENDBRANCH  17  18
ENDBRANCH   1  17
TORSDOF 10
ENDMDL
MODEL 3
REMARK VINA RESULT:      -7.8      4.944     10.880
REMARK  Name = 
REMARK  10 active torsions:
REMARK  status: ('A' for Active; 'I' for Inactive)
REMARK    1  A    between atoms: N_10  and  C_11
REMARK    2  A    between atoms: C_11  and  C_12
REMARK    3  A    between atoms: C_12  and  C_13
REMARK    4  A    between atoms: C_13  and  C_14
REMARK    5  A    between atoms: C_14  and  N_15
REMARK    6  A    between atoms: N_15  and  C_16
REMARK    7  A    between atoms: C_16  and  C_17
REMARK    8  A    between atoms: C_17  and  O_18
REMARK    9  A    between atoms: O_18  and  C_19
REMARK   10  A    between atoms: C_23  and  C_24
REMARK                            x       y       z     vdW  Elec       q    Type
REMARK                         _______ _______ _______ _____ _____    ______ ____
ROOT
ATOM      1  N   UNL     1       7.627   6.517  16.419  0.00  0.00    +0.000 NA
ATOM      2  H   UNL     1       7.857   7.114  15.592  0.00  0.00    +0.000 HD
ENDROOT
BRANCH   1   3
ATOM      3  C   UNL     1       6.818   5.351  16.007  0.00  0.00    +0.000 C 
BRANCH   3   4
ATOM      4  C   UNL     1       5.308   5.660  15.901  0.00  0.00    +0.000 C 
BRANCH   4   5
ATOM      5  C   UNL     1       4.521   5.221  17.142  0.00  0.00    +0.000 C 
BRANCH   5   6
ATOM      6  C   UNL     1       4.187   3.730  17.040  0.00  0.00    +0.000 C 
BRANCH   6  16
ATOM      7  O   UNL     1       5.022   2.846  19.659  0.00  0.00    +0.000 OA
ATOM      8  C   UNL     1       3.841   2.899  19.353  0.00  0.00    +0.000 C 
ATOM      9  C   UNL     1       2.694   2.631  20.281  0.00  0.00    +0.000 C 
ATOM     10  C   UNL     1       2.528   3.558  21.491  0.00  0.00    +0.000 C 
ATOM     11  C   UNL     1       1.696   4.702  20.924  0.00  0.00    +0.000 C 
ATOM     12  C   UNL     1       0.700   3.950  20.027  0.00  0.00    +0.000 C 
ATOM     13  N   UNL     1       1.582   2.987  19.423  0.00  0.00    +0.000 N 
ATOM     14  C   UNL     1       2.046   3.276  18.191  0.00  0.00    +0.000 C 
ATOM     15  O   UNL     1       1.342   3.733  17.299  0.00  0.00    +0.000 OA
ATOM     16  N   UNL     1       3.382   3.248  18.137  0.00  0.00    +0.000 N 
ENDBRANCH   6  16
ENDBRANCH   5   6
ENDBRANCH   4   5
ENDBRANCH   3   4
ENDBRANCH   1   3
BRANCH   1  17
ATOM     17  C   UNL     1       7.015   7.345  17.473  0.00  0.00    +0.000 C 
BRANCH  17  18
ATOM     18  C   UNL     1       8.085   8.194  18.144  0.00  0.00    +0.000 C 
BRANCH  18  19
ATOM     19  O   UNL     1       8.071   9.494  17.706  0.00  0.00    +0.000 OA
BRANCH  19  20
ATOM     20  C   UNL     1       8.703  10.493  18.377  0.00  0.00    +0.000 A 
ATOM     21  C   UNL     1       9.421  10.174  19.529  0.00  0.00    +0.000 A 
ATOM     22  C   UNL     1      10.078  11.177  20.247  0.00  0.00    +0.000 A 
ATOM     23  C   UNL     1      10.019  12.506  19.823  0.00  0.00    +0.000 A 
ATOM     24  C   UNL     1       9.301  12.848  18.663  0.00  0.00    +0.000 A 
ATOM     25  C   UNL     1       8.654  11.840  17.945  0.00  0.00    +0.000 A 
BRANCH  24  26
ATOM     26  C   UNL     1       9.213  14.273  18.172  0.00  0.00    +0.000 C 
ATOM     27  F   UNL     1      10.228  14.576  17.283  0.00  0.00    +0.000 F 
ATOM     28  F   UNL     1       7.997  14.472  17.538  0.00  0.00    +0.000 F 
ATOM     29  F   UNL     1       9.300  15.136  19.251  0.00  0.00    +0.000 F 
ENDBRANCH  24  26
ENDBRANCH  19  20
ENDBRANCH  18  19
ENDBRANCH  17  18
ENDBRANCH   1  17
TORSDOF 10
ENDMDL
MODEL 4
REMARK VINA RESULT:      -7.6      1.469      1.918
REMARK  Name = 
REMARK  10 active torsions:
REMARK  status: ('A' for Active; 'I' for Inactive)
REMARK    1  A    between atoms: N_10  and  C_11
REMARK    2  A    between atoms: C_11  and  C_12
REMARK    3  A    between atoms: C_12  and  C_13
REMARK    4  A    between atoms: C_13  and  C_14
REMARK    5  A    between atoms: C_14  and  N_15
REMARK    6  A    between atoms: N_15  and  C_16
REMARK    7  A    between atoms: C_16  and  C_17
REMARK    8  A    between atoms: C_17  and  O_18
REMARK    9  A    between atoms: O_18  and  C_19
REMARK   10  A    between atoms: C_23  and  C_24
REMARK                            x       y       z     vdW  Elec       q    Type
REMARK                         _______ _______ _______ _____ _____    ______ ____
ROOT
ATOM      1  N   UNL     1       7.582   5.561  17.462  0.00  0.00    +0.000 NA
ATOM      2  H   UNL     1       7.453   4.829  18.198  0.00  0.00    +0.000 HD
ENDROOT
BRANCH   1   3
ATOM      3  C   UNL     1       7.022   6.853  17.913  0.00  0.00    +0.000 C 
BRANCH   3   4
ATOM      4  C   UNL     1       7.832   8.075  17.426  0.00  0.00    +0.000 C 
BRANCH   4   5
ATOM      5  C   UNL     1       8.640   8.740  18.548  0.00  0.00    +0.000 C 
BRANCH   5   6
ATOM      6  C   UNL     1       8.653  10.258  18.343  0.00  0.00    +0.000 C 
BRANCH   6  16
ATOM      7  O   UNL     1      11.018  11.612  17.388  0.00  0.00    +0.000 OA
ATOM      8  C   UNL     1      10.739  11.584  18.576  0.00  0.00    +0.000 C 
ATOM      9  C   UNL     1      11.486  12.304  19.658  0.00  0.00    +0.000 C 
ATOM     10  C   UNL     1      11.519  13.836  19.598  0.00  0.00    +0.000 C 
ATOM     11  C   UNL     1      10.241  14.228  20.332  0.00  0.00    +0.000 C 
ATOM     12  C   UNL     1      10.224  13.218  21.489  0.00  0.00    +0.000 C 
ATOM     13  N   UNL     1      10.627  12.027  20.791  0.00  0.00    +0.000 N 
ATOM     14  C   UNL     1       9.647  11.184  20.410  0.00  0.00    +0.000 C 
ATOM     15  O   UNL     1       8.704  10.881  21.130  0.00  0.00    +0.000 OA
ATOM     16  N   UNL     1       9.686  10.927  19.098  0.00  0.00    +0.000 N 
ENDBRANCH   6  16
ENDBRANCH   5   6
ENDBRANCH   4   5
ENDBRANCH   3   4
ENDBRANCH   1   3
BRANCH   1  17
ATOM     17  C   UNL     1       7.045   5.076  16.179  0.00  0.00    +0.000 C 
BRANCH  17  18
ATOM     18  C   UNL     1       5.862   4.154  16.435  0.00  0.00    +0.000 C 
BRANCH  18  19
ATOM     19  O   UNL     1       5.532   4.085  17.765  0.00  0.00    +0.000 OA
BRANCH  19  20
ATOM     20  C   UNL     1       4.243   4.000  18.190  0.00  0.00    +0.000 A 
ATOM     21  C   UNL     1       3.221   4.291  17.286  0.00  0.00    +0.000 A 
ATOM     22  C   UNL     1       1.886   4.219  17.690  0.00  0.00    +0.000 A 
ATOM     23  C   UNL     1       1.560   3.861  19.000  0.00  0.00    +0.000 A 
ATOM     24  C   UNL     1       2.575   3.563  19.926  0.00  0.00    +0.000 A 
ATOM     25  C   UNL     1       3.908   3.628  19.513  0.00  0.00    +0.000 A 
BRANCH  24  26
ATOM     26  C   UNL     1       2.266   3.173  21.351  0.00  0.00    +0.000 C 
ATOM     27  F   UNL     1       2.379   4.247  22.215  0.00  0.00    +0.000 F 
ATOM     28  F   UNL     1       0.974   2.678  21.428  0.00  0.00    +0.000 F 
ATOM     29  F   UNL     1       3.147   2.185  21.758  0.00  0.00    +0.000 F 
ENDBRANCH  24  26
ENDBRANCH  19  20
ENDBRANCH  18  19
ENDBRANCH  17  18
ENDBRANCH   1  17
TORSDOF 10
ENDMDL
MODEL 5
REMARK VINA RESULT:      -7.6      6.725     10.103
REMARK  Name = 
REMARK  10 active torsions:
REMARK  status: ('A' for Active; 'I' for Inactive)
REMARK    1  A    between atoms: N_10  and  C_11
REMARK    2  A    between atoms: C_11  and  C_12
REMARK    3  A    between atoms: C_12  and  C_13
REMARK    4  A    between atoms: C_13  and  C_14
REMARK    5  A    between atoms: C_14  and  N_15
REMARK    6  A    between atoms: N_15  and  C_16
REMARK    7  A    between atoms: C_16  and  C_17
REMARK    8  A    between atoms: C_17  and  O_18
REMARK    9  A    between atoms: O_18  and  C_19
REMARK   10  A    between atoms: C_23  and  C_24
REMARK                            x       y       z     vdW  Elec       q    Type
REMARK                         _______ _______ _______ _____ _____    ______ ____
ROOT
ATOM      1  N   UNL     1       2.292   7.307  18.981  0.00  0.00    +0.000 NA
ATOM      2  H   UNL     1       1.557   6.839  18.403  0.00  0.00    +0.000 HD
ENDROOT
BRANCH   1   3
ATOM      3  C   UNL     1       3.497   6.456  19.074  0.00  0.00    +0.000 C 
BRANCH   3   4
ATOM      4  C   UNL     1       4.129   6.138  17.700  0.00  0.00    +0.000 C 
BRANCH   4   5
ATOM      5  C   UNL     1       5.181   5.023  17.771  0.00  0.00    +0.000 C 
BRANCH   5   6
ATOM      6  C   UNL     1       4.588   3.720  17.228  0.00  0.00    +0.000 C 
BRANCH   6  16
ATOM      7  O   UNL     1       5.171   2.654  19.848  0.00  0.00    +0.000 OA
ATOM      8  C   UNL     1       4.038   2.635  19.393  0.00  0.00    +0.000 C 
ATOM      9  C   UNL     1       2.817   2.176  20.130  0.00  0.00    +0.000 C 
ATOM     10  C   UNL     1       2.409   2.960  21.384  0.00  0.00    +0.000 C 
ATOM     11  C   UNL     1       1.544   4.078  20.813  0.00  0.00    +0.000 C 
ATOM     12  C   UNL     1       0.749   3.335  19.728  0.00  0.00    +0.000 C 
ATOM     13  N   UNL     1       1.791   2.518  19.166  0.00  0.00    +0.000 N 
ATOM     14  C   UNL     1       2.375   2.968  18.037  0.00  0.00    +0.000 C 
ATOM     15  O   UNL     1       1.747   3.449  17.102  0.00  0.00    +0.000 OA
ATOM     16  N   UNL     1       3.703   3.063  18.160  0.00  0.00    +0.000 N 
ENDBRANCH   6  16
ENDBRANCH   5   6
ENDBRANCH   4   5
ENDBRANCH   3   4
ENDBRANCH   1   3
BRANCH   1  17
ATOM     17  C   UNL     1       1.722   7.704  20.280  0.00  0.00    +0.000 C 
BRANCH  17  18
ATOM     18  C   UNL     1       1.507   9.210  20.306  0.00  0.00    +0.000 C 
BRANCH  18  19
ATOM     19  O   UNL     1       1.406   9.745  19.046  0.00  0.00    +0.000 OA
BRANCH  19  20
ATOM     20  C   UNL     1       0.326  10.469  18.649  0.00  0.00    +0.000 A 
ATOM     21  C   UNL     1       0.317  11.843  18.890  0.00  0.00    +0.000 A 
ATOM     22  C   UNL     1      -0.778  12.617  18.500  0.00  0.00    +0.000 A 
ATOM     23  C   UNL     1      -1.877  12.024  17.872  0.00  0.00    +0.000 A 
ATOM     24  C   UNL     1      -1.887  10.641  17.619  0.00  0.00    +0.000 A 
ATOM     25  C   UNL     1      -0.784   9.875  18.003  0.00  0.00    +0.000 A 
BRANCH  24  26
ATOM     26  C   UNL     1      -3.054   9.963  16.943  0.00  0.00    +0.000 C 
ATOM     27  F   UNL     1      -2.684   9.371  15.749  0.00  0.00    +0.000 F 
ATOM     28  F   UNL     1      -3.573   8.988  17.779  0.00  0.00    +0.000 F 
ATOM     29  F   UNL     1      -4.040  10.900  16.684  0.00  0.00    +0.000 F 
ENDBRANCH  24  26
ENDBRANCH  19  20
ENDBRANCH  18  19
ENDBRANCH  17  18
ENDBRANCH   1  17
TORSDOF 10
ENDMDL
MODEL 6
REMARK VINA RESULT:      -7.6      6.484      9.812
REMARK  Name = 
REMARK  10 active torsions:
REMARK  status: ('A' for Active; 'I' for Inactive)
REMARK    1  A    between atoms: N_10  and  C_11
REMARK    2  A    between atoms: C_11  and  C_12
REMARK    3  A    between atoms: C_12  and  C_13
REMARK    4  A    between atoms: C_13  and  C_14
REMARK    5  A    between atoms: C_14  and  N_15
REMARK    6  A    between atoms: N_15  and  C_16
REMARK    7  A    between atoms: C_16  and  C_17
REMARK    8  A    between atoms: C_17  and  O_18
REMARK    9  A    between atoms: O_18  and  C_19
REMARK   10  A    between atoms: C_23  and  C_24
REMARK                            x       y       z     vdW  Elec       q    Type
REMARK                         _______ _______ _______ _____ _____    ______ ____
ROOT
ATOM      1  N   UNL     1       3.393   7.042  17.796  0.00  0.00    +0.000 NA
ATOM      2  H   UNL     1       3.646   6.686  18.746  0.00  0.00    +0.000 HD
ENDROOT
BRANCH   1   3
ATOM      3  C   UNL     1       4.586   7.078  16.923  0.00  0.00    +0.000 C 
BRANCH   3   4
ATOM      4  C   UNL     1       5.834   6.434  17.565  0.00  0.00    +0.000 C 
BRANCH   4   5
ATOM      5  C   UNL     1       5.483   5.388  18.631  0.00  0.00    +0.000 C 
BRANCH   5   6
ATOM      6  C   UNL     1       5.141   4.057  17.953  0.00  0.00    +0.000 C 
BRANCH   6  16
ATOM      7  O   UNL     1       5.138   2.288  20.236  0.00  0.00    +0.000 OA
ATOM      8  C   UNL     1       4.101   2.597  19.671  0.00  0.00    +0.000 C 
ATOM      9  C   UNL     1       2.724   2.211  20.118  0.00  0.00    +0.000 C 
ATOM     10  C   UNL     1       2.252   2.724  21.484  0.00  0.00    +0.000 C 
ATOM     11  C   UNL     1       1.670   4.092  21.145  0.00  0.00    +0.000 C 
ATOM     12  C   UNL     1       0.948   3.804  19.820  0.00  0.00    +0.000 C 
ATOM     13  N   UNL     1       1.925   2.969  19.176  0.00  0.00    +0.000 N 
ATOM     14  C   UNL     1       2.740   3.563  18.281  0.00  0.00    +0.000 C 
ATOM     15  O   UNL     1       2.347   4.370  17.448  0.00  0.00    +0.000 OA
ATOM     16  N   UNL     1       4.031   3.371  18.571  0.00  0.00    +0.000 N 
ENDBRANCH   6  16
ENDBRANCH   5   6
ENDBRANCH   4   5
ENDBRANCH   3   4
ENDBRANCH   1   3
BRANCH   1  17
ATOM     17  C   UNL     1       2.686   8.328  17.920  0.00  0.00    +0.000 C 
BRANCH  17  18
ATOM     18  C   UNL     1       1.806   8.311  19.162  0.00  0.00    +0.000 C 
BRANCH  18  19
ATOM     19  O   UNL     1       1.167   9.508  19.365  0.00  0.00    +0.000 OA
BRANCH  19  20
ATOM     20  C   UNL     1       0.587   9.829  20.552  0.00  0.00    +0.000 A 
ATOM     21  C   UNL     1       0.377   8.816  21.488  0.00  0.00    +0.000 A 
ATOM     22  C   UNL     1      -0.222   9.109  22.716  0.00  0.00    +0.000 A 
ATOM     23  C   UNL     1      -0.621  10.413  23.017  0.00  0.00    +0.000 A 
ATOM     24  C   UNL     1      -0.417  11.448  22.087  0.00  0.00    +0.000 A 
ATOM     25  C   UNL     1       0.191  11.150  20.865  0.00  0.00    +0.000 A 
BRANCH  24  26
ATOM     26  C   UNL     1      -0.834  12.871  22.373  0.00  0.00    +0.000 C 
ATOM     27  F   UNL     1      -1.849  13.289  21.532  0.00  0.00    +0.000 F 
ATOM     28  F   UNL     1      -1.275  12.972  23.682  0.00  0.00    +0.000 F 
ATOM     29  F   UNL     1       0.254  13.710  22.202  0.00  0.00    +0.000 F 
ENDBRANCH  24  26
ENDBRANCH  19  20
ENDBRANCH  18  19
ENDBRANCH  17  18
ENDBRANCH   1  17
TORSDOF 10
ENDMDL
MODEL 7
REMARK VINA RESULT:      -7.5      1.526      2.014
REMARK  Name = 
REMARK  10 active torsions:
REMARK  status: ('A' for Active; 'I' for Inactive)
REMARK    1  A    between atoms: N_10  and  C_11
REMARK    2  A    between atoms: C_11  and  C_12
REMARK    3  A    between atoms: C_12  and  C_13
REMARK    4  A    between atoms: C_13  and  C_14
REMARK    5  A    between atoms: C_14  and  N_15
REMARK    6  A    between atoms: N_15  and  C_16
REMARK    7  A    between atoms: C_16  and  C_17
REMARK    8  A    between atoms: C_17  and  O_18
REMARK    9  A    between atoms: O_18  and  C_19
REMARK   10  A    between atoms: C_23  and  C_24
REMARK                            x       y       z     vdW  Elec       q    Type
REMARK                         _______ _______ _______ _____ _____    ______ ____
ROOT
ATOM      1  N   UNL     1       6.746   7.222  16.907  0.00  0.00    +0.000 NA
ATOM      2  H   UNL     1       6.817   7.853  16.076  0.00  0.00    +0.000 HD
ENDROOT
BRANCH   1   3
ATOM      3  C   UNL     1       7.788   7.556  17.901  0.00  0.00    +0.000 C 
BRANCH   3   4
ATOM      4  C   UNL     1       8.115   9.065  17.960  0.00  0.00    +0.000 C 
BRANCH   4   5
ATOM      5  C   UNL     1       9.182   9.403  19.010  0.00  0.00    +0.000 C 
BRANCH   5   6
ATOM      6  C   UNL     1       9.039  10.867  19.437  0.00  0.00    +0.000 C 
BRANCH   6  16
ATOM      7  O   UNL     1       8.358  12.640  17.262  0.00  0.00    +0.000 OA
ATOM      8  C   UNL     1       9.489  12.602  17.720  0.00  0.00    +0.000 C 
ATOM      9  C   UNL     1      10.616  13.504  17.316  0.00  0.00    +0.000 C 
ATOM     10  C   UNL     1      10.451  15.006  17.575  0.00  0.00    +0.000 C 
ATOM     11  C   UNL     1      10.953  15.155  19.008  0.00  0.00    +0.000 C 
ATOM     12  C   UNL     1      12.165  14.210  19.014  0.00  0.00    +0.000 C 
ATOM     13  N   UNL     1      11.624  13.101  18.276  0.00  0.00    +0.000 N 
ATOM     14  C   UNL     1      11.160  12.060  18.995  0.00  0.00    +0.000 C 
ATOM     15  O   UNL     1      11.749  11.598  19.965  0.00  0.00    +0.000 OA
ATOM     16  N   UNL     1       9.891  11.764  18.694  0.00  0.00    +0.000 N 
ENDBRANCH   6  16
ENDBRANCH   5   6
ENDBRANCH   4   5
ENDBRANCH   3   4
ENDBRANCH   1   3
BRANCH   1  17
ATOM     17  C   UNL     1       6.749   5.817  16.465  0.00  0.00    +0.000 C 
BRANCH  17  18
ATOM     18  C   UNL     1       5.322   5.292  16.414  0.00  0.00    +0.000 C 
BRANCH  18  19
ATOM     19  O   UNL     1       4.425   6.164  16.978  0.00  0.00    +0.000 OA
BRANCH  19  20
ATOM     20  C   UNL     1       3.658   5.826  18.049  0.00  0.00    +0.000 A 
ATOM     21  C   UNL     1       2.994   6.837  18.742  0.00  0.00    +0.000 A 
ATOM     22  C   UNL     1       2.202   6.527  19.849  0.00  0.00    +0.000 A 
ATOM     23  C   UNL     1       2.071   5.203  20.278  0.00  0.00    +0.000 A 
ATOM     24  C   UNL     1       2.732   4.169  19.592  0.00  0.00    +0.000 A 
ATOM     25  C   UNL     1       3.515   4.485  18.480  0.00  0.00    +0.000 A 
BRANCH  24  26
ATOM     26  C   UNL     1       2.617   2.726  20.024  0.00  0.00    +0.000 C 
ATOM     27  F   UNL     1       3.594   2.383  20.941  0.00  0.00    +0.000 F 
ATOM     28  F   UNL     1       1.375   2.510  20.598  0.00  0.00    +0.000 F 
ATOM     29  F   UNL     1       2.745   1.906  18.916  0.00  0.00    +0.000 F 
ENDBRANCH  24  26
ENDBRANCH  19  20
ENDBRANCH  18  19
ENDBRANCH  17  18
ENDBRANCH   1  17
TORSDOF 10
ENDMDL
MODEL 8
REMARK VINA RESULT:      -7.5      6.328     10.034
REMARK  Name = 
REMARK  10 active torsions:
REMARK  status: ('A' for Active; 'I' for Inactive)
REMARK    1  A    between atoms: N_10  and  C_11
REMARK    2  A    between atoms: C_11  and  C_12
REMARK    3  A    between atoms: C_12  and  C_13
REMARK    4  A    between atoms: C_13  and  C_14
REMARK    5  A    between atoms: C_14  and  N_15
REMARK    6  A    between atoms: N_15  and  C_16
REMARK    7  A    between atoms: C_16  and  C_17
REMARK    8  A    between atoms: C_17  and  O_18
REMARK    9  A    between atoms: O_18  and  C_19
REMARK   10  A    between atoms: C_23  and  C_24
REMARK                            x       y       z     vdW  Elec       q    Type
REMARK                         _______ _______ _______ _____ _____    ______ ____
ROOT
ATOM      1  N   UNL     1       3.471   7.367  17.007  0.00  0.00    +0.000 NA
ATOM      2  H   UNL     1       2.896   6.701  16.442  0.00  0.00    +0.000 HD
ENDROOT
BRANCH   1   3
ATOM      3  C   UNL     1       4.765   6.751  17.372  0.00  0.00    +0.000 C 
BRANCH   3   4
ATOM      4  C   UNL     1       4.617   5.507  18.276  0.00  0.00    +0.000 C 
BRANCH   4   5
ATOM      5  C   UNL     1       5.197   4.237  17.641  0.00  0.00    +0.000 C 
BRANCH   5   6
ATOM      6  C   UNL     1       4.058   3.356  17.117  0.00  0.00    +0.000 C 
BRANCH   6  16
ATOM      7  O   UNL     1       4.426   1.758  19.493  0.00  0.00    +0.000 OA
ATOM      8  C   UNL     1       3.355   2.291  19.246  0.00  0.00    +0.000 C 
ATOM      9  C   UNL     1       2.158   2.287  20.147  0.00  0.00    +0.000 C 
ATOM     10  C   UNL     1       2.297   2.968  21.514  0.00  0.00    +0.000 C 
ATOM     11  C   UNL     1       1.955   4.421  21.201  0.00  0.00    +0.000 C 
ATOM     12  C   UNL     1       0.786   4.260  20.216  0.00  0.00    +0.000 C 
ATOM     13  N   UNL     1       1.280   3.175  19.412  0.00  0.00    +0.000 N 
ATOM     14  C   UNL     1       1.859   3.501  18.240  0.00  0.00    +0.000 C 
ATOM     15  O   UNL     1       1.400   4.340  17.474  0.00  0.00    +0.000 OA
ATOM     16  N   UNL     1       3.096   3.003  18.133  0.00  0.00    +0.000 N 
ENDBRANCH   6  16
ENDBRANCH   5   6
ENDBRANCH   4   5
ENDBRANCH   3   4
ENDBRANCH   1   3
BRANCH   1  17
ATOM     17  C   UNL     1       2.683   7.858  18.150  0.00  0.00    +0.000 C 
BRANCH  17  18
ATOM     18  C   UNL     1       2.045   9.193  17.797  0.00  0.00    +0.000 C 
BRANCH  18  19
ATOM     19  O   UNL     1       1.490   9.813  18.889  0.00  0.00    +0.000 OA
BRANCH  19  20
ATOM     20  C   UNL     1       0.276  10.420  18.840  0.00  0.00    +0.000 A 
ATOM     21  C   UNL     1       0.078  11.580  19.589  0.00  0.00    +0.000 A 
ATOM     22  C   UNL     1      -1.159  12.228  19.567  0.00  0.00    +0.000 A 
ATOM     23  C   UNL     1      -2.211  11.721  18.800  0.00  0.00    +0.000 A 
ATOM     24  C   UNL     1      -2.032  10.554  18.036  0.00  0.00    +0.000 A 
ATOM     25  C   UNL     1      -0.789   9.916  18.056  0.00  0.00    +0.000 A 
BRANCH  24  26
ATOM     26  C   UNL     1      -3.143   9.973  17.195  0.00  0.00    +0.000 C 
ATOM     27  F   UNL     1      -4.104  10.919  16.887  0.00  0.00    +0.000 F 
ATOM     28  F   UNL     1      -2.620   9.473  16.014  0.00  0.00    +0.000 F 
ATOM     29  F   UNL     1      -3.749   8.939  17.888  0.00  0.00    +0.000 F 
ENDBRANCH  24  26
ENDBRANCH  19  20
ENDBRANCH  18  19
ENDBRANCH  17  18
ENDBRANCH   1  17
TORSDOF 10
ENDMDL
MODEL 9
REMARK VINA RESULT:      -7.5      1.116      1.981
REMARK  Name = 
REMARK  10 active torsions:
REMARK  status: ('A' for Active; 'I' for Inactive)
REMARK    1  A    between atoms: N_10  and  C_11
REMARK    2  A    between atoms: C_11  and  C_12
REMARK    3  A    between atoms: C_12  and  C_13
REMARK    4  A    between atoms: C_13  and  C_14
REMARK    5  A    between atoms: C_14  and  N_15
REMARK    6  A    between atoms: N_15  and  C_16
REMARK    7  A    between atoms: C_16  and  C_17
REMARK    8  A    between atoms: C_17  and  O_18
REMARK    9  A    between atoms: O_18  and  C_19
REMARK   10  A    between atoms: C_23  and  C_24
REMARK                            x       y       z     vdW  Elec       q    Type
REMARK                         _______ _______ _______ _____ _____    ______ ____
ROOT
ATOM      1  N   UNL     1       7.506   6.165  17.395  0.00  0.00    +0.000 NA
ATOM      2  H   UNL     1       7.392   5.228  17.844  0.00  0.00    +0.000 HD
ENDROOT
BRANCH   1   3
ATOM      3  C   UNL     1       8.013   7.150  18.375  0.00  0.00    +0.000 C 
BRANCH   3   4
ATOM      4  C   UNL     1       8.127   8.580  17.802  0.00  0.00    +0.000 C 
BRANCH   4   5
ATOM      5  C   UNL     1       8.755   9.571  18.791  0.00  0.00    +0.000 C 
BRANCH   5   6
ATOM      6  C   UNL     1       9.543  10.636  18.023  0.00  0.00    +0.000 C 
BRANCH   6  16
ATOM      7  O   UNL     1      11.255  11.776  20.050  0.00  0.00    +0.000 OA
ATOM      8  C   UNL     1      10.352  12.424  19.543  0.00  0.00    +0.000 C 
ATOM      9  C   UNL     1      10.076  13.874  19.803  0.00  0.00    +0.000 C 
ATOM     10  C   UNL     1      11.161  14.885  19.410  0.00  0.00    +0.000 C 
ATOM     11  C   UNL     1      10.838  15.170  17.947  0.00  0.00    +0.000 C 
ATOM     12  C   UNL     1       9.302  15.226  17.972  0.00  0.00    +0.000 C 
ATOM     13  N   UNL     1       9.023  14.112  18.838  0.00  0.00    +0.000 N 
ATOM     14  C   UNL     1       8.693  12.948  18.244  0.00  0.00    +0.000 C 
ATOM     15  O   UNL     1       7.922  12.873  17.296  0.00  0.00    +0.000 OA
ATOM     16  N   UNL     1       9.483  11.942  18.635  0.00  0.00    +0.000 N 
ENDBRANCH   6  16
ENDBRANCH   5   6
ENDBRANCH   4   5
ENDBRANCH   3   4
ENDBRANCH   1   3
BRANCH   1  17
ATOM     17  C   UNL     1       6.250   6.553  16.731  0.00  0.00    +0.000 C 
BRANCH  17  18
ATOM     18  C   UNL     1       5.100   6.477  17.725  0.00  0.00    +0.000 C 
BRANCH  18  19
ATOM     19  O   UNL     1       5.186   5.375  18.539  0.00  0.00    +0.000 OA
BRANCH  19  20
ATOM     20  C   UNL     1       4.258   4.382  18.517  0.00  0.00    +0.000 A 
ATOM     21  C   UNL     1       4.396   3.360  17.577  0.00  0.00    +0.000 A 
ATOM     22  C   UNL     1       3.459   2.326  17.523  0.00  0.00    +0.000 A 
ATOM     23  C   UNL     1       2.373   2.306  18.402  0.00  0.00    +0.000 A 
ATOM     24  C   UNL     1       2.217   3.326  19.357  0.00  0.00    +0.000 A 
ATOM     25  C   UNL     1       3.163   4.352  19.412  0.00  0.00    +0.000 A 
BRANCH  24  26
ATOM     26  C   UNL     1       1.058   3.342  20.325  0.00  0.00    +0.000 C 
ATOM     27  F   UNL     1       1.349   2.653  21.488  0.00  0.00    +0.000 F 
ATOM     28  F   UNL     1       0.744   4.651  20.653  0.00  0.00    +0.000 F 
ATOM     29  F   UNL     1      -0.044   2.754  19.728  0.00  0.00    +0.000 F 
ENDBRANCH  24  26
ENDBRANCH  19  20
ENDBRANCH  18  19
ENDBRANCH  17  18
ENDBRANCH   1  17
TORSDOF 10
ENDMDL
