MODEL 1
REMARK VINA RESULT:      -7.7      0.000      0.000
REMARK  Name = 
REMARK  7 active torsions:
REMARK  status: ('A' for Active; 'I' for Inactive)
REMARK    1  A    between atoms: C_1  and  O_2
REMARK    2  A    between atoms: O_2  and  C_3
REMARK    3  A    between atoms: C_11  and  N_12
REMARK    4  A    between atoms: N_12  and  C_13
REMARK    5  A    between atoms: C_13  and  C_14
REMARK    6  A    between atoms: C_13  and  C_20
REMARK    7  A    between atoms: C_17  and  C_18
REMARK                            x       y       z     vdW  Elec       q    Type
REMARK                         _______ _______ _______ _____ _____    ______ ____
ROOT
ATOM      1  N   UNL     1       5.184   6.193  17.350  0.00  0.00    +0.000 NA
ATOM      2  H   UNL     1       5.446   6.559  18.263  0.00  0.00    +0.000 HD
ENDROOT
BRANCH   1  11
ATOM      3  C   UNL     1       3.002   3.260  19.951  0.00  0.00    +0.000 A 
ATOM      4  C   UNL     1       3.036   2.077  19.197  0.00  0.00    +0.000 A 
ATOM      5  C   UNL     1       3.251   2.087  17.807  0.00  0.00    +0.000 A 
ATOM      6  C   UNL     1       3.481   3.287  17.149  0.00  0.00    +0.000 A 
ATOM      7  C   UNL     1       3.479   4.457  17.896  0.00  0.00    +0.000 A 
ATOM      8  C   UNL     1       3.209   4.459  19.284  0.00  0.00    +0.000 A 
ATOM      9  C   UNL     1       3.262   5.876  19.781  0.00  0.00    +0.000 C 
ATOM     10  C   UNL     1       3.029   6.646  18.474  0.00  0.00    +0.000 C 
ATOM     11  C   UNL     1       3.754   5.847  17.376  0.00  0.00    +0.000 C 
BRANCH   3  13
ATOM     12  C   UNL     1       1.501   2.734  21.717  0.00  0.00    +0.000 C 
ATOM     13  O   UNL     1       2.814   3.053  21.285  0.00  0.00    +0.000 OA
ENDBRANCH   3  13
ENDBRANCH   1  11
BRANCH   1  14
ATOM     14  C   UNL     1       6.065   5.038  17.055  0.00  0.00    +0.000 C 
BRANCH  14  15
ATOM     15  C   UNL     1       6.406   4.925  15.574  0.00  0.00    +0.000 A 
ATOM     16  N   UNL     1       7.463   5.484  15.012  0.00  0.00    +0.000 NA
ATOM     17  C   UNL     1       7.585   5.042  13.709  0.00  0.00    +0.000 A 
ATOM     18  C   UNL     1       6.627   4.145  13.289  0.00  0.00    +0.000 A 
ATOM     19  C   UNL     1       6.518   3.396  12.014  0.00  0.00    +0.000 C 
ATOM     20  S   UNL     1       5.464   3.928  14.525  0.00  0.00    +0.000 S 
ENDBRANCH  14  15
BRANCH  14  21
ATOM     21  C   UNL     1       7.289   5.147  17.954  0.00  0.00    +0.000 C 
ATOM     22  C   UNL     1       7.751   6.471  18.523  0.00  0.00    +0.000 C 
ATOM     23  C   UNL     1       7.122   5.453  19.429  0.00  0.00    +0.000 C 
ENDBRANCH  14  21
ENDBRANCH   1  14
TORSDOF 5
ENDMDL
MODEL 2
REMARK VINA RESULT:      -7.7      3.039      6.207
REMARK  Name = 
REMARK  7 active torsions:
REMARK  status: ('A' for Active; 'I' for Inactive)
REMARK    1  A    between atoms: C_1  and  O_2
REMARK    2  A    between atoms: O_2  and  C_3
REMARK    3  A    between atoms: C_11  and  N_12
REMARK    4  A    between atoms: N_12  and  C_13
REMARK    5  A    between atoms: C_13  and  C_14
REMARK    6  A    between atoms: C_13  and  C_20
REMARK    7  A    between atoms: C_17  and  C_18
REMARK                            x       y       z     vdW  Elec       q    Type
REMARK                         _______ _______ _______ _____ _____    ______ ____
ROOT
ATOM      1  N   UNL     1       2.767   4.389  18.052  0.00  0.00    +0.000 NA
ATOM      2  H   UNL     1       1.972   3.783  17.860  0.00  0.00    +0.000 HD
ENDROOT
BRANCH   1  11
ATOM      3  C   UNL     1       6.951   5.527  16.899  0.00  0.00    +0.000 A 
ATOM      4  C   UNL     1       7.005   5.205  15.533  0.00  0.00    +0.000 A 
ATOM      5  C   UNL     1       6.109   4.293  14.948  0.00  0.00    +0.000 A 
ATOM      6  C   UNL     1       5.107   3.715  15.716  0.00  0.00    +0.000 A 
ATOM      7  C   UNL     1       5.030   4.054  17.060  0.00  0.00    +0.000 A 
ATOM      8  C   UNL     1       5.962   4.928  17.667  0.00  0.00    +0.000 A 
ATOM      9  C   UNL     1       5.614   5.066  19.122  0.00  0.00    +0.000 C 
ATOM     10  C   UNL     1       4.790   3.790  19.340  0.00  0.00    +0.000 C 
ATOM     11  C   UNL     1       3.991   3.573  18.042  0.00  0.00    +0.000 C 
BRANCH   3  13
ATOM     12  C   UNL     1       7.433   7.786  17.457  0.00  0.00    +0.000 C 
ATOM     13  O   UNL     1       7.877   6.451  17.280  0.00  0.00    +0.000 OA
ENDBRANCH   3  13
ENDBRANCH   1  11
BRANCH   1  14
ATOM     14  C   UNL     1       2.518   5.063  19.348  0.00  0.00    +0.000 C 
BRANCH  14  15
ATOM     15  C   UNL     1       2.331   6.568  19.198  0.00  0.00    +0.000 A 
ATOM     16  N   UNL     1       2.573   7.239  18.086  0.00  0.00    +0.000 NA
ATOM     17  C   UNL     1       2.131   8.540  18.222  0.00  0.00    +0.000 A 
ATOM     18  C   UNL     1       1.549   8.852  19.432  0.00  0.00    +0.000 A 
ATOM     19  C   UNL     1       0.878  10.099  19.872  0.00  0.00    +0.000 C 
ATOM     20  S   UNL     1       1.657   7.506  20.482  0.00  0.00    +0.000 S 
ENDBRANCH  14  15
BRANCH  14  21
ATOM     21  C   UNL     1       1.339   4.368  20.014  0.00  0.00    +0.000 C 
ATOM     22  C   UNL     1       1.135   2.871  19.924  0.00  0.00    +0.000 C 
ATOM     23  C   UNL     1       1.564   3.485  21.225  0.00  0.00    +0.000 C 
ENDBRANCH  14  21
ENDBRANCH   1  14
TORSDOF 5
ENDMDL
MODEL 3
REMARK VINA RESULT:      -7.3      2.857      6.173
REMARK  Name = 
REMARK  7 active torsions:
REMARK  status: ('A' for Active; 'I' for Inactive)
REMARK    1  A    between atoms: C_1  and  O_2
REMARK    2  A    between atoms: O_2  and  C_3
REMARK    3  A    between atoms: C_11  and  N_12
REMARK    4  A    between atoms: N_12  and  C_13
REMARK    5  A    between atoms: C_13  and  C_14
REMARK    6  A    between atoms: C_13  and  C_20
REMARK    7  A    between atoms: C_17  and  C_18
REMARK                            x       y       z     vdW  Elec       q    Type
REMARK                         _______ _______ _______ _____ _____    ______ ____
ROOT
ATOM      1  N   UNL     1       2.747   4.476  18.215  0.00  0.00    +0.000 NA
ATOM      2  H   UNL     1       1.972   3.891  17.912  0.00  0.00    +0.000 HD
ENDROOT
BRANCH   1  11
ATOM      3  C   UNL     1       6.916   5.587  16.981  0.00  0.00    +0.000 A 
ATOM      4  C   UNL     1       6.957   5.221  15.627  0.00  0.00    +0.000 A 
ATOM      5  C   UNL     1       6.058   4.286  15.081  0.00  0.00    +0.000 A 
ATOM      6  C   UNL     1       5.066   3.732  15.878  0.00  0.00    +0.000 A 
ATOM      7  C   UNL     1       5.002   4.115  17.211  0.00  0.00    +0.000 A 
ATOM      8  C   UNL     1       5.937   5.011  17.779  0.00  0.00    +0.000 A 
ATOM      9  C   UNL     1       5.603   5.196  19.232  0.00  0.00    +0.000 C 
ATOM     10  C   UNL     1       4.786   3.926  19.501  0.00  0.00    +0.000 C 
ATOM     11  C   UNL     1       3.975   3.663  18.220  0.00  0.00    +0.000 C 
BRANCH   3  13
ATOM     12  C   UNL     1       7.404   7.871  17.419  0.00  0.00    +0.000 C 
ATOM     13  O   UNL     1       7.843   6.526  17.321  0.00  0.00    +0.000 OA
ENDBRANCH   3  13
ENDBRANCH   1  11
BRANCH   1  14
ATOM     14  C   UNL     1       2.403   5.030  19.546  0.00  0.00    +0.000 C 
BRANCH  14  15
ATOM     15  C   UNL     1       2.032   6.507  19.487  0.00  0.00    +0.000 A 
ATOM     16  N   UNL     1       1.659   7.220  20.534  0.00  0.00    +0.000 NA
ATOM     17  C   UNL     1       1.574   8.553  20.183  0.00  0.00    +0.000 A 
ATOM     18  C   UNL     1       1.891   8.849  18.875  0.00  0.00    +0.000 A 
ATOM     19  C   UNL     1       2.012  10.163  18.198  0.00  0.00    +0.000 C 
ATOM     20  S   UNL     1       2.196   7.400  18.018  0.00  0.00    +0.000 S 
ENDBRANCH  14  15
BRANCH  14  21
ATOM     21  C   UNL     1       1.311   4.154  20.144  0.00  0.00    +0.000 C 
ATOM     22  C   UNL     1       1.314   2.648  19.988  0.00  0.00    +0.000 C 
ATOM     23  C   UNL     1       1.620   3.257  21.326  0.00  0.00    +0.000 C 
ENDBRANCH  14  21
ENDBRANCH   1  14
TORSDOF 5
ENDMDL
MODEL 4
REMARK VINA RESULT:      -7.2      1.859      3.890
REMARK  Name = 
REMARK  7 active torsions:
REMARK  status: ('A' for Active; 'I' for Inactive)
REMARK    1  A    between atoms: C_1  and  O_2
REMARK    2  A    between atoms: O_2  and  C_3
REMARK    3  A    between atoms: C_11  and  N_12
REMARK    4  A    between atoms: N_12  and  C_13
REMARK    5  A    between atoms: C_13  and  C_14
REMARK    6  A    between atoms: C_13  and  C_20
REMARK    7  A    between atoms: C_17  and  C_18
REMARK                            x       y       z     vdW  Elec       q    Type
REMARK                         _______ _______ _______ _____ _____    ______ ____
ROOT
ATOM      1  N   UNL     1       5.083   3.252  17.791  0.00  0.00    +0.000 NA
ATOM      2  H   UNL     1       5.588   2.427  17.475  0.00  0.00    +0.000 HD
ENDROOT
BRANCH   1  11
ATOM      3  C   UNL     1       1.842   4.915  20.409  0.00  0.00    +0.000 A 
ATOM      4  C   UNL     1       1.812   4.020  21.490  0.00  0.00    +0.000 A 
ATOM      5  C   UNL     1       2.331   2.716  21.389  0.00  0.00    +0.000 A 
ATOM      6  C   UNL     1       2.934   2.298  20.211  0.00  0.00    +0.000 A 
ATOM      7  C   UNL     1       2.993   3.191  19.150  0.00  0.00    +0.000 A 
ATOM      8  C   UNL     1       2.424   4.484  19.226  0.00  0.00    +0.000 A 
ATOM      9  C   UNL     1       2.639   5.181  17.912  0.00  0.00    +0.000 C 
ATOM     10  C   UNL     1       2.862   3.980  16.984  0.00  0.00    +0.000 C 
ATOM     11  C   UNL     1       3.645   2.944  17.812  0.00  0.00    +0.000 C 
BRANCH   3  13
ATOM     12  C   UNL     1       2.083   7.278  20.329  0.00  0.00    +0.000 C 
ATOM     13  O   UNL     1       1.321   6.141  20.701  0.00  0.00    +0.000 OA
ENDBRANCH   3  13
ENDBRANCH   1  11
BRANCH   1  14
ATOM     14  C   UNL     1       5.433   4.370  16.882  0.00  0.00    +0.000 C 
BRANCH  14  15
ATOM     15  C   UNL     1       6.317   5.415  17.552  0.00  0.00    +0.000 A 
ATOM     16  N   UNL     1       7.264   5.132  18.429  0.00  0.00    +0.000 NA
ATOM     17  C   UNL     1       7.997   6.270  18.704  0.00  0.00    +0.000 A 
ATOM     18  C   UNL     1       7.611   7.409  18.030  0.00  0.00    +0.000 A 
ATOM     19  C   UNL     1       8.233   8.755  18.001  0.00  0.00    +0.000 C 
ATOM     20  S   UNL     1       6.211   7.079  17.105  0.00  0.00    +0.000 S 
ENDBRANCH  14  15
BRANCH  14  21
ATOM     21  C   UNL     1       6.048   3.770  15.625  0.00  0.00    +0.000 C 
ATOM     22  C   UNL     1       5.539   4.112  14.241  0.00  0.00    +0.000 C 
ATOM     23  C   UNL     1       6.870   4.639  14.694  0.00  0.00    +0.000 C 
ENDBRANCH  14  21
ENDBRANCH   1  14
TORSDOF 5
ENDMDL
MODEL 5
REMARK VINA RESULT:      -7.0      0.989      1.052
REMARK  Name = 
REMARK  7 active torsions:
REMARK  status: ('A' for Active; 'I' for Inactive)
REMARK    1  A    between atoms: C_1  and  O_2
REMARK    2  A    between atoms: O_2  and  C_3
REMARK    3  A    between atoms: C_11  and  N_12
REMARK    4  A    between atoms: N_12  and  C_13
REMARK    5  A    between atoms: C_13  and  C_14
REMARK    6  A    between atoms: C_13  and  C_20
REMARK    7  A    between atoms: C_17  and  C_18
REMARK                            x       y       z     vdW  Elec       q    Type
REMARK                         _______ _______ _______ _____ _____    ______ ____
ROOT
ATOM      1  N   UNL     1       4.787   6.338  17.313  0.00  0.00    +0.000 NA
ATOM      2  H   UNL     1       5.083   6.615  18.247  0.00  0.00    +0.000 HD
ENDROOT
BRANCH   1  11
ATOM      3  C   UNL     1       1.855   4.080  19.850  0.00  0.00    +0.000 A 
ATOM      4  C   UNL     1       1.646   2.898  19.123  0.00  0.00    +0.000 A 
ATOM      5  C   UNL     1       1.923   2.813  17.746  0.00  0.00    +0.000 A 
ATOM      6  C   UNL     1       2.460   3.905  17.078  0.00  0.00    +0.000 A 
ATOM      7  C   UNL     1       2.698   5.066  17.800  0.00  0.00    +0.000 A 
ATOM      8  C   UNL     1       2.369   5.176  19.171  0.00  0.00    +0.000 A 
ATOM      9  C   UNL     1       2.729   6.557  19.642  0.00  0.00    +0.000 C 
ATOM     10  C   UNL     1       2.747   7.317  18.309  0.00  0.00    +0.000 C 
ATOM     11  C   UNL     1       3.316   6.336  17.269  0.00  0.00    +0.000 C 
BRANCH   3  13
ATOM     12  C   UNL     1       2.210   2.937  21.903  0.00  0.00    +0.000 C 
ATOM     13  O   UNL     1       1.559   3.966  21.176  0.00  0.00    +0.000 OA
ENDBRANCH   3  13
ENDBRANCH   1  11
BRANCH   1  14
ATOM     14  C   UNL     1       5.387   5.014  17.023  0.00  0.00    +0.000 C 
BRANCH  14  15
ATOM     15  C   UNL     1       6.020   4.949  15.639  0.00  0.00    +0.000 A 
ATOM     16  N   UNL     1       7.214   5.433  15.346  0.00  0.00    +0.000 NA
ATOM     17  C   UNL     1       7.569   5.052  14.067  0.00  0.00    +0.000 A 
ATOM     18  C   UNL     1       6.649   4.276  13.396  0.00  0.00    +0.000 A 
ATOM     19  C   UNL     1       6.748   3.612  12.073  0.00  0.00    +0.000 C 
ATOM     20  S   UNL     1       5.239   4.106  14.349  0.00  0.00    +0.000 S 
ENDBRANCH  14  15
BRANCH  14  21
ATOM     21  C   UNL     1       6.357   4.687  18.151  0.00  0.00    +0.000 C 
ATOM     22  C   UNL     1       6.460   5.544  19.394  0.00  0.00    +0.000 C 
ATOM     23  C   UNL     1       5.832   4.183  19.480  0.00  0.00    +0.000 C 
ENDBRANCH  14  21
ENDBRANCH   1  14
TORSDOF 5
ENDMDL
MODEL 6
REMARK VINA RESULT:      -7.0      3.188      6.622
REMARK  Name = 
REMARK  7 active torsions:
REMARK  status: ('A' for Active; 'I' for Inactive)
REMARK    1  A    between atoms: C_1  and  O_2
REMARK    2  A    between atoms: O_2  and  C_3
REMARK    3  A    between atoms: C_11  and  N_12
REMARK    4  A    between atoms: N_12  and  C_13
REMARK    5  A    between atoms: C_13  and  C_14
REMARK    6  A    between atoms: C_13  and  C_20
REMARK    7  A    between atoms: C_17  and  C_18
REMARK                            x       y       z     vdW  Elec       q    Type
REMARK                         _______ _______ _______ _____ _____    ______ ____
ROOT
ATOM      1  N   UNL     1       4.327   6.347  18.332  0.00  0.00    +0.000 NA
ATOM      2  H   UNL     1       3.939   6.453  17.398  0.00  0.00    +0.000 HD
ENDROOT
BRANCH   1  11
ATOM      3  C   UNL     1       7.103   5.089  15.039  0.00  0.00    +0.000 A 
ATOM      4  C   UNL     1       6.362   4.114  14.352  0.00  0.00    +0.000 A 
ATOM      5  C   UNL     1       5.287   3.436  14.953  0.00  0.00    +0.000 A 
ATOM      6  C   UNL     1       4.902   3.756  16.248  0.00  0.00    +0.000 A 
ATOM      7  C   UNL     1       5.611   4.742  16.920  0.00  0.00    +0.000 A 
ATOM      8  C   UNL     1       6.728   5.388  16.342  0.00  0.00    +0.000 A 
ATOM      9  C   UNL     1       7.278   6.376  17.331  0.00  0.00    +0.000 C 
ATOM     10  C   UNL     1       6.720   5.807  18.642  0.00  0.00    +0.000 C 
ATOM     11  C   UNL     1       5.320   5.261  18.307  0.00  0.00    +0.000 C 
BRANCH   3  13
ATOM     12  C   UNL     1       8.107   5.356  12.902  0.00  0.00    +0.000 C 
ATOM     13  O   UNL     1       8.086   5.659  14.287  0.00  0.00    +0.000 OA
ENDBRANCH   3  13
ENDBRANCH   1  11
BRANCH   1  14
ATOM     14  C   UNL     1       3.202   6.095  19.263  0.00  0.00    +0.000 C 
BRANCH  14  15
ATOM     15  C   UNL     1       2.290   7.305  19.421  0.00  0.00    +0.000 A 
ATOM     16  N   UNL     1       1.706   7.651  20.554  0.00  0.00    +0.000 NA
ATOM     17  C   UNL     1       1.103   8.886  20.409  0.00  0.00    +0.000 A 
ATOM     18  C   UNL     1       1.237   9.475  19.170  0.00  0.00    +0.000 A 
ATOM     19  C   UNL     1       0.818  10.820  18.706  0.00  0.00    +0.000 C 
ATOM     20  S   UNL     1       2.047   8.404  18.111  0.00  0.00    +0.000 S 
ENDBRANCH  14  15
BRANCH  14  21
ATOM     21  C   UNL     1       2.476   4.845  18.785  0.00  0.00    +0.000 C 
ATOM     22  C   UNL     1       2.762   3.478  19.367  0.00  0.00    +0.000 C 
ATOM     23  C   UNL     1       1.465   4.164  19.686  0.00  0.00    +0.000 C 
ENDBRANCH  14  21
ENDBRANCH   1  14
TORSDOF 5
ENDMDL
MODEL 7
REMARK VINA RESULT:      -7.0      2.944      6.299
REMARK  Name = 
REMARK  7 active torsions:
REMARK  status: ('A' for Active; 'I' for Inactive)
REMARK    1  A    between atoms: C_1  and  O_2
REMARK    2  A    between atoms: O_2  and  C_3
REMARK    3  A    between atoms: C_11  and  N_12
REMARK    4  A    between atoms: N_12  and  C_13
REMARK    5  A    between atoms: C_13  and  C_14
REMARK    6  A    between atoms: C_13  and  C_20
REMARK    7  A    between atoms: C_17  and  C_18
REMARK                            x       y       z     vdW  Elec       q    Type
REMARK                         _______ _______ _______ _____ _____    ______ ____
ROOT
ATOM      1  N   UNL     1       4.314   6.095  18.769  0.00  0.00    +0.000 NA
ATOM      2  H   UNL     1       4.653   6.926  18.289  0.00  0.00    +0.000 HD
ENDROOT
BRANCH   1  11
ATOM      3  C   UNL     1       6.996   5.042  15.329  0.00  0.00    +0.000 A 
ATOM      4  C   UNL     1       6.260   4.067  14.637  0.00  0.00    +0.000 A 
ATOM      5  C   UNL     1       5.232   3.333  15.255  0.00  0.00    +0.000 A 
ATOM      6  C   UNL     1       4.888   3.596  16.574  0.00  0.00    +0.000 A 
ATOM      7  C   UNL     1       5.592   4.581  17.253  0.00  0.00    +0.000 A 
ATOM      8  C   UNL     1       6.664   5.283  16.655  0.00  0.00    +0.000 A 
ATOM      9  C   UNL     1       7.220   6.255  17.657  0.00  0.00    +0.000 C 
ATOM     10  C   UNL     1       6.733   5.623  18.968  0.00  0.00    +0.000 C 
ATOM     11  C   UNL     1       5.339   5.044  18.667  0.00  0.00    +0.000 C 
BRANCH   3  13
ATOM     12  C   UNL     1       7.977   5.331  13.184  0.00  0.00    +0.000 C 
ATOM     13  O   UNL     1       7.931   5.669  14.560  0.00  0.00    +0.000 OA
ENDBRANCH   3  13
ENDBRANCH   1  11
BRANCH   1  14
ATOM     14  C   UNL     1       3.019   5.716  18.155  0.00  0.00    +0.000 C 
BRANCH  14  15
ATOM     15  C   UNL     1       2.276   4.658  18.963  0.00  0.00    +0.000 A 
ATOM     16  N   UNL     1       1.661   3.617  18.432  0.00  0.00    +0.000 NA
ATOM     17  C   UNL     1       1.250   2.759  19.434  0.00  0.00    +0.000 A 
ATOM     18  C   UNL     1       1.561   3.147  20.719  0.00  0.00    +0.000 A 
ATOM     19  C   UNL     1       1.373   2.428  22.002  0.00  0.00    +0.000 C 
ATOM     20  S   UNL     1       2.293   4.693  20.689  0.00  0.00    +0.000 S 
ENDBRANCH  14  15
BRANCH  14  21
ATOM     21  C   UNL     1       2.216   6.992  17.942  0.00  0.00    +0.000 C 
ATOM     22  C   UNL     1       2.190   8.105  18.967  0.00  0.00    +0.000 C 
ATOM     23  C   UNL     1       2.931   8.301  17.675  0.00  0.00    +0.000 C 
ENDBRANCH  14  21
ENDBRANCH   1  14
TORSDOF 5
ENDMDL
MODEL 8
REMARK VINA RESULT:      -6.9      3.389      6.798
REMARK  Name = 
REMARK  7 active torsions:
REMARK  status: ('A' for Active; 'I' for Inactive)
REMARK    1  A    between atoms: C_1  and  O_2
REMARK    2  A    between atoms: O_2  and  C_3
REMARK    3  A    between atoms: C_11  and  N_12
REMARK    4  A    between atoms: N_12  and  C_13
REMARK    5  A    between atoms: C_13  and  C_14
REMARK    6  A    between atoms: C_13  and  C_20
REMARK    7  A    between atoms: C_17  and  C_18
REMARK                            x       y       z     vdW  Elec       q    Type
REMARK                         _______ _______ _______ _____ _____    ______ ____
ROOT
ATOM      1  N   UNL     1       4.217   6.502  17.918  0.00  0.00    +0.000 NA
ATOM      2  H   UNL     1       3.827   6.540  16.978  0.00  0.00    +0.000 HD
ENDROOT
BRANCH   1  11
ATOM      3  C   UNL     1       7.170   5.139  14.827  0.00  0.00    +0.000 A 
ATOM      4  C   UNL     1       6.460   4.158  14.117  0.00  0.00    +0.000 A 
ATOM      5  C   UNL     1       5.341   3.506  14.666  0.00  0.00    +0.000 A 
ATOM      6  C   UNL     1       4.882   3.859  15.927  0.00  0.00    +0.000 A 
ATOM      7  C   UNL     1       5.563   4.850  16.621  0.00  0.00    +0.000 A 
ATOM      8  C   UNL     1       6.721   5.470  16.098  0.00  0.00    +0.000 A 
ATOM      9  C   UNL     1       7.223   6.473  17.099  0.00  0.00    +0.000 C 
ATOM     10  C   UNL     1       6.578   5.939  18.385  0.00  0.00    +0.000 C 
ATOM     11  C   UNL     1       5.195   5.403  17.976  0.00  0.00    +0.000 C 
BRANCH   3  13
ATOM     12  C   UNL     1       8.171   5.556  12.713  0.00  0.00    +0.000 C 
ATOM     13  O   UNL     1       8.205   5.680  14.125  0.00  0.00    +0.000 OA
ENDBRANCH   3  13
ENDBRANCH   1  11
BRANCH   1  14
ATOM     14  C   UNL     1       3.091   6.339  18.868  0.00  0.00    +0.000 C 
BRANCH  14  15
ATOM     15  C   UNL     1       2.328   7.638  19.100  0.00  0.00    +0.000 A 
ATOM     16  N   UNL     1       2.098   8.539  18.162  0.00  0.00    +0.000 NA
ATOM     17  C   UNL     1       1.230   9.500  18.644  0.00  0.00    +0.000 A 
ATOM     18  C   UNL     1       0.799   9.321  19.941  0.00  0.00    +0.000 A 
ATOM     19  C   UNL     1      -0.201  10.085  20.725  0.00  0.00    +0.000 C 
ATOM     20  S   UNL     1       1.591   7.968  20.626  0.00  0.00    +0.000 S 
ENDBRANCH  14  15
BRANCH  14  21
ATOM     21  C   UNL     1       2.215   5.202  18.359  0.00  0.00    +0.000 C 
ATOM     22  C   UNL     1       2.542   3.751  18.635  0.00  0.00    +0.000 C 
ATOM     23  C   UNL     1       1.378   4.396  19.331  0.00  0.00    +0.000 C 
ENDBRANCH  14  21
ENDBRANCH   1  14
TORSDOF 5
ENDMDL
MODEL 9
REMARK VINA RESULT:      -6.8      1.375      2.288
REMARK  Name = 
REMARK  7 active torsions:
REMARK  status: ('A' for Active; 'I' for Inactive)
REMARK    1  A    between atoms: C_1  and  O_2
REMARK    2  A    between atoms: O_2  and  C_3
REMARK    3  A    between atoms: C_11  and  N_12
REMARK    4  A    between atoms: N_12  and  C_13
REMARK    5  A    between atoms: C_13  and  C_14
REMARK    6  A    between atoms: C_13  and  C_20
REMARK    7  A    between atoms: C_17  and  C_18
REMARK                            x       y       z     vdW  Elec       q    Type
REMARK                         _______ _______ _______ _____ _____    ______ ____
ROOT
ATOM      1  N   UNL     1       5.475   6.013  17.503  0.00  0.00    +0.000 NA
ATOM      2  H   UNL     1       5.318   7.014  17.412  0.00  0.00    +0.000 HD
ENDROOT
BRANCH   1  11
ATOM      3  C   UNL     1       2.343   3.611  19.636  0.00  0.00    +0.000 A 
ATOM      4  C   UNL     1       1.428   4.586  20.063  0.00  0.00    +0.000 A 
ATOM      5  C   UNL     1       1.788   5.939  20.188  0.00  0.00    +0.000 A 
ATOM      6  C   UNL     1       3.067   6.352  19.843  0.00  0.00    +0.000 A 
ATOM      7  C   UNL     1       3.967   5.396  19.391  0.00  0.00    +0.000 A 
ATOM      8  C   UNL     1       3.628   4.025  19.316  0.00  0.00    +0.000 A 
ATOM      9  C   UNL     1       4.822   3.263  18.814  0.00  0.00    +0.000 C 
ATOM     10  C   UNL     1       5.952   4.241  19.160  0.00  0.00    +0.000 C 
ATOM     11  C   UNL     1       5.380   5.650  18.926  0.00  0.00    +0.000 C 
BRANCH   3  13
ATOM     12  C   UNL     1       0.662   2.199  18.727  0.00  0.00    +0.000 C 
ATOM     13  O   UNL     1       1.808   2.360  19.547  0.00  0.00    +0.000 OA
ENDBRANCH   3  13
ENDBRANCH   1  11
BRANCH   1  14
ATOM     14  C   UNL     1       6.796   5.706  16.905  0.00  0.00    +0.000 C 
BRANCH  14  15
ATOM     15  C   UNL     1       6.690   5.246  15.456  0.00  0.00    +0.000 A 
ATOM     16  N   UNL     1       7.615   5.464  14.539  0.00  0.00    +0.000 NA
ATOM     17  C   UNL     1       7.304   4.766  13.389  0.00  0.00    +0.000 A 
ATOM     18  C   UNL     1       6.150   4.014  13.438  0.00  0.00    +0.000 A 
ATOM     19  C   UNL     1       5.584   3.073  12.442  0.00  0.00    +0.000 C 
ATOM     20  S   UNL     1       5.361   4.275  14.933  0.00  0.00    +0.000 S 
ENDBRANCH  14  15
BRANCH  14  21
ATOM     21  C   UNL     1       7.684   6.929  17.090  0.00  0.00    +0.000 C 
ATOM     22  C   UNL     1       7.169   8.207  17.716  0.00  0.00    +0.000 C 
ATOM     23  C   UNL     1       8.129   7.340  18.479  0.00  0.00    +0.000 C 
ENDBRANCH  14  21
ENDBRANCH   1  14
TORSDOF 5
ENDMDL
