MODEL 1
REMARK VINA RESULT:      -8.2      0.000      0.000
REMARK  Name = 
REMARK  2 active torsions:
REMARK  status: ('A' for Active; 'I' for Inactive)
REMARK    1  A    between atoms: C_2  and  C_16
REMARK    2  A    between atoms: N_3  and  C_4
REMARK                            x       y       z     vdW  Elec       q    Type
REMARK                         _______ _______ _______ _____ _____    ______ ____
ROOT
ATOM      1  C   UNL     1       1.950   5.854  20.630  0.00  0.00    +0.000 A 
ATOM      2  C   UNL     1       1.392   4.560  20.749  0.00  0.00    +0.000 A 
ATOM      3  C   UNL     1       2.061   3.421  20.298  0.00  0.00    +0.000 A 
ATOM      4  C   UNL     1       3.296   3.610  19.722  0.00  0.00    +0.000 A 
ATOM      5  C   UNL     1       3.860   4.869  19.561  0.00  0.00    +0.000 A 
ATOM      6  C   UNL     1       3.199   6.008  20.008  0.00  0.00    +0.000 A 
ATOM      7  C   UNL     1       5.193   4.806  18.934  0.00  0.00    +0.000 C 
ATOM      8  O   UNL     1       5.961   5.737  18.803  0.00  0.00    +0.000 OA
ATOM      9  N   UNL     1       5.473   3.479  18.563  0.00  0.00    +0.000 N 
ATOM     10  S   UNL     1       4.328   2.373  19.068  0.00  0.00    +0.000 S 
ATOM     11  O   UNL     1       3.691   1.800  17.910  0.00  0.00    +0.000 OA
ATOM     12  O   UNL     1       4.881   1.605  20.156  0.00  0.00    +0.000 OA
ATOM     13  H   UNL     1       6.432   3.182  18.413  0.00  0.00    +0.000 HD
ENDROOT
BRANCH   1  16
ATOM     14  O   UNL     1       1.741   8.490  19.364  0.00  0.00    +0.000 OA
ATOM     15  C   UNL     1       1.274   8.241  20.471  0.00  0.00    +0.000 C 
ATOM     16  N   UNL     1       1.293   7.011  21.115  0.00  0.00    +0.000 N 
ATOM     17  H   UNL     1       0.683   6.894  21.911  0.00  0.00    +0.000 HD
BRANCH  15  18
ATOM     18  C   UNL     1       0.559   9.341  21.163  0.00  0.00    +0.000 A 
ATOM     19  C   UNL     1       0.674  10.632  20.623  0.00  0.00    +0.000 A 
ATOM     20  C   UNL     1       0.084  11.719  21.266  0.00  0.00    +0.000 A 
ATOM     21  C   UNL     1      -0.608  11.511  22.453  0.00  0.00    +0.000 A 
ATOM     22  F   UNL     1      -1.163  12.555  23.081  0.00  0.00    +0.000 F 
ATOM     23  C   UNL     1      -0.722  10.237  23.005  0.00  0.00    +0.000 A 
ATOM     24  C   UNL     1      -0.137   9.143  22.362  0.00  0.00    +0.000 A 
ENDBRANCH  15  18
ENDBRANCH   1  16
TORSDOF 2
ENDMDL
MODEL 2
REMARK VINA RESULT:      -8.2      0.223      1.056
REMARK  Name = 
REMARK  2 active torsions:
REMARK  status: ('A' for Active; 'I' for Inactive)
REMARK    1  A    between atoms: C_2  and  C_16
REMARK    2  A    between atoms: N_3  and  C_4
REMARK                            x       y       z     vdW  Elec       q    Type
REMARK                         _______ _______ _______ _____ _____    ______ ____
ROOT
ATOM      1  C   UNL     1       1.960   5.993  20.602  0.00  0.00    +0.000 A 
ATOM      2  C   UNL     1       1.402   4.705  20.780  0.00  0.00    +0.000 A 
ATOM      3  C   UNL     1       2.023   3.555  20.290  0.00  0.00    +0.000 A 
ATOM      4  C   UNL     1       3.210   3.726  19.615  0.00  0.00    +0.000 A 
ATOM      5  C   UNL     1       3.770   4.978  19.396  0.00  0.00    +0.000 A 
ATOM      6  C   UNL     1       3.157   6.128  19.881  0.00  0.00    +0.000 A 
ATOM      7  C   UNL     1       5.049   4.896  18.665  0.00  0.00    +0.000 C 
ATOM      8  O   UNL     1       5.812   5.817  18.463  0.00  0.00    +0.000 OA
ATOM      9  N   UNL     1       5.287   3.562  18.289  0.00  0.00    +0.000 N 
ATOM     10  S   UNL     1       4.176   2.473  18.897  0.00  0.00    +0.000 S 
ATOM     11  O   UNL     1       3.443   1.893  17.799  0.00  0.00    +0.000 OA
ATOM     12  O   UNL     1       4.807   1.711  19.945  0.00  0.00    +0.000 OA
ATOM     13  H   UNL     1       6.228   3.254  18.066  0.00  0.00    +0.000 HD
ENDROOT
BRANCH   1  16
ATOM     14  O   UNL     1       1.648   8.608  19.315  0.00  0.00    +0.000 OA
ATOM     15  C   UNL     1       1.281   8.380  20.464  0.00  0.00    +0.000 C 
ATOM     16  N   UNL     1       1.354   7.161  21.124  0.00  0.00    +0.000 N 
ATOM     17  H   UNL     1       0.819   7.061  21.974  0.00  0.00    +0.000 HD
BRANCH  15  18
ATOM     18  C   UNL     1       0.636   9.496  21.199  0.00  0.00    +0.000 A 
ATOM     19  C   UNL     1      -0.061   9.181  22.376  0.00  0.00    +0.000 A 
ATOM     20  C   UNL     1      -0.747  10.174  23.074  0.00  0.00    +0.000 A 
ATOM     21  C   UNL     1      -0.742  11.474  22.584  0.00  0.00    +0.000 A 
ATOM     22  F   UNL     1      -1.413  12.427  23.243  0.00  0.00    +0.000 F 
ATOM     23  C   UNL     1      -0.062  11.799  21.411  0.00  0.00    +0.000 A 
ATOM     24  C   UNL     1       0.632  10.809  20.711  0.00  0.00    +0.000 A 
ENDBRANCH  15  18
ENDBRANCH   1  16
TORSDOF 2
ENDMDL
MODEL 3
REMARK VINA RESULT:      -8.2      5.311      8.467
REMARK  Name = 
REMARK  2 active torsions:
REMARK  status: ('A' for Active; 'I' for Inactive)
REMARK    1  A    between atoms: C_2  and  C_16
REMARK    2  A    between atoms: N_3  and  C_4
REMARK                            x       y       z     vdW  Elec       q    Type
REMARK                         _______ _______ _______ _____ _____    ______ ____
ROOT
ATOM      1  C   UNL     1       4.045   3.554  17.221  0.00  0.00    +0.000 A 
ATOM      2  C   UNL     1       3.753   2.270  17.735  0.00  0.00    +0.000 A 
ATOM      3  C   UNL     1       3.099   2.093  18.956  0.00  0.00    +0.000 A 
ATOM      4  C   UNL     1       2.752   3.231  19.648  0.00  0.00    +0.000 A 
ATOM      5  C   UNL     1       3.052   4.505  19.187  0.00  0.00    +0.000 A 
ATOM      6  C   UNL     1       3.703   4.690  17.971  0.00  0.00    +0.000 A 
ATOM      7  C   UNL     1       2.562   5.557  20.098  0.00  0.00    +0.000 C 
ATOM      8  O   UNL     1       2.566   6.749  19.874  0.00  0.00    +0.000 OA
ATOM      9  N   UNL     1       2.024   4.961  21.252  0.00  0.00    +0.000 N 
ATOM     10  S   UNL     1       1.949   3.294  21.189  0.00  0.00    +0.000 S 
ATOM     11  O   UNL     1       2.827   2.750  22.193  0.00  0.00    +0.000 OA
ATOM     12  O   UNL     1       0.573   2.902  21.013  0.00  0.00    +0.000 OA
ATOM     13  H   UNL     1       1.371   5.475  21.835  0.00  0.00    +0.000 HD
ENDROOT
BRANCH   1  16
ATOM     14  O   UNL     1       6.860   4.173  16.681  0.00  0.00    +0.000 OA
ATOM     15  C   UNL     1       6.015   4.076  15.796  0.00  0.00    +0.000 C 
ATOM     16  N   UNL     1       4.678   3.743  15.968  0.00  0.00    +0.000 N 
ATOM     17  H   UNL     1       4.155   3.482  15.144  0.00  0.00    +0.000 HD
BRANCH  15  18
ATOM     18  C   UNL     1       6.478   4.266  14.400  0.00  0.00    +0.000 A 
ATOM     19  C   UNL     1       7.462   5.241  14.168  0.00  0.00    +0.000 A 
ATOM     20  C   UNL     1       7.888   5.516  12.869  0.00  0.00    +0.000 A 
ATOM     21  C   UNL     1       7.320   4.823  11.808  0.00  0.00    +0.000 A 
ATOM     22  F   UNL     1       7.715   5.095  10.559  0.00  0.00    +0.000 F 
ATOM     23  C   UNL     1       6.335   3.859  12.023  0.00  0.00    +0.000 A 
ATOM     24  C   UNL     1       5.909   3.576  13.323  0.00  0.00    +0.000 A 
ENDBRANCH  15  18
ENDBRANCH   1  16
TORSDOF 2
ENDMDL
MODEL 4
REMARK VINA RESULT:      -8.0      5.336      8.510
REMARK  Name = 
REMARK  2 active torsions:
REMARK  status: ('A' for Active; 'I' for Inactive)
REMARK    1  A    between atoms: C_2  and  C_16
REMARK    2  A    between atoms: N_3  and  C_4
REMARK                            x       y       z     vdW  Elec       q    Type
REMARK                         _______ _______ _______ _____ _____    ______ ____
ROOT
ATOM      1  C   UNL     1       4.017   3.641  17.236  0.00  0.00    +0.000 A 
ATOM      2  C   UNL     1       3.756   2.343  17.732  0.00  0.00    +0.000 A 
ATOM      3  C   UNL     1       3.115   2.131  18.954  0.00  0.00    +0.000 A 
ATOM      4  C   UNL     1       2.747   3.250  19.667  0.00  0.00    +0.000 A 
ATOM      5  C   UNL     1       3.014   4.538  19.224  0.00  0.00    +0.000 A 
ATOM      6  C   UNL     1       3.653   4.756  18.007  0.00  0.00    +0.000 A 
ATOM      7  C   UNL     1       2.507   5.564  20.155  0.00  0.00    +0.000 C 
ATOM      8  O   UNL     1       2.483   6.759  19.949  0.00  0.00    +0.000 OA
ATOM      9  N   UNL     1       1.990   4.937  21.303  0.00  0.00    +0.000 N 
ATOM     10  S   UNL     1       1.953   3.270  21.212  0.00  0.00    +0.000 S 
ATOM     11  O   UNL     1       2.849   2.730  22.203  0.00  0.00    +0.000 OA
ATOM     12  O   UNL     1       0.584   2.850  21.039  0.00  0.00    +0.000 OA
ATOM     13  H   UNL     1       1.330   5.427  21.898  0.00  0.00    +0.000 HD
ENDROOT
BRANCH   1  16
ATOM     14  O   UNL     1       6.844   4.175  16.677  0.00  0.00    +0.000 OA
ATOM     15  C   UNL     1       5.983   4.153  15.804  0.00  0.00    +0.000 C 
ATOM     16  N   UNL     1       4.637   3.864  15.983  0.00  0.00    +0.000 N 
ATOM     17  H   UNL     1       4.091   3.663  15.157  0.00  0.00    +0.000 HD
BRANCH  15  18
ATOM     18  C   UNL     1       6.432   4.390  14.410  0.00  0.00    +0.000 A 
ATOM     19  C   UNL     1       5.837   3.622  13.396  0.00  0.00    +0.000 A 
ATOM     20  C   UNL     1       6.265   3.749  12.075  0.00  0.00    +0.000 A 
ATOM     21  C   UNL     1       7.292   4.635  11.777  0.00  0.00    +0.000 A 
ATOM     22  F   UNL     1       7.715   4.748  10.512  0.00  0.00    +0.000 F 
ATOM     23  C   UNL     1       7.898   5.397  12.775  0.00  0.00    +0.000 A 
ATOM     24  C   UNL     1       7.469   5.278  14.099  0.00  0.00    +0.000 A 
ENDBRANCH  15  18
ENDBRANCH   1  16
TORSDOF 2
ENDMDL
MODEL 5
REMARK VINA RESULT:      -8.0      2.298      3.231
REMARK  Name = 
REMARK  2 active torsions:
REMARK  status: ('A' for Active; 'I' for Inactive)
REMARK    1  A    between atoms: C_2  and  C_16
REMARK    2  A    between atoms: N_3  and  C_4
REMARK                            x       y       z     vdW  Elec       q    Type
REMARK                         _______ _______ _______ _____ _____    ______ ____
ROOT
ATOM      1  C   UNL     1       3.358   6.725  18.376  0.00  0.00    +0.000 A 
ATOM      2  C   UNL     1       4.145   7.429  17.435  0.00  0.00    +0.000 A 
ATOM      3  C   UNL     1       4.960   6.771  16.512  0.00  0.00    +0.000 A 
ATOM      4  C   UNL     1       4.969   5.396  16.557  0.00  0.00    +0.000 A 
ATOM      5  C   UNL     1       4.233   4.675  17.487  0.00  0.00    +0.000 A 
ATOM      6  C   UNL     1       3.419   5.323  18.410  0.00  0.00    +0.000 A 
ATOM      7  C   UNL     1       4.398   3.219  17.320  0.00  0.00    +0.000 C 
ATOM      8  O   UNL     1       3.768   2.361  17.903  0.00  0.00    +0.000 OA
ATOM      9  N   UNL     1       5.361   2.969  16.326  0.00  0.00    +0.000 N 
ATOM     10  S   UNL     1       5.899   4.339  15.537  0.00  0.00    +0.000 S 
ATOM     11  O   UNL     1       7.298   4.525  15.827  0.00  0.00    +0.000 OA
ATOM     12  O   UNL     1       5.335   4.356  14.210  0.00  0.00    +0.000 OA
ATOM     13  H   UNL     1       5.387   2.071  15.855  0.00  0.00    +0.000 HD
ENDROOT
BRANCH   1  16
ATOM     14  O   UNL     1       1.610   9.030  17.902  0.00  0.00    +0.000 OA
ATOM     15  C   UNL     1       1.734   8.501  19.001  0.00  0.00    +0.000 C 
ATOM     16  N   UNL     1       2.504   7.383  19.294  0.00  0.00    +0.000 N 
ATOM     17  H   UNL     1       2.340   6.925  20.179  0.00  0.00    +0.000 HD
BRANCH  15  18
ATOM     18  C   UNL     1       0.932   9.065  20.115  0.00  0.00    +0.000 A 
ATOM     19  C   UNL     1       0.169  10.213  19.849  0.00  0.00    +0.000 A 
ATOM     20  C   UNL     1      -0.550  10.831  20.871  0.00  0.00    +0.000 A 
ATOM     21  C   UNL     1      -0.493  10.305  22.155  0.00  0.00    +0.000 A 
ATOM     22  F   UNL     1      -1.170  10.906  23.142  0.00  0.00    +0.000 F 
ATOM     23  C   UNL     1       0.269   9.172  22.435  0.00  0.00    +0.000 A 
ATOM     24  C   UNL     1       0.987   8.545  21.414  0.00  0.00    +0.000 A 
ENDBRANCH  15  18
ENDBRANCH   1  16
TORSDOF 2
ENDMDL
MODEL 6
REMARK VINA RESULT:      -8.0      2.462      3.499
REMARK  Name = 
REMARK  2 active torsions:
REMARK  status: ('A' for Active; 'I' for Inactive)
REMARK    1  A    between atoms: C_2  and  C_16
REMARK    2  A    between atoms: N_3  and  C_4
REMARK                            x       y       z     vdW  Elec       q    Type
REMARK                         _______ _______ _______ _____ _____    ______ ____
ROOT
ATOM      1  C   UNL     1       3.436   6.821  18.107  0.00  0.00    +0.000 A 
ATOM      2  C   UNL     1       4.248   7.477  17.153  0.00  0.00    +0.000 A 
ATOM      3  C   UNL     1       5.070   6.773  16.272  0.00  0.00    +0.000 A 
ATOM      4  C   UNL     1       5.062   5.400  16.372  0.00  0.00    +0.000 A 
ATOM      5  C   UNL     1       4.300   4.726  17.317  0.00  0.00    +0.000 A 
ATOM      6  C   UNL     1       3.479   5.421  18.199  0.00  0.00    +0.000 A 
ATOM      7  C   UNL     1       4.450   3.262  17.212  0.00  0.00    +0.000 C 
ATOM      8  O   UNL     1       3.799   2.437  17.818  0.00  0.00    +0.000 OA
ATOM      9  N   UNL     1       5.426   2.961  16.246  0.00  0.00    +0.000 N 
ATOM     10  S   UNL     1       5.995   4.292  15.413  0.00  0.00    +0.000 S 
ATOM     11  O   UNL     1       7.391   4.473  15.720  0.00  0.00    +0.000 OA
ATOM     12  O   UNL     1       5.454   4.262  14.076  0.00  0.00    +0.000 OA
ATOM     13  H   UNL     1       5.450   2.044  15.812  0.00  0.00    +0.000 HD
ENDROOT
BRANCH   1  16
ATOM     14  O   UNL     1       1.783   9.172  17.529  0.00  0.00    +0.000 OA
ATOM     15  C   UNL     1       1.852   8.662  18.642  0.00  0.00    +0.000 C 
ATOM     16  N   UNL     1       2.574   7.526  18.983  0.00  0.00    +0.000 N 
ATOM     17  H   UNL     1       2.366   7.092  19.871  0.00  0.00    +0.000 HD
BRANCH  15  18
ATOM     18  C   UNL     1       1.034   9.275  19.717  0.00  0.00    +0.000 A 
ATOM     19  C   UNL     1       1.134   8.724  21.004  0.00  0.00    +0.000 A 
ATOM     20  C   UNL     1       0.338   9.211  22.041  0.00  0.00    +0.000 A 
ATOM     21  C   UNL     1      -0.561  10.238  21.782  0.00  0.00    +0.000 A 
ATOM     22  F   UNL     1      -1.337  10.696  22.771  0.00  0.00    +0.000 F 
ATOM     23  C   UNL     1      -0.678  10.787  20.506  0.00  0.00    +0.000 A 
ATOM     24  C   UNL     1       0.121  10.307  19.465  0.00  0.00    +0.000 A 
ENDBRANCH  15  18
ENDBRANCH   1  16
TORSDOF 2
ENDMDL
MODEL 7
REMARK VINA RESULT:      -7.9      5.880      8.853
REMARK  Name = 
REMARK  2 active torsions:
REMARK  status: ('A' for Active; 'I' for Inactive)
REMARK    1  A    between atoms: C_2  and  C_16
REMARK    2  A    between atoms: N_3  and  C_4
REMARK                            x       y       z     vdW  Elec       q    Type
REMARK                         _______ _______ _______ _____ _____    ______ ____
ROOT
ATOM      1  C   UNL     1       4.187   3.973  17.287  0.00  0.00    +0.000 A 
ATOM      2  C   UNL     1       4.737   4.711  18.360  0.00  0.00    +0.000 A 
ATOM      3  C   UNL     1       4.065   4.865  19.574  0.00  0.00    +0.000 A 
ATOM      4  C   UNL     1       2.831   4.266  19.684  0.00  0.00    +0.000 A 
ATOM      5  C   UNL     1       2.249   3.560  18.640  0.00  0.00    +0.000 A 
ATOM      6  C   UNL     1       2.912   3.403  17.427  0.00  0.00    +0.000 A 
ATOM      7  C   UNL     1       0.934   3.001  19.009  0.00  0.00    +0.000 C 
ATOM      8  O   UNL     1       0.276   2.233  18.340  0.00  0.00    +0.000 OA
ATOM      9  N   UNL     1       0.584   3.445  20.297  0.00  0.00    +0.000 N 
ATOM     10  S   UNL     1       1.784   4.311  21.071  0.00  0.00    +0.000 S 
ATOM     11  O   UNL     1       1.330   5.665  21.266  0.00  0.00    +0.000 OA
ATOM     12  O   UNL     1       2.349   3.486  22.109  0.00  0.00    +0.000 OA
ATOM     13  H   UNL     1      -0.106   2.938  20.841  0.00  0.00    +0.000 HD
ENDROOT
BRANCH   1  16
ATOM     14  O   UNL     1       5.144   6.010  15.409  0.00  0.00    +0.000 OA
ATOM     15  C   UNL     1       5.262   4.806  15.206  0.00  0.00    +0.000 C 
ATOM     16  N   UNL     1       4.876   3.785  16.064  0.00  0.00    +0.000 N 
ATOM     17  H   UNL     1       5.231   2.859  15.874  0.00  0.00    +0.000 HD
BRANCH  15  18
ATOM     18  C   UNL     1       5.943   4.398  13.952  0.00  0.00    +0.000 A 
ATOM     19  C   UNL     1       5.352   3.373  13.196  0.00  0.00    +0.000 A 
ATOM     20  C   UNL     1       5.980   2.897  12.046  0.00  0.00    +0.000 A 
ATOM     21  C   UNL     1       7.200   3.440  11.665  0.00  0.00    +0.000 A 
ATOM     22  F   UNL     1       7.813   2.974  10.569  0.00  0.00    +0.000 F 
ATOM     23  C   UNL     1       7.803   4.451  12.411  0.00  0.00    +0.000 A 
ATOM     24  C   UNL     1       7.175   4.936  13.562  0.00  0.00    +0.000 A 
ENDBRANCH  15  18
ENDBRANCH   1  16
TORSDOF 2
ENDMDL
MODEL 8
REMARK VINA RESULT:      -7.9      1.343      2.581
REMARK  Name = 
REMARK  2 active torsions:
REMARK  status: ('A' for Active; 'I' for Inactive)
REMARK    1  A    between atoms: C_2  and  C_16
REMARK    2  A    between atoms: N_3  and  C_4
REMARK                            x       y       z     vdW  Elec       q    Type
REMARK                         _______ _______ _______ _____ _____    ______ ____
ROOT
ATOM      1  C   UNL     1       2.069   5.914  20.358  0.00  0.00    +0.000 A 
ATOM      2  C   UNL     1       3.454   5.860  20.079  0.00  0.00    +0.000 A 
ATOM      3  C   UNL     1       4.045   4.747  19.477  0.00  0.00    +0.000 A 
ATOM      4  C   UNL     1       3.217   3.693  19.166  0.00  0.00    +0.000 A 
ATOM      5  C   UNL     1       1.859   3.702  19.453  0.00  0.00    +0.000 A 
ATOM      6  C   UNL     1       1.263   4.806  20.053  0.00  0.00    +0.000 A 
ATOM      7  C   UNL     1       1.188   2.465  19.008  0.00  0.00    +0.000 C 
ATOM      8  O   UNL     1      -0.009   2.267  19.010  0.00  0.00    +0.000 OA
ATOM      9  N   UNL     1       2.148   1.564  18.516  0.00  0.00    +0.000 N 
ATOM     10  S   UNL     1       3.693   2.193  18.429  0.00  0.00    +0.000 S 
ATOM     11  O   UNL     1       4.541   1.474  19.346  0.00  0.00    +0.000 OA
ATOM     12  O   UNL     1       4.013   2.434  17.045  0.00  0.00    +0.000 OA
ATOM     13  H   UNL     1       1.872   0.814  17.892  0.00  0.00    +0.000 HD
ENDROOT
BRANCH   1  16
ATOM     14  O   UNL     1       1.712   8.581  19.192  0.00  0.00    +0.000 OA
ATOM     15  C   UNL     1       1.362   8.298  20.334  0.00  0.00    +0.000 C 
ATOM     16  N   UNL     1       1.456   7.052  20.938  0.00  0.00    +0.000 N 
ATOM     17  H   UNL     1       0.931   6.908  21.789  0.00  0.00    +0.000 HD
BRANCH  15  18
ATOM     18  C   UNL     1       0.713   9.372  21.125  0.00  0.00    +0.000 A 
ATOM     19  C   UNL     1       0.078   9.004  22.322  0.00  0.00    +0.000 A 
ATOM     20  C   UNL     1      -0.609   9.956  23.074  0.00  0.00    +0.000 A 
ATOM     21  C   UNL     1      -0.667  11.268  22.620  0.00  0.00    +0.000 A 
ATOM     22  F   UNL     1      -1.339  12.180  23.332  0.00  0.00    +0.000 F 
ATOM     23  C   UNL     1      -0.049  11.644  21.429  0.00  0.00    +0.000 A 
ATOM     24  C   UNL     1       0.645  10.696  20.673  0.00  0.00    +0.000 A 
ENDBRANCH  15  18
ENDBRANCH   1  16
TORSDOF 2
ENDMDL
MODEL 9
REMARK VINA RESULT:      -7.9      1.667      2.460
REMARK  Name = 
REMARK  2 active torsions:
REMARK  status: ('A' for Active; 'I' for Inactive)
REMARK    1  A    between atoms: C_2  and  C_16
REMARK    2  A    between atoms: N_3  and  C_4
REMARK                            x       y       z     vdW  Elec       q    Type
REMARK                         _______ _______ _______ _____ _____    ______ ____
ROOT
ATOM      1  C   UNL     1       1.739   7.105  20.053  0.00  0.00    +0.000 A 
ATOM      2  C   UNL     1       2.650   7.190  18.975  0.00  0.00    +0.000 A 
ATOM      3  C   UNL     1       3.471   6.121  18.613  0.00  0.00    +0.000 A 
ATOM      4  C   UNL     1       3.360   4.969  19.358  0.00  0.00    +0.000 A 
ATOM      5  C   UNL     1       2.499   4.862  20.441  0.00  0.00    +0.000 A 
ATOM      6  C   UNL     1       1.678   5.923  20.808  0.00  0.00    +0.000 A 
ATOM      7  C   UNL     1       2.551   3.525  21.064  0.00  0.00    +0.000 C 
ATOM      8  O   UNL     1       1.810   3.118  21.933  0.00  0.00    +0.000 OA
ATOM      9  N   UNL     1       3.559   2.763  20.448  0.00  0.00    +0.000 N 
ATOM     10  S   UNL     1       4.269   3.505  19.130  0.00  0.00    +0.000 S 
ATOM     11  O   UNL     1       5.653   3.765  19.432  0.00  0.00    +0.000 OA
ATOM     12  O   UNL     1       3.807   2.851  17.931  0.00  0.00    +0.000 OA
ATOM     13  H   UNL     1       3.543   1.750  20.510  0.00  0.00    +0.000 HD
ENDROOT
BRANCH   1  16
ATOM     14  O   UNL     1       1.899   8.870  22.388  0.00  0.00    +0.000 OA
ATOM     15  C   UNL     1       0.999   8.941  21.557  0.00  0.00    +0.000 C 
ATOM     16  N   UNL     1       0.880   8.173  20.406  0.00  0.00    +0.000 N 
ATOM     17  H   UNL     1       0.222   8.485  19.707  0.00  0.00    +0.000 HD
BRANCH  15  18
ATOM     18  C   UNL     1      -0.027   9.992  21.764  0.00  0.00    +0.000 A 
ATOM     19  C   UNL     1      -0.338  10.820  20.673  0.00  0.00    +0.000 A 
ATOM     20  C   UNL     1      -1.242  11.870  20.823  0.00  0.00    +0.000 A 
ATOM     21  C   UNL     1      -1.821  12.095  22.065  0.00  0.00    +0.000 A 
ATOM     22  F   UNL     1      -2.678  13.112  22.215  0.00  0.00    +0.000 F 
ATOM     23  C   UNL     1      -1.514  11.287  23.159  0.00  0.00    +0.000 A 
ATOM     24  C   UNL     1      -0.613  10.230  23.013  0.00  0.00    +0.000 A 
ENDBRANCH  15  18
ENDBRANCH   1  16
TORSDOF 2
ENDMDL
