MODEL 1
REMARK VINA RESULT:     -10.0      0.000      0.000
REMARK  Name = 
REMARK  5 active torsions:
REMARK  status: ('A' for Active; 'I' for Inactive)
REMARK    1  A    between atoms: C_2  and  O_3
REMARK    2  A    between atoms: C_2  and  C_4
REMARK    3  A    between atoms: C_8  and  N_9
REMARK    4  A    between atoms: C_10  and  C_11
REMARK    5  A    between atoms: C_12  and  C_13
REMARK                            x       y       z     vdW  Elec       q    Type
REMARK                         _______ _______ _______ _____ _____    ______ ____
ROOT
ATOM      1  N   UNL     1       4.544   3.750  17.402  0.00  0.00    +0.000 N 
ATOM      2  C   UNL     1       4.779   4.219  18.683  0.00  0.00    +0.000 A 
ATOM      3  N   UNL     1       4.713   3.343  19.641  0.00  0.00    +0.000 NA
ATOM      4  C   UNL     1       3.381   2.894  19.736  0.00  0.00    +0.000 A 
ATOM      5  C   UNL     1       2.842   2.799  21.014  0.00  0.00    +0.000 A 
ATOM      6  C   UNL     1       1.510   3.139  21.196  0.00  0.00    +0.000 A 
ATOM      7  C   UNL     1       0.729   3.509  20.093  0.00  0.00    +0.000 A 
ATOM      8  C   UNL     1       1.228   3.398  18.785  0.00  0.00    +0.000 A 
ATOM      9  C   UNL     1       2.557   3.023  18.598  0.00  0.00    +0.000 A 
ATOM     10  C   UNL     1       3.272   3.174  17.269  0.00  0.00    +0.000 A 
ATOM     11  O   UNL     1       2.679   2.922  16.229  0.00  0.00    +0.000 OA
ENDROOT
BRANCH   1  16
ATOM     12  C   UNL     1       5.928   4.045  13.963  0.00  0.00    +0.000 A 
ATOM     13  C   UNL     1       7.131   4.715  14.176  0.00  0.00    +0.000 A 
ATOM     14  C   UNL     1       7.459   5.152  15.463  0.00  0.00    +0.000 A 
ATOM     15  C   UNL     1       6.628   4.857  16.556  0.00  0.00    +0.000 A 
ATOM     16  C   UNL     1       5.422   4.182  16.357  0.00  0.00    +0.000 A 
ATOM     17  C   UNL     1       5.054   3.870  15.034  0.00  0.00    +0.000 A 
BRANCH  12  19
ATOM     18  O   UNL     1       4.465   3.532  12.174  0.00  0.00    +0.000 OA
ATOM     19  C   UNL     1       5.560   3.408  12.691  0.00  0.00    +0.000 C 
BRANCH  19  20
ATOM     20  O   UNL     1       6.502   2.545  12.260  0.00  0.00    +0.000 OA
ATOM     21  H   UNL     1       6.204   1.623  12.157  0.00  0.00    +0.000 HD
ENDBRANCH  19  20
ENDBRANCH  12  19
ENDBRANCH   1  16
BRANCH   2  22
ATOM     22  C   UNL     1       4.245   5.642  18.790  0.00  0.00    +0.000 C 
ATOM     23  C   UNL     1       3.298   5.961  19.675  0.00  0.00    +0.000 C 
BRANCH  23  24
ATOM     24  C   UNL     1       2.436   7.152  19.559  0.00  0.00    +0.000 A 
ATOM     25  C   UNL     1       2.392   7.804  18.322  0.00  0.00    +0.000 A 
ATOM     26  C   UNL     1       1.660   8.983  18.167  0.00  0.00    +0.000 A 
ATOM     27  N   UNL     1       0.957   9.536  19.220  0.00  0.00    +0.000 N 
ATOM     28  O   UNL     1       0.309  10.616  19.073  0.00  0.00    +0.000 OA
ATOM     29  C   UNL     1       0.989   8.889  20.440  0.00  0.00    +0.000 A 
ATOM     30  C   UNL     1       1.714   7.706  20.623  0.00  0.00    +0.000 A 
ENDBRANCH  23  24
ENDBRANCH   2  22
TORSDOF 5
ENDMDL
MODEL 2
REMARK VINA RESULT:      -9.4      0.223      1.083
REMARK  Name = 
REMARK  5 active torsions:
REMARK  status: ('A' for Active; 'I' for Inactive)
REMARK    1  A    between atoms: C_2  and  O_3
REMARK    2  A    between atoms: C_2  and  C_4
REMARK    3  A    between atoms: C_8  and  N_9
REMARK    4  A    between atoms: C_10  and  C_11
REMARK    5  A    between atoms: C_12  and  C_13
REMARK                            x       y       z     vdW  Elec       q    Type
REMARK                         _______ _______ _______ _____ _____    ______ ____
ROOT
ATOM      1  N   UNL     1       4.545   3.791  17.327  0.00  0.00    +0.000 N 
ATOM      2  C   UNL     1       4.782   4.247  18.613  0.00  0.00    +0.000 A 
ATOM      3  N   UNL     1       4.704   3.364  19.563  0.00  0.00    +0.000 NA
ATOM      4  C   UNL     1       3.367   2.930  19.652  0.00  0.00    +0.000 A 
ATOM      5  C   UNL     1       2.824   2.832  20.928  0.00  0.00    +0.000 A 
ATOM      6  C   UNL     1       1.495   3.185  21.109  0.00  0.00    +0.000 A 
ATOM      7  C   UNL     1       0.721   3.573  20.008  0.00  0.00    +0.000 A 
ATOM      8  C   UNL     1       1.222   3.468  18.700  0.00  0.00    +0.000 A 
ATOM      9  C   UNL     1       2.546   3.078  18.513  0.00  0.00    +0.000 A 
ATOM     10  C   UNL     1       3.266   3.232  17.187  0.00  0.00    +0.000 A 
ATOM     11  O   UNL     1       2.672   2.995  16.143  0.00  0.00    +0.000 OA
ENDROOT
BRANCH   1  16
ATOM     12  C   UNL     1       5.985   4.039  13.908  0.00  0.00    +0.000 A 
ATOM     13  C   UNL     1       7.164   4.747  14.125  0.00  0.00    +0.000 A 
ATOM     14  C   UNL     1       7.456   5.226  15.405  0.00  0.00    +0.000 A 
ATOM     15  C   UNL     1       6.613   4.935  16.491  0.00  0.00    +0.000 A 
ATOM     16  C   UNL     1       5.429   4.222  16.287  0.00  0.00    +0.000 A 
ATOM     17  C   UNL     1       5.095   3.867  14.967  0.00  0.00    +0.000 A 
BRANCH  12  19
ATOM     18  O   UNL     1       6.480   2.767  11.973  0.00  0.00    +0.000 OA
ATOM     19  C   UNL     1       5.658   3.361  12.645  0.00  0.00    +0.000 C 
BRANCH  19  20
ATOM     20  O   UNL     1       4.398   3.618  12.238  0.00  0.00    +0.000 OA
ATOM     21  H   UNL     1       3.870   2.833  12.002  0.00  0.00    +0.000 HD
ENDBRANCH  19  20
ENDBRANCH  12  19
ENDBRANCH   1  16
BRANCH   2  22
ATOM     22  C   UNL     1       4.265   5.675  18.730  0.00  0.00    +0.000 C 
ATOM     23  C   UNL     1       3.392   6.019  19.679  0.00  0.00    +0.000 C 
BRANCH  23  24
ATOM     24  C   UNL     1       2.528   7.213  19.605  0.00  0.00    +0.000 A 
ATOM     25  C   UNL     1       1.753   7.524  20.728  0.00  0.00    +0.000 A 
ATOM     26  C   UNL     1       0.855   8.592  20.696  0.00  0.00    +0.000 A 
ATOM     27  N   UNL     1       0.707   9.374  19.566  0.00  0.00    +0.000 N 
ATOM     28  O   UNL     1      -0.123  10.331  19.542  0.00  0.00    +0.000 OA
ATOM     29  C   UNL     1       1.479   9.076  18.460  0.00  0.00    +0.000 A 
ATOM     30  C   UNL     1       2.387   8.011  18.464  0.00  0.00    +0.000 A 
ENDBRANCH  23  24
ENDBRANCH   2  22
TORSDOF 5
ENDMDL
MODEL 3
REMARK VINA RESULT:      -9.2      2.768      5.799
REMARK  Name = 
REMARK  5 active torsions:
REMARK  status: ('A' for Active; 'I' for Inactive)
REMARK    1  A    between atoms: C_2  and  O_3
REMARK    2  A    between atoms: C_2  and  C_4
REMARK    3  A    between atoms: C_8  and  N_9
REMARK    4  A    between atoms: C_10  and  C_11
REMARK    5  A    between atoms: C_12  and  C_13
REMARK                            x       y       z     vdW  Elec       q    Type
REMARK                         _______ _______ _______ _____ _____    ______ ____
ROOT
ATOM      1  N   UNL     1       4.113   4.485  18.135  0.00  0.00    +0.000 N 
ATOM      2  C   UNL     1       4.017   5.607  17.329  0.00  0.00    +0.000 A 
ATOM      3  N   UNL     1       4.836   5.667  16.322  0.00  0.00    +0.000 NA
ATOM      4  C   UNL     1       6.147   5.783  16.826  0.00  0.00    +0.000 A 
ATOM      5  C   UNL     1       6.970   6.724  16.219  0.00  0.00    +0.000 A 
ATOM      6  C   UNL     1       7.852   7.441  17.015  0.00  0.00    +0.000 A 
ATOM      7  C   UNL     1       7.936   7.164  18.386  0.00  0.00    +0.000 A 
ATOM      8  C   UNL     1       7.252   6.072  18.945  0.00  0.00    +0.000 A 
ATOM      9  C   UNL     1       6.392   5.329  18.139  0.00  0.00    +0.000 A 
ATOM     10  C   UNL     1       5.387   4.344  18.705  0.00  0.00    +0.000 A 
ATOM     11  O   UNL     1       5.700   3.630  19.648  0.00  0.00    +0.000 OA
ENDROOT
BRANCH   1  16
ATOM     12  C   UNL     1       1.684   2.810  20.398  0.00  0.00    +0.000 A 
ATOM     13  C   UNL     1       0.704   2.362  19.516  0.00  0.00    +0.000 A 
ATOM     14  C   UNL     1       0.798   2.686  18.159  0.00  0.00    +0.000 A 
ATOM     15  C   UNL     1       1.907   3.391  17.662  0.00  0.00    +0.000 A 
ATOM     16  C   UNL     1       2.899   3.841  18.537  0.00  0.00    +0.000 A 
ATOM     17  C   UNL     1       2.713   3.616  19.914  0.00  0.00    +0.000 A 
BRANCH  12  19
ATOM     18  O   UNL     1       0.817   2.424  22.568  0.00  0.00    +0.000 OA
ATOM     19  C   UNL     1       1.767   2.398  21.807  0.00  0.00    +0.000 C 
BRANCH  19  20
ATOM     20  O   UNL     1       3.036   2.158  22.195  0.00  0.00    +0.000 OA
ATOM     21  H   UNL     1       3.196   2.226  23.154  0.00  0.00    +0.000 HD
ENDBRANCH  19  20
ENDBRANCH  12  19
ENDBRANCH   1  16
BRANCH   2  22
ATOM     22  C   UNL     1       3.642   6.803  18.196  0.00  0.00    +0.000 C 
ATOM     23  C   UNL     1       2.365   7.121  18.420  0.00  0.00    +0.000 C 
BRANCH  23  24
ATOM     24  C   UNL     1       1.918   8.458  18.856  0.00  0.00    +0.000 A 
ATOM     25  C   UNL     1       1.433   8.587  20.162  0.00  0.00    +0.000 A 
ATOM     26  C   UNL     1       0.920   9.804  20.611  0.00  0.00    +0.000 A 
ATOM     27  N   UNL     1       0.878  10.914  19.790  0.00  0.00    +0.000 N 
ATOM     28  O   UNL     1       0.394  12.010  20.201  0.00  0.00    +0.000 OA
ATOM     29  C   UNL     1       1.366  10.793  18.502  0.00  0.00    +0.000 A 
ATOM     30  C   UNL     1       1.887   9.585  18.026  0.00  0.00    +0.000 A 
ENDBRANCH  23  24
ENDBRANCH   2  22
TORSDOF 5
ENDMDL
MODEL 4
REMARK VINA RESULT:      -9.1      2.180      2.850
REMARK  Name = 
REMARK  5 active torsions:
REMARK  status: ('A' for Active; 'I' for Inactive)
REMARK    1  A    between atoms: C_2  and  O_3
REMARK    2  A    between atoms: C_2  and  C_4
REMARK    3  A    between atoms: C_8  and  N_9
REMARK    4  A    between atoms: C_10  and  C_11
REMARK    5  A    between atoms: C_12  and  C_13
REMARK                            x       y       z     vdW  Elec       q    Type
REMARK                         _______ _______ _______ _____ _____    ______ ____
ROOT
ATOM      1  N   UNL     1       4.438   3.840  18.143  0.00  0.00    +0.000 N 
ATOM      2  C   UNL     1       4.580   4.127  19.490  0.00  0.00    +0.000 A 
ATOM      3  N   UNL     1       4.531   3.117  20.305  0.00  0.00    +0.000 NA
ATOM      4  C   UNL     1       3.230   2.576  20.260  0.00  0.00    +0.000 A 
ATOM      5  C   UNL     1       2.641   2.260  21.478  0.00  0.00    +0.000 A 
ATOM      6  C   UNL     1       1.281   2.485  21.632  0.00  0.00    +0.000 A 
ATOM      7  C   UNL     1       0.528   2.965  20.552  0.00  0.00    +0.000 A 
ATOM      8  C   UNL     1       1.094   3.081  19.272  0.00  0.00    +0.000 A 
ATOM      9  C   UNL     1       2.453   2.821  19.108  0.00  0.00    +0.000 A 
ATOM     10  C   UNL     1       3.217   3.212  17.857  0.00  0.00    +0.000 A 
ATOM     11  O   UNL     1       2.691   3.080  16.759  0.00  0.00    +0.000 OA
ENDROOT
BRANCH   1  16
ATOM     12  C   UNL     1       7.018   6.229  16.934  0.00  0.00    +0.000 A 
ATOM     13  C   UNL     1       6.999   6.026  15.557  0.00  0.00    +0.000 A 
ATOM     14  C   UNL     1       6.183   5.027  15.018  0.00  0.00    +0.000 A 
ATOM     15  C   UNL     1       5.324   4.279  15.840  0.00  0.00    +0.000 A 
ATOM     16  C   UNL     1       5.331   4.476  17.222  0.00  0.00    +0.000 A 
ATOM     17  C   UNL     1       6.257   5.395  17.751  0.00  0.00    +0.000 A 
BRANCH  12  19
ATOM     18  O   UNL     1       7.874   8.433  17.063  0.00  0.00    +0.000 OA
ATOM     19  C   UNL     1       7.715   7.346  17.587  0.00  0.00    +0.000 C 
BRANCH  19  20
ATOM     20  O   UNL     1       8.298   6.977  18.746  0.00  0.00    +0.000 OA
ATOM     21  H   UNL     1       7.851   7.290  19.554  0.00  0.00    +0.000 HD
ENDBRANCH  19  20
ENDBRANCH  12  19
ENDBRANCH   1  16
BRANCH   2  22
ATOM     22  C   UNL     1       3.943   5.482  19.772  0.00  0.00    +0.000 C 
ATOM     23  C   UNL     1       2.828   5.866  19.149  0.00  0.00    +0.000 C 
BRANCH  23  24
ATOM     24  C   UNL     1       2.400   7.272  19.025  0.00  0.00    +0.000 A 
ATOM     25  C   UNL     1       1.719   7.842  20.107  0.00  0.00    +0.000 A 
ATOM     26  C   UNL     1       1.216   9.141  20.024  0.00  0.00    +0.000 A 
ATOM     27  N   UNL     1       1.377   9.903  18.884  0.00  0.00    +0.000 N 
ATOM     28  O   UNL     1       0.902  11.076  18.812  0.00  0.00    +0.000 OA
ATOM     29  C   UNL     1       2.058   9.348  17.817  0.00  0.00    +0.000 A 
ATOM     30  C   UNL     1       2.574   8.048  17.873  0.00  0.00    +0.000 A 
ENDBRANCH  23  24
ENDBRANCH   2  22
TORSDOF 5
ENDMDL
MODEL 5
REMARK VINA RESULT:      -9.0      2.314      2.862
REMARK  Name = 
REMARK  5 active torsions:
REMARK  status: ('A' for Active; 'I' for Inactive)
REMARK    1  A    between atoms: C_2  and  O_3
REMARK    2  A    between atoms: C_2  and  C_4
REMARK    3  A    between atoms: C_8  and  N_9
REMARK    4  A    between atoms: C_10  and  C_11
REMARK    5  A    between atoms: C_12  and  C_13
REMARK                            x       y       z     vdW  Elec       q    Type
REMARK                         _______ _______ _______ _____ _____    ______ ____
ROOT
ATOM      1  N   UNL     1       4.602   3.938  18.328  0.00  0.00    +0.000 N 
ATOM      2  C   UNL     1       4.186   4.681  19.419  0.00  0.00    +0.000 A 
ATOM      3  N   UNL     1       4.139   4.059  20.559  0.00  0.00    +0.000 NA
ATOM      4  C   UNL     1       3.136   3.072  20.481  0.00  0.00    +0.000 A 
ATOM      5  C   UNL     1       2.274   2.968  21.566  0.00  0.00    +0.000 A 
ATOM      6  C   UNL     1       0.938   2.682  21.323  0.00  0.00    +0.000 A 
ATOM      7  C   UNL     1       0.503   2.448  20.012  0.00  0.00    +0.000 A 
ATOM      8  C   UNL     1       1.422   2.350  18.954  0.00  0.00    +0.000 A 
ATOM      9  C   UNL     1       2.769   2.603  19.202  0.00  0.00    +0.000 A 
ATOM     10  C   UNL     1       3.778   2.827  18.092  0.00  0.00    +0.000 A 
ATOM     11  O   UNL     1       3.722   2.150  17.075  0.00  0.00    +0.000 OA
ENDROOT
BRANCH   1  16
ATOM     12  C   UNL     1       7.202   6.313  17.134  0.00  0.00    +0.000 A 
ATOM     13  C   UNL     1       7.295   6.006  15.779  0.00  0.00    +0.000 A 
ATOM     14  C   UNL     1       6.551   4.943  15.259  0.00  0.00    +0.000 A 
ATOM     15  C   UNL     1       5.652   4.231  16.070  0.00  0.00    +0.000 A 
ATOM     16  C   UNL     1       5.546   4.532  17.430  0.00  0.00    +0.000 A 
ATOM     17  C   UNL     1       6.403   5.519  17.953  0.00  0.00    +0.000 A 
BRANCH  12  19
ATOM     18  O   UNL     1       7.850   8.590  17.208  0.00  0.00    +0.000 OA
ATOM     19  C   UNL     1       7.814   7.500  17.749  0.00  0.00    +0.000 C 
BRANCH  19  20
ATOM     20  O   UNL     1       8.474   7.203  18.887  0.00  0.00    +0.000 OA
ATOM     21  H   UNL     1       7.915   6.887  19.620  0.00  0.00    +0.000 HD
ENDBRANCH  19  20
ENDBRANCH  12  19
ENDBRANCH   1  16
BRANCH   2  22
ATOM     22  C   UNL     1       3.144   5.691  18.955  0.00  0.00    +0.000 C 
ATOM     23  C   UNL     1       3.301   6.998  19.174  0.00  0.00    +0.000 C 
BRANCH  23  24
ATOM     24  C   UNL     1       2.192   7.971  19.163  0.00  0.00    +0.000 A 
ATOM     25  C   UNL     1       1.892   8.599  17.949  0.00  0.00    +0.000 A 
ATOM     26  C   UNL     1       0.908   9.588  17.886  0.00  0.00    +0.000 A 
ATOM     27  N   UNL     1       0.202   9.972  19.009  0.00  0.00    +0.000 N 
ATOM     28  O   UNL     1      -0.677  10.883  18.945  0.00  0.00    +0.000 OA
ATOM     29  C   UNL     1       0.488   9.346  20.208  0.00  0.00    +0.000 A 
ATOM     30  C   UNL     1       1.468   8.351  20.299  0.00  0.00    +0.000 A 
ENDBRANCH  23  24
ENDBRANCH   2  22
TORSDOF 5
ENDMDL
MODEL 6
REMARK VINA RESULT:      -8.8      2.803      5.777
REMARK  Name = 
REMARK  5 active torsions:
REMARK  status: ('A' for Active; 'I' for Inactive)
REMARK    1  A    between atoms: C_2  and  O_3
REMARK    2  A    between atoms: C_2  and  C_4
REMARK    3  A    between atoms: C_8  and  N_9
REMARK    4  A    between atoms: C_10  and  C_11
REMARK    5  A    between atoms: C_12  and  C_13
REMARK                            x       y       z     vdW  Elec       q    Type
REMARK                         _______ _______ _______ _____ _____    ______ ____
ROOT
ATOM      1  N   UNL     1       4.222   4.576  18.109  0.00  0.00    +0.000 N 
ATOM      2  C   UNL     1       4.111   5.683  17.285  0.00  0.00    +0.000 A 
ATOM      3  N   UNL     1       4.940   5.745  16.286  0.00  0.00    +0.000 NA
ATOM      4  C   UNL     1       6.242   5.897  16.802  0.00  0.00    +0.000 A 
ATOM      5  C   UNL     1       7.051   6.846  16.190  0.00  0.00    +0.000 A 
ATOM      6  C   UNL     1       7.909   7.594  16.984  0.00  0.00    +0.000 A 
ATOM      7  C   UNL     1       7.983   7.341  18.359  0.00  0.00    +0.000 A 
ATOM      8  C   UNL     1       7.317   6.243  18.928  0.00  0.00    +0.000 A 
ATOM      9  C   UNL     1       6.482   5.469  18.125  0.00  0.00    +0.000 A 
ATOM     10  C   UNL     1       5.492   4.472  18.695  0.00  0.00    +0.000 A 
ATOM     11  O   UNL     1       5.810   3.780  19.653  0.00  0.00    +0.000 OA
ENDROOT
BRANCH   1  16
ATOM     12  C   UNL     1       1.805   2.881  20.371  0.00  0.00    +0.000 A 
ATOM     13  C   UNL     1       0.844   2.402  19.485  0.00  0.00    +0.000 A 
ATOM     14  C   UNL     1       0.944   2.710  18.125  0.00  0.00    +0.000 A 
ATOM     15  C   UNL     1       2.044   3.430  17.630  0.00  0.00    +0.000 A 
ATOM     16  C   UNL     1       3.017   3.913  18.508  0.00  0.00    +0.000 A 
ATOM     17  C   UNL     1       2.822   3.701  19.886  0.00  0.00    +0.000 A 
BRANCH  12  19
ATOM     18  O   UNL     1       2.906   2.099  22.316  0.00  0.00    +0.000 OA
ATOM     19  C   UNL     1       1.883   2.489  21.786  0.00  0.00    +0.000 C 
BRANCH  19  20
ATOM     20  O   UNL     1       0.669   2.448  22.371  0.00  0.00    +0.000 OA
ATOM     21  H   UNL     1       0.117   1.682  22.128  0.00  0.00    +0.000 HD
ENDBRANCH  19  20
ENDBRANCH  12  19
ENDBRANCH   1  16
BRANCH   2  22
ATOM     22  C   UNL     1       3.700   6.884  18.128  0.00  0.00    +0.000 C 
ATOM     23  C   UNL     1       2.420   7.113  18.429  0.00  0.00    +0.000 C 
BRANCH  23  24
ATOM     24  C   UNL     1       1.898   8.429  18.842  0.00  0.00    +0.000 A 
ATOM     25  C   UNL     1       2.062   9.500  17.956  0.00  0.00    +0.000 A 
ATOM     26  C   UNL     1       1.664  10.788  18.318  0.00  0.00    +0.000 A 
ATOM     27  N   UNL     1       1.096  11.044  19.551  0.00  0.00    +0.000 N 
ATOM     28  O   UNL     1       0.753  12.220  19.877  0.00  0.00    +0.000 OA
ATOM     29  C   UNL     1       0.922   9.988  20.424  0.00  0.00    +0.000 A 
ATOM     30  C   UNL     1       1.311   8.687  20.086  0.00  0.00    +0.000 A 
ENDBRANCH  23  24
ENDBRANCH   2  22
TORSDOF 5
ENDMDL
MODEL 7
REMARK VINA RESULT:      -8.7      2.163      2.718
REMARK  Name = 
REMARK  5 active torsions:
REMARK  status: ('A' for Active; 'I' for Inactive)
REMARK    1  A    between atoms: C_2  and  O_3
REMARK    2  A    between atoms: C_2  and  C_4
REMARK    3  A    between atoms: C_8  and  N_9
REMARK    4  A    between atoms: C_10  and  C_11
REMARK    5  A    between atoms: C_12  and  C_13
REMARK                            x       y       z     vdW  Elec       q    Type
REMARK                         _______ _______ _______ _____ _____    ______ ____
ROOT
ATOM      1  N   UNL     1       4.402   3.830  18.123  0.00  0.00    +0.000 N 
ATOM      2  C   UNL     1       4.571   4.104  19.469  0.00  0.00    +0.000 A 
ATOM      3  N   UNL     1       4.527   3.087  20.276  0.00  0.00    +0.000 NA
ATOM      4  C   UNL     1       3.221   2.559  20.250  0.00  0.00    +0.000 A 
ATOM      5  C   UNL     1       2.651   2.238  21.476  0.00  0.00    +0.000 A 
ATOM      6  C   UNL     1       1.296   2.475  21.657  0.00  0.00    +0.000 A 
ATOM      7  C   UNL     1       0.528   2.972  20.596  0.00  0.00    +0.000 A 
ATOM      8  C   UNL     1       1.072   3.094  19.306  0.00  0.00    +0.000 A 
ATOM      9  C   UNL     1       2.425   2.823  19.115  0.00  0.00    +0.000 A 
ATOM     10  C   UNL     1       3.169   3.217  17.853  0.00  0.00    +0.000 A 
ATOM     11  O   UNL     1       2.623   3.101  16.765  0.00  0.00    +0.000 OA
ENDROOT
BRANCH   1  16
ATOM     12  C   UNL     1       7.031   6.159  16.902  0.00  0.00    +0.000 A 
ATOM     13  C   UNL     1       6.950   6.013  15.519  0.00  0.00    +0.000 A 
ATOM     14  C   UNL     1       6.071   5.070  14.976  0.00  0.00    +0.000 A 
ATOM     15  C   UNL     1       5.214   4.325  15.803  0.00  0.00    +0.000 A 
ATOM     16  C   UNL     1       5.284   4.467  17.191  0.00  0.00    +0.000 A 
ATOM     17  C   UNL     1       6.268   5.325  17.716  0.00  0.00    +0.000 A 
BRANCH  12  19
ATOM     18  O   UNL     1       8.323   7.083  18.658  0.00  0.00    +0.000 OA
ATOM     19  C   UNL     1       7.799   7.221  17.568  0.00  0.00    +0.000 C 
BRANCH  19  20
ATOM     20  O   UNL     1       7.709   8.400  16.921  0.00  0.00    +0.000 OA
ATOM     21  H   UNL     1       7.045   9.019  17.278  0.00  0.00    +0.000 HD
ENDBRANCH  19  20
ENDBRANCH  12  19
ENDBRANCH   1  16
BRANCH   2  22
ATOM     22  C   UNL     1       3.953   5.463  19.775  0.00  0.00    +0.000 C 
ATOM     23  C   UNL     1       2.722   5.772  19.364  0.00  0.00    +0.000 C 
BRANCH  23  24
ATOM     24  C   UNL     1       2.226   7.154  19.228  0.00  0.00    +0.000 A 
ATOM     25  C   UNL     1       2.443   7.805  18.008  0.00  0.00    +0.000 A 
ATOM     26  C   UNL     1       2.070   9.139  17.840  0.00  0.00    +0.000 A 
ATOM     27  N   UNL     1       1.477   9.854  18.862  0.00  0.00    +0.000 N 
ATOM     28  O   UNL     1       1.158  11.071  18.705  0.00  0.00    +0.000 OA
ATOM     29  C   UNL     1       1.251   9.212  20.064  0.00  0.00    +0.000 A 
ATOM     30  C   UNL     1       1.613   7.874  20.260  0.00  0.00    +0.000 A 
ENDBRANCH  23  24
ENDBRANCH   2  22
TORSDOF 5
ENDMDL
MODEL 8
REMARK VINA RESULT:      -8.5      1.340      1.912
REMARK  Name = 
REMARK  5 active torsions:
REMARK  status: ('A' for Active; 'I' for Inactive)
REMARK    1  A    between atoms: C_2  and  O_3
REMARK    2  A    between atoms: C_2  and  C_4
REMARK    3  A    between atoms: C_8  and  N_9
REMARK    4  A    between atoms: C_10  and  C_11
REMARK    5  A    between atoms: C_12  and  C_13
REMARK                            x       y       z     vdW  Elec       q    Type
REMARK                         _______ _______ _______ _____ _____    ______ ____
ROOT
ATOM      1  N   UNL     1       4.580   4.465  18.445  0.00  0.00    +0.000 N 
ATOM      2  C   UNL     1       3.998   5.091  19.534  0.00  0.00    +0.000 A 
ATOM      3  N   UNL     1       3.890   4.382  20.618  0.00  0.00    +0.000 NA
ATOM      4  C   UNL     1       2.984   3.331  20.369  0.00  0.00    +0.000 A 
ATOM      5  C   UNL     1       2.030   3.082  21.349  0.00  0.00    +0.000 A 
ATOM      6  C   UNL     1       0.753   2.715  20.949  0.00  0.00    +0.000 A 
ATOM      7  C   UNL     1       0.471   2.550  19.587  0.00  0.00    +0.000 A 
ATOM      8  C   UNL     1       1.494   2.601  18.626  0.00  0.00    +0.000 A 
ATOM      9  C   UNL     1       2.785   2.934  19.030  0.00  0.00    +0.000 A 
ATOM     10  C   UNL     1       3.877   3.317  18.050  0.00  0.00    +0.000 A 
ATOM     11  O   UNL     1       3.978   2.717  16.988  0.00  0.00    +0.000 OA
ENDROOT
BRANCH   1  16
ATOM     12  C   UNL     1       6.733   5.371  15.552  0.00  0.00    +0.000 A 
ATOM     13  C   UNL     1       7.585   6.329  16.095  0.00  0.00    +0.000 A 
ATOM     14  C   UNL     1       7.398   6.750  17.415  0.00  0.00    +0.000 A 
ATOM     15  C   UNL     1       6.413   6.161  18.225  0.00  0.00    +0.000 A 
ATOM     16  C   UNL     1       5.556   5.195  17.693  0.00  0.00    +0.000 A 
ATOM     17  C   UNL     1       5.680   4.887  16.326  0.00  0.00    +0.000 A 
BRANCH  12  19
ATOM     18  O   UNL     1       7.455   5.321  13.297  0.00  0.00    +0.000 OA
ATOM     19  C   UNL     1       6.935   4.747  14.236  0.00  0.00    +0.000 C 
BRANCH  19  20
ATOM     20  O   UNL     1       6.330   3.546  14.142  0.00  0.00    +0.000 OA
ATOM     21  H   UNL     1       6.738   2.834  14.669  0.00  0.00    +0.000 HD
ENDBRANCH  19  20
ENDBRANCH  12  19
ENDBRANCH   1  16
BRANCH   2  22
ATOM     22  C   UNL     1       2.927   6.052  19.033  0.00  0.00    +0.000 C 
ATOM     23  C   UNL     1       3.090   7.374  19.116  0.00  0.00    +0.000 C 
BRANCH  23  24
ATOM     24  C   UNL     1       1.978   8.342  19.073  0.00  0.00    +0.000 A 
ATOM     25  C   UNL     1       1.327   8.637  20.276  0.00  0.00    +0.000 A 
ATOM     26  C   UNL     1       0.216   9.482  20.291  0.00  0.00    +0.000 A 
ATOM     27  N   UNL     1      -0.270  10.053  19.131  0.00  0.00    +0.000 N 
ATOM     28  O   UNL     1      -1.290  10.805  19.154  0.00  0.00    +0.000 OA
ATOM     29  C   UNL     1       0.377   9.772  17.943  0.00  0.00    +0.000 A 
ATOM     30  C   UNL     1       1.493   8.929  17.898  0.00  0.00    +0.000 A 
ENDBRANCH  23  24
ENDBRANCH   2  22
TORSDOF 5
ENDMDL
MODEL 9
REMARK VINA RESULT:      -8.5      4.429      8.227
REMARK  Name = 
REMARK  5 active torsions:
REMARK  status: ('A' for Active; 'I' for Inactive)
REMARK    1  A    between atoms: C_2  and  O_3
REMARK    2  A    between atoms: C_2  and  C_4
REMARK    3  A    between atoms: C_8  and  N_9
REMARK    4  A    between atoms: C_10  and  C_11
REMARK    5  A    between atoms: C_12  and  C_13
REMARK                            x       y       z     vdW  Elec       q    Type
REMARK                         _______ _______ _______ _____ _____    ______ ____
ROOT
ATOM      1  N   UNL     1       1.011   9.989  20.371  0.00  0.00    +0.000 N 
ATOM      2  C   UNL     1       0.541  11.160  19.802  0.00  0.00    +0.000 A 
ATOM      3  N   UNL     1       0.856  12.265  20.410  0.00  0.00    +0.000 NA
ATOM      4  C   UNL     1       0.217  12.275  21.666  0.00  0.00    +0.000 A 
ATOM      5  C   UNL     1      -0.404  13.460  22.042  0.00  0.00    +0.000 A 
ATOM      6  C   UNL     1      -1.601  13.386  22.740  0.00  0.00    +0.000 A 
ATOM      7  C   UNL     1      -2.123  12.135  23.096  0.00  0.00    +0.000 A 
ATOM      8  C   UNL     1      -1.382  10.959  22.893  0.00  0.00    +0.000 A 
ATOM      9  C   UNL     1      -0.162  11.036  22.224  0.00  0.00    +0.000 A 
ATOM     10  C   UNL     1       0.555   9.813  21.686  0.00  0.00    +0.000 A 
ATOM     11  O   UNL     1       0.571   8.780  22.343  0.00  0.00    +0.000 OA
ENDROOT
BRANCH   1  16
ATOM     12  C   UNL     1       2.503   6.737  19.357  0.00  0.00    +0.000 A 
ATOM     13  C   UNL     1       2.916   6.986  18.050  0.00  0.00    +0.000 A 
ATOM     14  C   UNL     1       2.627   8.219  17.459  0.00  0.00    +0.000 A 
ATOM     15  C   UNL     1       1.995   9.238  18.191  0.00  0.00    +0.000 A 
ATOM     16  C   UNL     1       1.580   9.002  19.503  0.00  0.00    +0.000 A 
ATOM     17  C   UNL     1       1.765   7.709  20.029  0.00  0.00    +0.000 A 
BRANCH  12  19
ATOM     18  O   UNL     1       3.621   4.676  19.687  0.00  0.00    +0.000 OA
ATOM     19  C   UNL     1       2.888   5.543  20.124  0.00  0.00    +0.000 C 
BRANCH  19  20
ATOM     20  O   UNL     1       2.207   5.440  21.283  0.00  0.00    +0.000 OA
ATOM     21  H   UNL     1       2.757   5.436  22.088  0.00  0.00    +0.000 HD
ENDBRANCH  19  20
ENDBRANCH  12  19
ENDBRANCH   1  16
BRANCH   2  22
ATOM     22  C   UNL     1      -0.822  10.890  19.177  0.00  0.00    +0.000 C 
ATOM     23  C   UNL     1      -1.532  11.870  18.614  0.00  0.00    +0.000 C 
BRANCH  23  24
ATOM     24  C   UNL     1      -2.988  11.802  18.390  0.00  0.00    +0.000 A 
ATOM     25  C   UNL     1      -3.826  12.166  19.450  0.00  0.00    +0.000 A 
ATOM     26  C   UNL     1      -5.212  12.048  19.331  0.00  0.00    +0.000 A 
ATOM     27  N   UNL     1      -5.797  11.576  18.173  0.00  0.00    +0.000 N 
ATOM     28  O   UNL     1      -7.055  11.456  18.081  0.00  0.00    +0.000 OA
ATOM     29  C   UNL     1      -4.973  11.225  17.120  0.00  0.00    +0.000 A 
ATOM     30  C   UNL     1      -3.581  11.335  17.211  0.00  0.00    +0.000 A 
ENDBRANCH  23  24
ENDBRANCH   2  22
TORSDOF 5
ENDMDL
