MODEL 1
REMARK VINA RESULT:      -7.5      0.000      0.000
REMARK  Name = 
REMARK  5 active torsions:
REMARK  status: ('A' for Active; 'I' for Inactive)
REMARK    1  A    between atoms: C_5  and  C_6
REMARK    2  A    between atoms: C_6  and  O_7
REMARK    3  A    between atoms: C_6  and  C_8
REMARK    4  A    between atoms: C_9  and  C_10
REMARK    5  A    between atoms: C_16  and  C_18
REMARK                            x       y       z     vdW  Elec       q    Type
REMARK                         _______ _______ _______ _____ _____    ______ ____
ROOT
ATOM      1  O   UNL     1       5.354   2.871  19.165  0.00  0.00    +0.000 OA
ATOM      2  C   UNL     1       5.633   4.040  18.941  0.00  0.00    +0.000 C 
ATOM      3  O   UNL     1       6.926   4.471  18.923  0.00  0.00    +0.000 OA
ATOM      4  C   UNL     1       6.940   5.897  18.811  0.00  0.00    +0.000 C 
ATOM      5  C   UNL     1       5.533   6.294  18.412  0.00  0.00    +0.000 C 
ATOM      6  N   UNL     1       4.770   5.082  18.646  0.00  0.00    +0.000 N 
ATOM      7  C   UNL     1       3.392   5.154  18.829  0.00  0.00    +0.000 C 
ATOM      8  O   UNL     1       2.822   6.247  18.726  0.00  0.00    +0.000 OA
ENDROOT
BRANCH   7   9
ATOM      9  C   UNL     1       2.610   3.880  19.173  0.00  0.00    +0.000 C 
ATOM     10  C   UNL     1       1.993   3.935  20.575  0.00  0.00    +0.000 C 
ATOM     11  C   UNL     1       0.780   3.021  20.528  0.00  0.00    +0.000 C 
ATOM     12  C   UNL     1       0.349   2.946  19.070  0.00  0.00    +0.000 C 
ATOM     13  C   UNL     1       1.419   3.657  18.242  0.00  0.00    +0.000 C 
ENDBRANCH   7   9
BRANCH   5  14
ATOM     14  C   UNL     1       5.462   6.816  16.952  0.00  0.00    +0.000 C 
BRANCH  14  15
ATOM     15  O   UNL     1       6.562   7.650  16.600  0.00  0.00    +0.000 OA
ATOM     16  H   UNL     1       6.315   8.207  15.834  0.00  0.00    +0.000 HD
ENDBRANCH  14  15
BRANCH  14  17
ATOM     17  C   UNL     1       5.478   5.704  15.933  0.00  0.00    +0.000 C 
ATOM     18  C   UNL     1       6.535   5.441  15.148  0.00  0.00    +0.000 C 
BRANCH  18  19
ATOM     19  C   UNL     1       6.638   4.308  14.166  0.00  0.00    +0.000 C 
ATOM     20  C   UNL     1       5.281   3.956  13.561  0.00  0.00    +0.000 C 
ATOM     21  C   UNL     1       5.631   3.201  12.286  0.00  0.00    +0.000 C 
ATOM     22  C   UNL     1       6.966   3.775  11.815  0.00  0.00    +0.000 C 
ATOM     23  C   UNL     1       7.460   4.691  12.933  0.00  0.00    +0.000 C 
ENDBRANCH  18  19
ENDBRANCH  14  17
ENDBRANCH   5  14
TORSDOF 5
ENDMDL
MODEL 2
REMARK VINA RESULT:      -7.2      3.136      6.983
REMARK  Name = 
REMARK  5 active torsions:
REMARK  status: ('A' for Active; 'I' for Inactive)
REMARK    1  A    between atoms: C_5  and  C_6
REMARK    2  A    between atoms: C_6  and  O_7
REMARK    3  A    between atoms: C_6  and  C_8
REMARK    4  A    between atoms: C_9  and  C_10
REMARK    5  A    between atoms: C_16  and  C_18
REMARK                            x       y       z     vdW  Elec       q    Type
REMARK                         _______ _______ _______ _____ _____    ______ ____
ROOT
ATOM      1  O   UNL     1       3.666   1.502  18.041  0.00  0.00    +0.000 OA
ATOM      2  C   UNL     1       2.791   2.261  18.434  0.00  0.00    +0.000 C 
ATOM      3  O   UNL     1       1.595   1.793  18.888  0.00  0.00    +0.000 OA
ATOM      4  C   UNL     1       0.717   2.899  19.112  0.00  0.00    +0.000 C 
ATOM      5  C   UNL     1       1.593   4.135  19.085  0.00  0.00    +0.000 C 
ATOM      6  N   UNL     1       2.839   3.642  18.528  0.00  0.00    +0.000 N 
ATOM      7  C   UNL     1       3.732   4.528  17.933  0.00  0.00    +0.000 C 
ATOM      8  O   UNL     1       3.481   5.740  17.940  0.00  0.00    +0.000 OA
ENDROOT
BRANCH   7   9
ATOM      9  C   UNL     1       5.000   3.984  17.261  0.00  0.00    +0.000 C 
ATOM     10  C   UNL     1       5.031   4.271  15.756  0.00  0.00    +0.000 C 
ATOM     11  C   UNL     1       6.501   4.312  15.375  0.00  0.00    +0.000 C 
ATOM     12  C   UNL     1       7.269   4.663  16.641  0.00  0.00    +0.000 C 
ATOM     13  C   UNL     1       6.272   4.637  17.799  0.00  0.00    +0.000 C 
ENDBRANCH   7   9
BRANCH   5  14
ATOM     14  C   UNL     1       1.738   4.785  20.487  0.00  0.00    +0.000 C 
BRANCH  14  15
ATOM     15  O   UNL     1       3.092   4.900  20.916  0.00  0.00    +0.000 OA
ATOM     16  H   UNL     1       3.426   4.019  21.178  0.00  0.00    +0.000 HD
ENDBRANCH  14  15
BRANCH  14  17
ATOM     17  C   UNL     1       1.195   6.191  20.537  0.00  0.00    +0.000 C 
ATOM     18  C   UNL     1       1.976   7.283  20.486  0.00  0.00    +0.000 C 
BRANCH  18  19
ATOM     19  C   UNL     1       1.492   8.706  20.462  0.00  0.00    +0.000 C 
ATOM     20  C   UNL     1       1.222   9.190  19.040  0.00  0.00    +0.000 C 
ATOM     21  C   UNL     1       0.298  10.386  19.228  0.00  0.00    +0.000 C 
ATOM     22  C   UNL     1      -0.501  10.100  20.498  0.00  0.00    +0.000 C 
ATOM     23  C   UNL     1       0.123   8.857  21.129  0.00  0.00    +0.000 C 
ENDBRANCH  18  19
ENDBRANCH  14  17
ENDBRANCH   5  14
TORSDOF 5
ENDMDL
MODEL 3
REMARK VINA RESULT:      -7.2      2.671      5.069
REMARK  Name = 
REMARK  5 active torsions:
REMARK  status: ('A' for Active; 'I' for Inactive)
REMARK    1  A    between atoms: C_5  and  C_6
REMARK    2  A    between atoms: C_6  and  O_7
REMARK    3  A    between atoms: C_6  and  C_8
REMARK    4  A    between atoms: C_9  and  C_10
REMARK    5  A    between atoms: C_16  and  C_18
REMARK                            x       y       z     vdW  Elec       q    Type
REMARK                         _______ _______ _______ _____ _____    ______ ____
ROOT
ATOM      1  O   UNL     1       2.703   6.446  17.816  0.00  0.00    +0.000 OA
ATOM      2  C   UNL     1       3.862   6.139  17.576  0.00  0.00    +0.000 C 
ATOM      3  O   UNL     1       4.554   6.716  16.554  0.00  0.00    +0.000 OA
ATOM      4  C   UNL     1       5.808   6.045  16.404  0.00  0.00    +0.000 C 
ATOM      5  C   UNL     1       5.984   5.212  17.658  0.00  0.00    +0.000 C 
ATOM      6  N   UNL     1       4.664   5.239  18.259  0.00  0.00    +0.000 N 
ATOM      7  C   UNL     1       4.293   4.250  19.164  0.00  0.00    +0.000 C 
ATOM      8  O   UNL     1       5.118   3.389  19.495  0.00  0.00    +0.000 OA
ENDROOT
BRANCH   7   9
ATOM      9  C   UNL     1       2.863   4.233  19.719  0.00  0.00    +0.000 C 
ATOM     10  C   UNL     1       1.931   3.332  18.900  0.00  0.00    +0.000 C 
ATOM     11  C   UNL     1       0.842   2.884  19.862  0.00  0.00    +0.000 C 
ATOM     12  C   UNL     1       1.432   2.981  21.262  0.00  0.00    +0.000 C 
ATOM     13  C   UNL     1       2.792   3.666  21.135  0.00  0.00    +0.000 C 
ENDBRANCH   7   9
BRANCH   5  14
ATOM     14  C   UNL     1       7.111   5.761  18.575  0.00  0.00    +0.000 C 
BRANCH  14  15
ATOM     15  O   UNL     1       8.221   4.875  18.691  0.00  0.00    +0.000 OA
ATOM     16  H   UNL     1       7.944   4.067  19.166  0.00  0.00    +0.000 HD
ENDBRANCH  14  15
BRANCH  14  17
ATOM     17  C   UNL     1       7.699   7.054  18.067  0.00  0.00    +0.000 C 
ATOM     18  C   UNL     1       8.308   7.947  18.863  0.00  0.00    +0.000 C 
BRANCH  18  19
ATOM     19  C   UNL     1       8.972   9.216  18.408  0.00  0.00    +0.000 C 
ATOM     20  C   UNL     1       7.978  10.179  17.764  0.00  0.00    +0.000 C 
ATOM     21  C   UNL     1       8.673  11.532  17.841  0.00  0.00    +0.000 C 
ATOM     22  C   UNL     1       9.551  11.479  19.090  0.00  0.00    +0.000 C 
ATOM     23  C   UNL     1       9.510  10.035  19.585  0.00  0.00    +0.000 C 
ENDBRANCH  18  19
ENDBRANCH  14  17
ENDBRANCH   5  14
TORSDOF 5
ENDMDL
MODEL 4
REMARK VINA RESULT:      -7.1      3.443      7.489
REMARK  Name = 
REMARK  5 active torsions:
REMARK  status: ('A' for Active; 'I' for Inactive)
REMARK    1  A    between atoms: C_5  and  C_6
REMARK    2  A    between atoms: C_6  and  O_7
REMARK    3  A    between atoms: C_6  and  C_8
REMARK    4  A    between atoms: C_9  and  C_10
REMARK    5  A    between atoms: C_16  and  C_18
REMARK                            x       y       z     vdW  Elec       q    Type
REMARK                         _______ _______ _______ _____ _____    ______ ____
ROOT
ATOM      1  O   UNL     1       3.765   1.807  17.766  0.00  0.00    +0.000 OA
ATOM      2  C   UNL     1       2.994   2.642  18.219  0.00  0.00    +0.000 C 
ATOM      3  O   UNL     1       1.850   2.277  18.863  0.00  0.00    +0.000 OA
ATOM      4  C   UNL     1       1.071   3.448  19.125  0.00  0.00    +0.000 C 
ATOM      5  C   UNL     1       1.998   4.623  18.891  0.00  0.00    +0.000 C 
ATOM      6  N   UNL     1       3.127   4.021  18.207  0.00  0.00    +0.000 N 
ATOM      7  C   UNL     1       3.973   4.811  17.435  0.00  0.00    +0.000 C 
ATOM      8  O   UNL     1       3.789   6.033  17.390  0.00  0.00    +0.000 OA
ENDROOT
BRANCH   7   9
ATOM      9  C   UNL     1       5.105   4.148  16.638  0.00  0.00    +0.000 C 
ATOM     10  C   UNL     1       4.927   4.316  15.125  0.00  0.00    +0.000 C 
ATOM     11  C   UNL     1       6.327   4.247  14.537  0.00  0.00    +0.000 C 
ATOM     12  C   UNL     1       7.286   4.654  15.647  0.00  0.00    +0.000 C 
ATOM     13  C   UNL     1       6.468   4.771  16.933  0.00  0.00    +0.000 C 
ENDBRANCH   7   9
BRANCH   5  14
ATOM     14  C   UNL     1       2.370   5.350  20.212  0.00  0.00    +0.000 C 
BRANCH  14  15
ATOM     15  O   UNL     1       3.493   6.217  20.078  0.00  0.00    +0.000 OA
ATOM     16  H   UNL     1       4.310   5.727  20.304  0.00  0.00    +0.000 HD
ENDBRANCH  14  15
BRANCH  14  17
ATOM     17  C   UNL     1       1.259   6.233  20.725  0.00  0.00    +0.000 C 
ATOM     18  C   UNL     1       1.373   7.566  20.840  0.00  0.00    +0.000 C 
BRANCH  18  19
ATOM     19  C   UNL     1       0.284   8.504  21.277  0.00  0.00    +0.000 C 
ATOM     20  C   UNL     1       0.569   9.106  22.651  0.00  0.00    +0.000 C 
ATOM     21  C   UNL     1      -0.309  10.349  22.698  0.00  0.00    +0.000 C 
ATOM     22  C   UNL     1      -0.427  10.831  21.253  0.00  0.00    +0.000 C 
ATOM     23  C   UNL     1       0.203   9.744  20.383  0.00  0.00    +0.000 C 
ENDBRANCH  18  19
ENDBRANCH  14  17
ENDBRANCH   5  14
TORSDOF 5
ENDMDL
MODEL 5
REMARK VINA RESULT:      -7.0      1.331      2.526
REMARK  Name = 
REMARK  5 active torsions:
REMARK  status: ('A' for Active; 'I' for Inactive)
REMARK    1  A    between atoms: C_5  and  C_6
REMARK    2  A    between atoms: C_6  and  O_7
REMARK    3  A    between atoms: C_6  and  C_8
REMARK    4  A    between atoms: C_9  and  C_10
REMARK    5  A    between atoms: C_16  and  C_18
REMARK                            x       y       z     vdW  Elec       q    Type
REMARK                         _______ _______ _______ _____ _____    ______ ____
ROOT
ATOM      1  O   UNL     1       2.162   7.145  20.019  0.00  0.00    +0.000 OA
ATOM      2  C   UNL     1       2.841   7.060  19.006  0.00  0.00    +0.000 C 
ATOM      3  O   UNL     1       3.003   8.122  18.167  0.00  0.00    +0.000 OA
ATOM      4  C   UNL     1       3.694   7.686  16.993  0.00  0.00    +0.000 C 
ATOM      5  C   UNL     1       4.257   6.320  17.327  0.00  0.00    +0.000 C 
ATOM      6  N   UNL     1       3.562   5.968  18.551  0.00  0.00    +0.000 N 
ATOM      7  C   UNL     1       3.461   4.634  18.933  0.00  0.00    +0.000 C 
ATOM      8  O   UNL     1       4.020   3.764  18.255  0.00  0.00    +0.000 OA
ENDROOT
BRANCH   7   9
ATOM      9  C   UNL     1       2.641   4.265  20.176  0.00  0.00    +0.000 C 
ATOM     10  C   UNL     1       1.212   3.836  19.826  0.00  0.00    +0.000 C 
ATOM     11  C   UNL     1       0.772   2.912  20.950  0.00  0.00    +0.000 C 
ATOM     12  C   UNL     1       2.042   2.337  21.561  0.00  0.00    +0.000 C 
ATOM     13  C   UNL     1       3.224   3.070  20.927  0.00  0.00    +0.000 C 
ENDBRANCH   7   9
BRANCH   5  14
ATOM     14  C   UNL     1       5.804   6.337  17.458  0.00  0.00    +0.000 C 
BRANCH  14  15
ATOM     15  O   UNL     1       6.268   5.839  18.710  0.00  0.00    +0.000 OA
ATOM     16  H   UNL     1       5.652   6.116  19.418  0.00  0.00    +0.000 HD
ENDBRANCH  14  15
BRANCH  14  17
ATOM     17  C   UNL     1       6.487   5.478  16.423  0.00  0.00    +0.000 C 
ATOM     18  C   UNL     1       5.860   4.997  15.337  0.00  0.00    +0.000 C 
BRANCH  18  19
ATOM     19  C   UNL     1       6.501   4.196  14.239  0.00  0.00    +0.000 C 
ATOM     20  C   UNL     1       5.465   3.620  13.276  0.00  0.00    +0.000 C 
ATOM     21  C   UNL     1       6.264   3.308  12.018  0.00  0.00    +0.000 C 
ATOM     22  C   UNL     1       7.399   4.330  11.982  0.00  0.00    +0.000 C 
ATOM     23  C   UNL     1       7.359   5.068  13.319  0.00  0.00    +0.000 C 
ENDBRANCH  18  19
ENDBRANCH  14  17
ENDBRANCH   5  14
TORSDOF 5
ENDMDL
MODEL 6
REMARK VINA RESULT:      -7.0      1.439      6.343
REMARK  Name = 
REMARK  5 active torsions:
REMARK  status: ('A' for Active; 'I' for Inactive)
REMARK    1  A    between atoms: C_5  and  C_6
REMARK    2  A    between atoms: C_6  and  O_7
REMARK    3  A    between atoms: C_6  and  C_8
REMARK    4  A    between atoms: C_9  and  C_10
REMARK    5  A    between atoms: C_16  and  C_18
REMARK                            x       y       z     vdW  Elec       q    Type
REMARK                         _______ _______ _______ _____ _____    ______ ____
ROOT
ATOM      1  O   UNL     1       4.881   7.068  15.057  0.00  0.00    +0.000 OA
ATOM      2  C   UNL     1       5.544   6.904  16.071  0.00  0.00    +0.000 C 
ATOM      3  O   UNL     1       5.465   7.771  17.120  0.00  0.00    +0.000 OA
ATOM      4  C   UNL     1       6.467   7.429  18.082  0.00  0.00    +0.000 C 
ATOM      5  C   UNL     1       6.959   6.049  17.695  0.00  0.00    +0.000 C 
ATOM      6  N   UNL     1       6.417   5.868  16.362  0.00  0.00    +0.000 N 
ATOM      7  C   UNL     1       6.996   4.945  15.497  0.00  0.00    +0.000 C 
ATOM      8  O   UNL     1       7.930   4.240  15.897  0.00  0.00    +0.000 OA
ENDROOT
BRANCH   7   9
ATOM      9  C   UNL     1       6.477   4.832  14.057  0.00  0.00    +0.000 C 
ATOM     10  C   UNL     1       7.605   4.915  13.023  0.00  0.00    +0.000 C 
ATOM     11  C   UNL     1       7.105   4.156  11.805  0.00  0.00    +0.000 C 
ATOM     12  C   UNL     1       6.058   3.171  12.308  0.00  0.00    +0.000 C 
ATOM     13  C   UNL     1       5.808   3.487  13.781  0.00  0.00    +0.000 C 
ENDBRANCH   7   9
BRANCH   5  14
ATOM     14  C   UNL     1       6.518   4.962  18.712  0.00  0.00    +0.000 C 
BRANCH  14  15
ATOM     15  O   UNL     1       7.103   5.128  20.001  0.00  0.00    +0.000 OA
ATOM     16  H   UNL     1       7.426   4.263  20.324  0.00  0.00    +0.000 HD
ENDBRANCH  14  15
BRANCH  14  17
ATOM     17  C   UNL     1       5.030   4.964  18.960  0.00  0.00    +0.000 C 
ATOM     18  C   UNL     1       4.197   4.044  18.448  0.00  0.00    +0.000 C 
BRANCH  18  19
ATOM     19  C   UNL     1       2.721   3.952  18.713  0.00  0.00    +0.000 C 
ATOM     20  C   UNL     1       2.104   2.710  18.075  0.00  0.00    +0.000 C 
ATOM     21  C   UNL     1       0.802   2.512  18.839  0.00  0.00    +0.000 C 
ATOM     22  C   UNL     1       1.056   3.056  20.244  0.00  0.00    +0.000 C 
ATOM     23  C   UNL     1       2.418   3.746  20.200  0.00  0.00    +0.000 C 
ENDBRANCH  18  19
ENDBRANCH  14  17
ENDBRANCH   5  14
TORSDOF 5
ENDMDL
MODEL 7
REMARK VINA RESULT:      -6.9      2.531      6.456
REMARK  Name = 
REMARK  5 active torsions:
REMARK  status: ('A' for Active; 'I' for Inactive)
REMARK    1  A    between atoms: C_5  and  C_6
REMARK    2  A    between atoms: C_6  and  O_7
REMARK    3  A    between atoms: C_6  and  C_8
REMARK    4  A    between atoms: C_9  and  C_10
REMARK    5  A    between atoms: C_16  and  C_18
REMARK                            x       y       z     vdW  Elec       q    Type
REMARK                         _______ _______ _______ _____ _____    ______ ____
ROOT
ATOM      1  O   UNL     1       5.650   3.678  19.488  0.00  0.00    +0.000 OA
ATOM      2  C   UNL     1       4.567   3.114  19.552  0.00  0.00    +0.000 C 
ATOM      3  O   UNL     1       4.227   2.346  20.625  0.00  0.00    +0.000 OA
ATOM      4  C   UNL     1       2.991   1.682  20.349  0.00  0.00    +0.000 C 
ATOM      5  C   UNL     1       2.410   2.377  19.134  0.00  0.00    +0.000 C 
ATOM      6  N   UNL     1       3.525   3.162  18.640  0.00  0.00    +0.000 N 
ATOM      7  C   UNL     1       3.543   3.585  17.314  0.00  0.00    +0.000 C 
ATOM      8  O   UNL     1       2.575   3.339  16.585  0.00  0.00    +0.000 OA
ENDROOT
BRANCH   7   9
ATOM      9  C   UNL     1       4.772   4.331  16.777  0.00  0.00    +0.000 C 
ATOM     10  C   UNL     1       5.082   3.971  15.321  0.00  0.00    +0.000 C 
ATOM     11  C   UNL     1       5.806   5.176  14.743  0.00  0.00    +0.000 C 
ATOM     12  C   UNL     1       5.386   6.377  15.580  0.00  0.00    +0.000 C 
ATOM     13  C   UNL     1       4.574   5.846  16.760  0.00  0.00    +0.000 C 
ENDBRANCH   7   9
BRANCH   5  14
ATOM     14  C   UNL     1       1.149   3.212  19.481  0.00  0.00    +0.000 C 
BRANCH  14  15
ATOM     15  O   UNL     1       0.727   3.057  20.834  0.00  0.00    +0.000 OA
ATOM     16  H   UNL     1      -0.239   3.199  20.891  0.00  0.00    +0.000 HD
ENDBRANCH  14  15
BRANCH  14  17
ATOM     17  C   UNL     1       1.367   4.696  19.313  0.00  0.00    +0.000 C 
ATOM     18  C   UNL     1       1.850   5.484  20.288  0.00  0.00    +0.000 C 
BRANCH  18  19
ATOM     19  C   UNL     1       2.154   6.950  20.160  0.00  0.00    +0.000 C 
ATOM     20  C   UNL     1       2.029   7.433  18.717  0.00  0.00    +0.000 C 
ATOM     21  C   UNL     1       1.861   8.940  18.847  0.00  0.00    +0.000 C 
ATOM     22  C   UNL     1       1.155   9.168  20.182  0.00  0.00    +0.000 C 
ATOM     23  C   UNL     1       1.122   7.814  20.888  0.00  0.00    +0.000 C 
ENDBRANCH  18  19
ENDBRANCH  14  17
ENDBRANCH   5  14
TORSDOF 5
ENDMDL
MODEL 8
REMARK VINA RESULT:      -6.9      3.312      5.013
REMARK  Name = 
REMARK  5 active torsions:
REMARK  status: ('A' for Active; 'I' for Inactive)
REMARK    1  A    between atoms: C_5  and  C_6
REMARK    2  A    between atoms: C_6  and  O_7
REMARK    3  A    between atoms: C_6  and  C_8
REMARK    4  A    between atoms: C_9  and  C_10
REMARK    5  A    between atoms: C_16  and  C_18
REMARK                            x       y       z     vdW  Elec       q    Type
REMARK                         _______ _______ _______ _____ _____    ______ ____
ROOT
ATOM      1  O   UNL     1       1.036   4.449  17.155  0.00  0.00    +0.000 OA
ATOM      2  C   UNL     1       1.558   3.746  18.009  0.00  0.00    +0.000 C 
ATOM      3  O   UNL     1       1.491   2.386  17.950  0.00  0.00    +0.000 OA
ATOM      4  C   UNL     1       2.031   1.841  19.157  0.00  0.00    +0.000 C 
ATOM      5  C   UNL     1       2.763   2.982  19.835  0.00  0.00    +0.000 C 
ATOM      6  N   UNL     1       2.299   4.148  19.108  0.00  0.00    +0.000 N 
ATOM      7  C   UNL     1       2.381   5.408  19.693  0.00  0.00    +0.000 C 
ATOM      8  O   UNL     1       2.908   5.528  20.806  0.00  0.00    +0.000 OA
ENDROOT
BRANCH   7   9
ATOM      9  C   UNL     1       1.798   6.622  18.956  0.00  0.00    +0.000 C 
ATOM     10  C   UNL     1       1.525   7.800  19.898  0.00  0.00    +0.000 C 
ATOM     11  C   UNL     1       1.614   9.047  19.033  0.00  0.00    +0.000 C 
ATOM     12  C   UNL     1       2.493   8.689  17.844  0.00  0.00    +0.000 C 
ATOM     13  C   UNL     1       2.758   7.186  17.910  0.00  0.00    +0.000 C 
ENDBRANCH   7   9
BRANCH   5  14
ATOM     14  C   UNL     1       4.303   2.789  19.810  0.00  0.00    +0.000 C 
BRANCH  14  15
ATOM     15  O   UNL     1       4.699   1.475  19.426  0.00  0.00    +0.000 OA
ATOM     16  H   UNL     1       4.976   0.975  20.220  0.00  0.00    +0.000 HD
ENDBRANCH  14  15
BRANCH  14  17
ATOM     17  C   UNL     1       4.989   3.703  18.824  0.00  0.00    +0.000 C 
ATOM     18  C   UNL     1       5.978   4.544  19.167  0.00  0.00    +0.000 C 
BRANCH  18  19
ATOM     19  C   UNL     1       6.745   5.426  18.223  0.00  0.00    +0.000 C 
ATOM     20  C   UNL     1       5.870   6.532  17.639  0.00  0.00    +0.000 C 
ATOM     21  C   UNL     1       6.867   7.574  17.153  0.00  0.00    +0.000 C 
ATOM     22  C   UNL     1       8.075   7.458  18.081  0.00  0.00    +0.000 C 
ATOM     23  C   UNL     1       7.842   6.217  18.940  0.00  0.00    +0.000 C 
ENDBRANCH  18  19
ENDBRANCH  14  17
ENDBRANCH   5  14
TORSDOF 5
ENDMDL
MODEL 9
REMARK VINA RESULT:      -6.9      2.282      4.370
REMARK  Name = 
REMARK  5 active torsions:
REMARK  status: ('A' for Active; 'I' for Inactive)
REMARK    1  A    between atoms: C_5  and  C_6
REMARK    2  A    between atoms: C_6  and  O_7
REMARK    3  A    between atoms: C_6  and  C_8
REMARK    4  A    between atoms: C_9  and  C_10
REMARK    5  A    between atoms: C_16  and  C_18
REMARK                            x       y       z     vdW  Elec       q    Type
REMARK                         _______ _______ _______ _____ _____    ______ ____
ROOT
ATOM      1  O   UNL     1       0.955   4.505  17.253  0.00  0.00    +0.000 OA
ATOM      2  C   UNL     1       1.561   3.835  18.077  0.00  0.00    +0.000 C 
ATOM      3  O   UNL     1       1.536   2.473  18.044  0.00  0.00    +0.000 OA
ATOM      4  C   UNL     1       2.180   1.966  19.215  0.00  0.00    +0.000 C 
ATOM      5  C   UNL     1       2.920   3.142  19.822  0.00  0.00    +0.000 C 
ATOM      6  N   UNL     1       2.366   4.280  19.114  0.00  0.00    +0.000 N 
ATOM      7  C   UNL     1       2.447   5.552  19.672  0.00  0.00    +0.000 C 
ATOM      8  O   UNL     1       3.049   5.708  20.742  0.00  0.00    +0.000 OA
ENDROOT
BRANCH   7   9
ATOM      9  C   UNL     1       1.772   6.733  18.962  0.00  0.00    +0.000 C 
ATOM     10  C   UNL     1       1.464   7.890  19.919  0.00  0.00    +0.000 C 
ATOM     11  C   UNL     1       1.452   9.143  19.059  0.00  0.00    +0.000 C 
ATOM     12  C   UNL     1       2.310   8.840  17.838  0.00  0.00    +0.000 C 
ATOM     13  C   UNL     1       2.663   7.354  17.888  0.00  0.00    +0.000 C 
ENDBRANCH   7   9
BRANCH   5  14
ATOM     14  C   UNL     1       4.460   2.999  19.687  0.00  0.00    +0.000 C 
BRANCH  14  15
ATOM     15  O   UNL     1       4.905   1.647  19.734  0.00  0.00    +0.000 OA
ATOM     16  H   UNL     1       5.549   1.542  20.463  0.00  0.00    +0.000 HD
ENDBRANCH  14  15
BRANCH  14  17
ATOM     17  C   UNL     1       4.983   3.533  18.376  0.00  0.00    +0.000 C 
ATOM     18  C   UNL     1       5.567   4.736  18.253  0.00  0.00    +0.000 C 
BRANCH  18  19
ATOM     19  C   UNL     1       6.168   5.293  16.993  0.00  0.00    +0.000 C 
ATOM     20  C   UNL     1       7.141   4.312  16.345  0.00  0.00    +0.000 C 
ATOM     21  C   UNL     1       7.242   4.791  14.903  0.00  0.00    +0.000 C 
ATOM     22  C   UNL     1       5.890   5.425  14.580  0.00  0.00    +0.000 C 
ATOM     23  C   UNL     1       5.119   5.491  15.896  0.00  0.00    +0.000 C 
ENDBRANCH  18  19
ENDBRANCH  14  17
ENDBRANCH   5  14
TORSDOF 5
ENDMDL
