MODEL 1
REMARK VINA RESULT:      -7.2      0.000      0.000
REMARK  Name = 
REMARK  8 active torsions:
REMARK  status: ('A' for Active; 'I' for Inactive)
REMARK    1  A    between atoms: C_1  and  C_2
REMARK    2  A    between atoms: C_4  and  C_5
REMARK    3  A    between atoms: C_8  and  C_9
REMARK    4  A    between atoms: N_11  and  C_12
REMARK    5  A    between atoms: C_12  and  C_13
REMARK    6  A    between atoms: N_20  and  C_21
REMARK    7  A    between atoms: C_21  and  C_22
REMARK    8  A    between atoms: C_21  and  C_23
REMARK                            x       y       z     vdW  Elec       q    Type
REMARK                         _______ _______ _______ _____ _____    ______ ____
ROOT
ATOM      1  C   UNL     1       0.707  11.889  19.428  0.00  0.00    +0.000 C 
ATOM      2  C   UNL     1       0.866  12.606  20.791  0.00  0.00    +0.000 C 
ATOM      3  C   UNL     1       0.683  14.116  20.698  0.00  0.00    +0.000 C 
ATOM      4  C   UNL     1      -0.630  14.468  20.001  0.00  0.00    +0.000 C 
ATOM      5  C   UNL     1      -0.745  13.732  18.661  0.00  0.00    +0.000 C 
ATOM      6  N   UNL     1      -0.576  12.275  18.790  0.00  0.00    +0.000 N 
ATOM      7  C   UNL     1      -1.382  11.353  18.124  0.00  0.00    +0.000 C 
ATOM      8  O   UNL     1      -1.231  10.135  18.168  0.00  0.00    +0.000 OA
ATOM      9  N   UNL     1      -2.449  11.877  17.430  0.00  0.00    +0.000 N 
ATOM     10  H   UNL     1      -2.259  12.730  16.926  0.00  0.00    +0.000 HD
ENDROOT
BRANCH   1  14
ATOM     11  C   UNL     1       2.933   7.636  17.833  0.00  0.00    +0.000 C 
ATOM     12  C   UNL     1       2.121   8.373  18.851  0.00  0.00    +0.000 A 
ATOM     13  C   UNL     1       1.727   9.703  18.644  0.00  0.00    +0.000 A 
ATOM     14  C   UNL     1       1.029  10.416  19.637  0.00  0.00    +0.000 A 
ATOM     15  C   UNL     1       0.699   9.754  20.835  0.00  0.00    +0.000 A 
ATOM     16  C   UNL     1       1.060   8.424  21.035  0.00  0.00    +0.000 A 
ATOM     17  C   UNL     1       1.769   7.749  20.050  0.00  0.00    +0.000 A 
ATOM     18  F   UNL     1       2.132   6.477  20.271  0.00  0.00    +0.000 F 
ENDBRANCH   1  14
BRANCH   4  19
ATOM     19  C   UNL     1      -0.744  15.968  19.754  0.00  0.00    +0.000 C 
ATOM     20  O   UNL     1      -0.852  16.783  20.668  0.00  0.00    +0.000 OA
ATOM     21  N   UNL     1      -0.710  16.344  18.432  0.00  0.00    +0.000 N 
ATOM     22  H   UNL     1      -0.565  15.657  17.704  0.00  0.00    +0.000 HD
BRANCH  21  23
ATOM     23  C   UNL     1      -0.826  17.737  18.065  0.00  0.00    +0.000 C 
BRANCH  23  24
ATOM     24  C   UNL     1       0.531  18.323  17.850  0.00  0.00    +0.000 C 
ATOM     25  C   UNL     1       1.692  17.450  17.441  0.00  0.00    +0.000 C 
ATOM     26  C   UNL     1       1.111  18.430  16.461  0.00  0.00    +0.000 C 
ENDBRANCH  23  24
ENDBRANCH  21  23
ENDBRANCH   4  19
BRANCH   9  27
ATOM     27  C   UNL     1      -3.416  10.992  16.783  0.00  0.00    +0.000 C 
ATOM     28  C   UNL     1      -4.827  11.551  16.940  0.00  0.00    +0.000 C 
ATOM     29  C   UNL     1      -3.074  10.795  15.307  0.00  0.00    +0.000 C 
ENDBRANCH   9  27
TORSDOF 5
ENDMDL
MODEL 2
REMARK VINA RESULT:      -6.9      5.723      9.687
REMARK  Name = 
REMARK  8 active torsions:
REMARK  status: ('A' for Active; 'I' for Inactive)
REMARK    1  A    between atoms: C_1  and  C_2
REMARK    2  A    between atoms: C_4  and  C_5
REMARK    3  A    between atoms: C_8  and  C_9
REMARK    4  A    between atoms: N_11  and  C_12
REMARK    5  A    between atoms: C_12  and  C_13
REMARK    6  A    between atoms: N_20  and  C_21
REMARK    7  A    between atoms: C_21  and  C_22
REMARK    8  A    between atoms: C_21  and  C_23
REMARK                            x       y       z     vdW  Elec       q    Type
REMARK                         _______ _______ _______ _____ _____    ______ ____
ROOT
ATOM      1  C   UNL     1       2.878   7.613  19.027  0.00  0.00    +0.000 C 
ATOM      2  C   UNL     1       3.117   8.152  17.596  0.00  0.00    +0.000 C 
ATOM      3  C   UNL     1       4.322   7.520  16.911  0.00  0.00    +0.000 C 
ATOM      4  C   UNL     1       4.242   5.994  16.957  0.00  0.00    +0.000 C 
ATOM      5  C   UNL     1       4.001   5.508  18.390  0.00  0.00    +0.000 C 
ATOM      6  N   UNL     1       2.821   6.129  19.016  0.00  0.00    +0.000 N 
ATOM      7  C   UNL     1       1.898   5.415  19.777  0.00  0.00    +0.000 C 
ATOM      8  O   UNL     1       0.937   5.913  20.357  0.00  0.00    +0.000 OA
ATOM      9  N   UNL     1       2.072   4.050  19.809  0.00  0.00    +0.000 N 
ATOM     10  H   UNL     1       3.028   3.739  19.883  0.00  0.00    +0.000 HD
ENDROOT
BRANCH   1  14
ATOM     11  C   UNL     1       0.475   9.379  23.113  0.00  0.00    +0.000 C 
ATOM     12  C   UNL     1       0.588   9.255  21.626  0.00  0.00    +0.000 A 
ATOM     13  C   UNL     1       1.578   8.457  21.036  0.00  0.00    +0.000 A 
ATOM     14  C   UNL     1       1.729   8.404  19.637  0.00  0.00    +0.000 A 
ATOM     15  C   UNL     1       0.839   9.143  18.835  0.00  0.00    +0.000 A 
ATOM     16  C   UNL     1      -0.167   9.913  19.414  0.00  0.00    +0.000 A 
ATOM     17  C   UNL     1      -0.280   9.968  20.796  0.00  0.00    +0.000 A 
ATOM     18  F   UNL     1      -1.236  10.738  21.338  0.00  0.00    +0.000 F 
ENDBRANCH   1  14
BRANCH   4  19
ATOM     19  C   UNL     1       5.520   5.355  16.425  0.00  0.00    +0.000 C 
ATOM     20  O   UNL     1       6.312   4.755  17.149  0.00  0.00    +0.000 OA
ATOM     21  N   UNL     1       5.718   5.493  15.071  0.00  0.00    +0.000 N 
ATOM     22  H   UNL     1       5.023   5.943  14.492  0.00  0.00    +0.000 HD
BRANCH  21  23
ATOM     23  C   UNL     1       6.901   4.945  14.447  0.00  0.00    +0.000 C 
BRANCH  23  24
ATOM     24  C   UNL     1       6.547   3.722  13.666  0.00  0.00    +0.000 C 
ATOM     25  C   UNL     1       5.300   3.684  12.817  0.00  0.00    +0.000 C 
ATOM     26  C   UNL     1       6.651   3.714  12.161  0.00  0.00    +0.000 C 
ENDBRANCH  23  24
ENDBRANCH  21  23
ENDBRANCH   4  19
BRANCH   9  27
ATOM     27  C   UNL     1       1.101   3.197  20.493  0.00  0.00    +0.000 C 
ATOM     28  C   UNL     1       0.534   2.165  19.523  0.00  0.00    +0.000 C 
ATOM     29  C   UNL     1       1.732   2.511  21.703  0.00  0.00    +0.000 C 
ENDBRANCH   9  27
TORSDOF 5
ENDMDL
MODEL 3
REMARK VINA RESULT:      -6.8      5.624      8.855
REMARK  Name = 
REMARK  8 active torsions:
REMARK  status: ('A' for Active; 'I' for Inactive)
REMARK    1  A    between atoms: C_1  and  C_2
REMARK    2  A    between atoms: C_4  and  C_5
REMARK    3  A    between atoms: C_8  and  C_9
REMARK    4  A    between atoms: N_11  and  C_12
REMARK    5  A    between atoms: C_12  and  C_13
REMARK    6  A    between atoms: N_20  and  C_21
REMARK    7  A    between atoms: C_21  and  C_22
REMARK    8  A    between atoms: C_21  and  C_23
REMARK                            x       y       z     vdW  Elec       q    Type
REMARK                         _______ _______ _______ _____ _____    ______ ____
ROOT
ATOM      1  C   UNL     1       4.858   4.973  17.824  0.00  0.00    +0.000 C 
ATOM      2  C   UNL     1       6.193   4.708  18.562  0.00  0.00    +0.000 C 
ATOM      3  C   UNL     1       7.314   5.643  18.123  0.00  0.00    +0.000 C 
ATOM      4  C   UNL     1       6.876   7.104  18.210  0.00  0.00    +0.000 C 
ATOM      5  C   UNL     1       5.550   7.317  17.472  0.00  0.00    +0.000 C 
ATOM      6  N   UNL     1       4.487   6.407  17.930  0.00  0.00    +0.000 N 
ATOM      7  C   UNL     1       3.174   6.820  18.154  0.00  0.00    +0.000 C 
ATOM      8  O   UNL     1       2.255   6.076  18.482  0.00  0.00    +0.000 OA
ATOM      9  N   UNL     1       2.945   8.174  18.053  0.00  0.00    +0.000 N 
ATOM     10  H   UNL     1       3.421   8.636  17.294  0.00  0.00    +0.000 HD
ENDROOT
BRANCH   1  14
ATOM     11  C   UNL     1       2.342   2.602  21.518  0.00  0.00    +0.000 C 
ATOM     12  C   UNL     1       2.652   2.779  20.064  0.00  0.00    +0.000 A 
ATOM     13  C   UNL     1       3.630   3.687  19.634  0.00  0.00    +0.000 A 
ATOM     14  C   UNL     1       3.864   3.905  18.263  0.00  0.00    +0.000 A 
ATOM     15  C   UNL     1       3.120   3.165  17.326  0.00  0.00    +0.000 A 
ATOM     16  C   UNL     1       2.169   2.238  17.747  0.00  0.00    +0.000 A 
ATOM     17  C   UNL     1       1.939   2.058  19.104  0.00  0.00    +0.000 A 
ATOM     18  F   UNL     1       0.999   1.183  19.491  0.00  0.00    +0.000 F 
ENDBRANCH   1  14
BRANCH   4  19
ATOM     19  C   UNL     1       7.928   8.035  17.618  0.00  0.00    +0.000 C 
ATOM     20  O   UNL     1       8.521   7.784  16.571  0.00  0.00    +0.000 OA
ATOM     21  N   UNL     1       8.160   9.183  18.339  0.00  0.00    +0.000 N 
ATOM     22  H   UNL     1       7.618   9.390  19.168  0.00  0.00    +0.000 HD
BRANCH  21  23
ATOM     23  C   UNL     1       9.146  10.140  17.892  0.00  0.00    +0.000 C 
BRANCH  23  24
ATOM     24  C   UNL     1       9.296  11.230  18.902  0.00  0.00    +0.000 C 
ATOM     25  C   UNL     1       9.570  10.906  20.351  0.00  0.00    +0.000 C 
ATOM     26  C   UNL     1      10.644  11.535  19.509  0.00  0.00    +0.000 C 
ENDBRANCH  23  24
ENDBRANCH  21  23
ENDBRANCH   4  19
BRANCH   9  27
ATOM     27  C   UNL     1       1.628   8.725  18.369  0.00  0.00    +0.000 C 
ATOM     28  C   UNL     1       1.413   8.736  19.880  0.00  0.00    +0.000 C 
ATOM     29  C   UNL     1       1.470  10.130  17.791  0.00  0.00    +0.000 C 
ENDBRANCH   9  27
TORSDOF 5
ENDMDL
MODEL 4
REMARK VINA RESULT:      -6.8      5.525      9.774
REMARK  Name = 
REMARK  8 active torsions:
REMARK  status: ('A' for Active; 'I' for Inactive)
REMARK    1  A    between atoms: C_1  and  C_2
REMARK    2  A    between atoms: C_4  and  C_5
REMARK    3  A    between atoms: C_8  and  C_9
REMARK    4  A    between atoms: N_11  and  C_12
REMARK    5  A    between atoms: C_12  and  C_13
REMARK    6  A    between atoms: N_20  and  C_21
REMARK    7  A    between atoms: C_21  and  C_22
REMARK    8  A    between atoms: C_21  and  C_23
REMARK                            x       y       z     vdW  Elec       q    Type
REMARK                         _______ _______ _______ _____ _____    ______ ____
ROOT
ATOM      1  C   UNL     1       3.048   7.385  19.080  0.00  0.00    +0.000 C 
ATOM      2  C   UNL     1       3.277   7.984  17.671  0.00  0.00    +0.000 C 
ATOM      3  C   UNL     1       4.423   7.320  16.917  0.00  0.00    +0.000 C 
ATOM      4  C   UNL     1       4.254   5.802  16.888  0.00  0.00    +0.000 C 
ATOM      5  C   UNL     1       4.025   5.255  18.302  0.00  0.00    +0.000 C 
ATOM      6  N   UNL     1       2.903   5.909  18.995  0.00  0.00    +0.000 N 
ATOM      7  C   UNL     1       1.962   5.210  19.748  0.00  0.00    +0.000 C 
ATOM      8  O   UNL     1       1.049   5.732  20.383  0.00  0.00    +0.000 OA
ATOM      9  N   UNL     1       2.056   3.838  19.705  0.00  0.00    +0.000 N 
ATOM     10  H   UNL     1       2.994   3.469  19.733  0.00  0.00    +0.000 HD
ENDROOT
BRANCH   1  14
ATOM     11  C   UNL     1      -0.981  10.427  18.767  0.00  0.00    +0.000 C 
ATOM     12  C   UNL     1       0.013   9.670  19.590  0.00  0.00    +0.000 A 
ATOM     13  C   UNL     1       1.078   8.980  18.993  0.00  0.00    +0.000 A 
ATOM     14  C   UNL     1       1.966   8.207  19.765  0.00  0.00    +0.000 A 
ATOM     15  C   UNL     1       1.786   8.169  21.161  0.00  0.00    +0.000 A 
ATOM     16  C   UNL     1       0.750   8.877  21.764  0.00  0.00    +0.000 A 
ATOM     17  C   UNL     1      -0.128   9.613  20.978  0.00  0.00    +0.000 A 
ATOM     18  F   UNL     1      -1.137  10.265  21.573  0.00  0.00    +0.000 F 
ENDBRANCH   1  14
BRANCH   4  19
ATOM     19  C   UNL     1       5.475   5.119  16.284  0.00  0.00    +0.000 C 
ATOM     20  O   UNL     1       6.278   4.476  16.959  0.00  0.00    +0.000 OA
ATOM     21  N   UNL     1       5.611   5.268  14.923  0.00  0.00    +0.000 N 
ATOM     22  H   UNL     1       4.908   5.756  14.386  0.00  0.00    +0.000 HD
BRANCH  21  23
ATOM     23  C   UNL     1       6.738   4.682  14.233  0.00  0.00    +0.000 C 
BRANCH  23  24
ATOM     24  C   UNL     1       6.289   3.504  13.431  0.00  0.00    +0.000 C 
ATOM     25  C   UNL     1       5.216   3.650  12.381  0.00  0.00    +0.000 C 
ATOM     26  C   UNL     1       6.637   3.393  11.967  0.00  0.00    +0.000 C 
ENDBRANCH  23  24
ENDBRANCH  21  23
ENDBRANCH   4  19
BRANCH   9  27
ATOM     27  C   UNL     1       1.056   3.007  20.375  0.00  0.00    +0.000 C 
ATOM     28  C   UNL     1       0.650   1.845  19.474  0.00  0.00    +0.000 C 
ATOM     29  C   UNL     1       1.581   2.495  21.715  0.00  0.00    +0.000 C 
ENDBRANCH   9  27
TORSDOF 5
ENDMDL
MODEL 5
REMARK VINA RESULT:      -6.8      4.005      8.578
REMARK  Name = 
REMARK  8 active torsions:
REMARK  status: ('A' for Active; 'I' for Inactive)
REMARK    1  A    between atoms: C_1  and  C_2
REMARK    2  A    between atoms: C_4  and  C_5
REMARK    3  A    between atoms: C_8  and  C_9
REMARK    4  A    between atoms: N_11  and  C_12
REMARK    5  A    between atoms: C_12  and  C_13
REMARK    6  A    between atoms: N_20  and  C_21
REMARK    7  A    between atoms: C_21  and  C_22
REMARK    8  A    between atoms: C_21  and  C_23
REMARK                            x       y       z     vdW  Elec       q    Type
REMARK                         _______ _______ _______ _____ _____    ______ ____
ROOT
ATOM      1  C   UNL     1      -0.901  11.174  21.227  0.00  0.00    +0.000 C 
ATOM      2  C   UNL     1      -0.806  10.015  22.249  0.00  0.00    +0.000 C 
ATOM      3  C   UNL     1      -0.170   8.758  21.671  0.00  0.00    +0.000 C 
ATOM      4  C   UNL     1       1.174   9.073  21.016  0.00  0.00    +0.000 C 
ATOM      5  C   UNL     1       1.032  10.227  20.017  0.00  0.00    +0.000 C 
ATOM      6  N   UNL     1       0.427  11.430  20.614  0.00  0.00    +0.000 N 
ATOM      7  C   UNL     1       0.898  12.719  20.372  0.00  0.00    +0.000 C 
ATOM      8  O   UNL     1       0.382  13.744  20.809  0.00  0.00    +0.000 OA
ATOM      9  N   UNL     1       2.061  12.807  19.641  0.00  0.00    +0.000 N 
ATOM     10  H   UNL     1       2.131  12.167  18.864  0.00  0.00    +0.000 HD
ENDROOT
BRANCH   1  14
ATOM     11  C   UNL     1      -4.668  14.550  21.144  0.00  0.00    +0.000 C 
ATOM     12  C   UNL     1      -3.489  13.937  21.833  0.00  0.00    +0.000 A 
ATOM     13  C   UNL     1      -2.716  12.946  21.209  0.00  0.00    +0.000 A 
ATOM     14  C   UNL     1      -1.655  12.319  21.890  0.00  0.00    +0.000 A 
ATOM     15  C   UNL     1      -1.359  12.731  23.202  0.00  0.00    +0.000 A 
ATOM     16  C   UNL     1      -2.102  13.736  23.817  0.00  0.00    +0.000 A 
ATOM     17  C   UNL     1      -3.159  14.323  23.134  0.00  0.00    +0.000 A 
ATOM     18  F   UNL     1      -3.883  15.270  23.750  0.00  0.00    +0.000 F 
ENDBRANCH   1  14
BRANCH   4  19
ATOM     19  C   UNL     1       1.737   7.856  20.291  0.00  0.00    +0.000 C 
ATOM     20  O   UNL     1       2.238   7.926  19.170  0.00  0.00    +0.000 OA
ATOM     21  N   UNL     1       1.650   6.673  20.986  0.00  0.00    +0.000 N 
ATOM     22  H   UNL     1       1.284   6.655  21.928  0.00  0.00    +0.000 HD
BRANCH  21  23
ATOM     23  C   UNL     1       2.135   5.444  20.400  0.00  0.00    +0.000 C 
BRANCH  23  24
ATOM     24  C   UNL     1       1.107   4.369  20.544  0.00  0.00    +0.000 C 
ATOM     25  C   UNL     1       1.192   3.107  19.722  0.00  0.00    +0.000 C 
ATOM     26  C   UNL     1       1.456   3.056  21.201  0.00  0.00    +0.000 C 
ENDBRANCH  23  24
ENDBRANCH  21  23
ENDBRANCH   4  19
BRANCH   9  27
ATOM     27  C   UNL     1       2.697  14.105  19.418  0.00  0.00    +0.000 C 
ATOM     28  C   UNL     1       3.722  14.381  20.514  0.00  0.00    +0.000 C 
ATOM     29  C   UNL     1       3.350  14.164  18.039  0.00  0.00    +0.000 C 
ENDBRANCH   9  27
TORSDOF 5
ENDMDL
MODEL 6
REMARK VINA RESULT:      -6.7      0.895      1.046
REMARK  Name = 
REMARK  8 active torsions:
REMARK  status: ('A' for Active; 'I' for Inactive)
REMARK    1  A    between atoms: C_1  and  C_2
REMARK    2  A    between atoms: C_4  and  C_5
REMARK    3  A    between atoms: C_8  and  C_9
REMARK    4  A    between atoms: N_11  and  C_12
REMARK    5  A    between atoms: C_12  and  C_13
REMARK    6  A    between atoms: N_20  and  C_21
REMARK    7  A    between atoms: C_21  and  C_22
REMARK    8  A    between atoms: C_21  and  C_23
REMARK                            x       y       z     vdW  Elec       q    Type
REMARK                         _______ _______ _______ _____ _____    ______ ____
ROOT
ATOM      1  C   UNL     1       1.057  11.155  19.389  0.00  0.00    +0.000 C 
ATOM      2  C   UNL     1       1.186  11.860  20.761  0.00  0.00    +0.000 C 
ATOM      3  C   UNL     1       1.067  13.376  20.667  0.00  0.00    +0.000 C 
ATOM      4  C   UNL     1      -0.201  13.782  19.917  0.00  0.00    +0.000 C 
ATOM      5  C   UNL     1      -0.288  13.056  18.569  0.00  0.00    +0.000 C 
ATOM      6  N   UNL     1      -0.182  11.594  18.698  0.00  0.00    +0.000 N 
ATOM      7  C   UNL     1      -0.995  10.706  17.995  0.00  0.00    +0.000 C 
ATOM      8  O   UNL     1      -0.894   9.483  18.039  0.00  0.00    +0.000 OA
ATOM      9  N   UNL     1      -2.010  11.275  17.259  0.00  0.00    +0.000 N 
ATOM     10  H   UNL     1      -1.765  12.121  16.768  0.00  0.00    +0.000 HD
ENDROOT
BRANCH   1  14
ATOM     11  C   UNL     1       3.116   6.805  17.828  0.00  0.00    +0.000 C 
ATOM     12  C   UNL     1       2.323   7.579  18.835  0.00  0.00    +0.000 A 
ATOM     13  C   UNL     1       1.991   8.925  18.620  0.00  0.00    +0.000 A 
ATOM     14  C   UNL     1       1.312   9.669  19.604  0.00  0.00    +0.000 A 
ATOM     15  C   UNL     1       0.937   9.025  20.797  0.00  0.00    +0.000 A 
ATOM     16  C   UNL     1       1.236   7.680  21.004  0.00  0.00    +0.000 A 
ATOM     17  C   UNL     1       1.928   6.973  20.029  0.00  0.00    +0.000 A 
ATOM     18  F   UNL     1       2.233   5.687  20.256  0.00  0.00    +0.000 F 
ENDBRANCH   1  14
BRANCH   4  19
ATOM     19  C   UNL     1      -0.245  15.286  19.673  0.00  0.00    +0.000 C 
ATOM     20  O   UNL     1      -1.116  16.010  20.152  0.00  0.00    +0.000 OA
ATOM     21  N   UNL     1       0.768  15.777  18.883  0.00  0.00    +0.000 N 
ATOM     22  H   UNL     1       1.502  15.168  18.549  0.00  0.00    +0.000 HD
BRANCH  21  23
ATOM     23  C   UNL     1       0.829  17.186  18.564  0.00  0.00    +0.000 C 
BRANCH  23  24
ATOM     24  C   UNL     1       0.111  17.451  17.282  0.00  0.00    +0.000 C 
ATOM     25  C   UNL     1      -0.825  18.627  17.151  0.00  0.00    +0.000 C 
ATOM     26  C   UNL     1       0.488  18.631  16.420  0.00  0.00    +0.000 C 
ENDBRANCH  23  24
ENDBRANCH  21  23
ENDBRANCH   4  19
BRANCH   9  27
ATOM     27  C   UNL     1      -2.982  10.430  16.566  0.00  0.00    +0.000 C 
ATOM     28  C   UNL     1      -4.391  10.734  17.067  0.00  0.00    +0.000 C 
ATOM     29  C   UNL     1      -2.893  10.621  15.054  0.00  0.00    +0.000 C 
ENDBRANCH   9  27
TORSDOF 5
ENDMDL
MODEL 7
REMARK VINA RESULT:      -6.6      0.730      1.405
REMARK  Name = 
REMARK  8 active torsions:
REMARK  status: ('A' for Active; 'I' for Inactive)
REMARK    1  A    between atoms: C_1  and  C_2
REMARK    2  A    between atoms: C_4  and  C_5
REMARK    3  A    between atoms: C_8  and  C_9
REMARK    4  A    between atoms: N_11  and  C_12
REMARK    5  A    between atoms: C_12  and  C_13
REMARK    6  A    between atoms: N_20  and  C_21
REMARK    7  A    between atoms: C_21  and  C_22
REMARK    8  A    between atoms: C_21  and  C_23
REMARK                            x       y       z     vdW  Elec       q    Type
REMARK                         _______ _______ _______ _____ _____    ______ ____
ROOT
ATOM      1  C   UNL     1       0.913  11.831  19.099  0.00  0.00    +0.000 C 
ATOM      2  C   UNL     1       1.165  12.342  20.538  0.00  0.00    +0.000 C 
ATOM      3  C   UNL     1       0.836  13.819  20.715  0.00  0.00    +0.000 C 
ATOM      4  C   UNL     1      -0.575  14.131  20.221  0.00  0.00    +0.000 C 
ATOM      5  C   UNL     1      -0.780  13.603  18.796  0.00  0.00    +0.000 C 
ATOM      6  N   UNL     1      -0.466  12.170  18.665  0.00  0.00    +0.000 N 
ATOM      7  C   UNL     1      -1.258  11.280  17.941  0.00  0.00    +0.000 C 
ATOM      8  O   UNL     1      -0.994  10.094  17.768  0.00  0.00    +0.000 OA
ATOM      9  N   UNL     1      -2.441  11.787  17.454  0.00  0.00    +0.000 N 
ATOM     10  H   UNL     1      -2.388  12.723  17.082  0.00  0.00    +0.000 HD
ENDROOT
BRANCH   1  14
ATOM     11  C   UNL     1       1.192   7.218  21.158  0.00  0.00    +0.000 C 
ATOM     12  C   UNL     1       1.503   8.161  20.038  0.00  0.00    +0.000 A 
ATOM     13  C   UNL     1       1.162   9.519  20.114  0.00  0.00    +0.000 A 
ATOM     14  C   UNL     1       1.389  10.386  19.028  0.00  0.00    +0.000 A 
ATOM     15  C   UNL     1       2.000   9.870  17.870  0.00  0.00    +0.000 A 
ATOM     16  C   UNL     1       2.370   8.529  17.799  0.00  0.00    +0.000 A 
ATOM     17  C   UNL     1       2.114   7.688  18.875  0.00  0.00    +0.000 A 
ATOM     18  F   UNL     1       2.451   6.394  18.779  0.00  0.00    +0.000 F 
ENDBRANCH   1  14
BRANCH   4  19
ATOM     19  C   UNL     1      -0.852  15.630  20.239  0.00  0.00    +0.000 C 
ATOM     20  O   UNL     1      -0.786  16.304  21.265  0.00  0.00    +0.000 OA
ATOM     21  N   UNL     1      -1.175  16.175  19.018  0.00  0.00    +0.000 N 
ATOM     22  H   UNL     1      -1.168  15.608  18.182  0.00  0.00    +0.000 HD
BRANCH  21  23
ATOM     23  C   UNL     1      -1.475  17.585  18.905  0.00  0.00    +0.000 C 
BRANCH  23  24
ATOM     24  C   UNL     1      -0.301  18.314  18.339  0.00  0.00    +0.000 C 
ATOM     25  C   UNL     1       0.694  17.604  17.455  0.00  0.00    +0.000 C 
ATOM     26  C   UNL     1      -0.231  18.630  16.865  0.00  0.00    +0.000 C 
ENDBRANCH  23  24
ENDBRANCH  21  23
ENDBRANCH   4  19
BRANCH   9  27
ATOM     27  C   UNL     1      -3.393  10.913  16.770  0.00  0.00    +0.000 C 
ATOM     28  C   UNL     1      -4.813  11.441  16.952  0.00  0.00    +0.000 C 
ATOM     29  C   UNL     1      -3.050  10.785  15.288  0.00  0.00    +0.000 C 
ENDBRANCH   9  27
TORSDOF 5
ENDMDL
MODEL 8
REMARK VINA RESULT:      -6.6      4.130      8.069
REMARK  Name = 
REMARK  8 active torsions:
REMARK  status: ('A' for Active; 'I' for Inactive)
REMARK    1  A    between atoms: C_1  and  C_2
REMARK    2  A    between atoms: C_4  and  C_5
REMARK    3  A    between atoms: C_8  and  C_9
REMARK    4  A    between atoms: N_11  and  C_12
REMARK    5  A    between atoms: C_12  and  C_13
REMARK    6  A    between atoms: N_20  and  C_21
REMARK    7  A    between atoms: C_21  and  C_22
REMARK    8  A    between atoms: C_21  and  C_23
REMARK                            x       y       z     vdW  Elec       q    Type
REMARK                         _______ _______ _______ _____ _____    ______ ____
ROOT
ATOM      1  C   UNL     1      -0.668  10.557  21.868  0.00  0.00    +0.000 C 
ATOM      2  C   UNL     1       0.822  10.477  22.282  0.00  0.00    +0.000 C 
ATOM      3  C   UNL     1       1.508   9.203  21.804  0.00  0.00    +0.000 C 
ATOM      4  C   UNL     1       1.305   9.000  20.303  0.00  0.00    +0.000 C 
ATOM      5  C   UNL     1      -0.181   9.093  19.940  0.00  0.00    +0.000 C 
ATOM      6  N   UNL     1      -0.808  10.341  20.405  0.00  0.00    +0.000 N 
ATOM      7  C   UNL     1      -1.689  11.088  19.625  0.00  0.00    +0.000 C 
ATOM      8  O   UNL     1      -2.270  12.101  20.004  0.00  0.00    +0.000 OA
ATOM      9  N   UNL     1      -1.847  10.665  18.324  0.00  0.00    +0.000 N 
ATOM     10  H   UNL     1      -1.896   9.666  18.199  0.00  0.00    +0.000 HD
ENDROOT
BRANCH   1  14
ATOM     11  C   UNL     1      -4.295  12.756  24.624  0.00  0.00    +0.000 C 
ATOM     12  C   UNL     1      -3.020  12.848  23.845  0.00  0.00    +0.000 A 
ATOM     13  C   UNL     1      -2.498  11.736  23.170  0.00  0.00    +0.000 A 
ATOM     14  C   UNL     1      -1.261  11.808  22.502  0.00  0.00    +0.000 A 
ATOM     15  C   UNL     1      -0.570  13.033  22.495  0.00  0.00    +0.000 A 
ATOM     16  C   UNL     1      -1.097  14.151  23.137  0.00  0.00    +0.000 A 
ATOM     17  C   UNL     1      -2.308  14.049  23.809  0.00  0.00    +0.000 A 
ATOM     18  F   UNL     1      -2.788  15.127  24.446  0.00  0.00    +0.000 F 
ENDBRANCH   1  14
BRANCH   4  19
ATOM     19  C   UNL     1       1.844   7.648  19.848  0.00  0.00    +0.000 C 
ATOM     20  O   UNL     1       2.295   7.461  18.719  0.00  0.00    +0.000 OA
ATOM     21  N   UNL     1       1.795   6.654  20.796  0.00  0.00    +0.000 N 
ATOM     22  H   UNL     1       1.470   6.851  21.733  0.00  0.00    +0.000 HD
BRANCH  21  23
ATOM     23  C   UNL     1       2.260   5.322  20.483  0.00  0.00    +0.000 C 
BRANCH  23  24
ATOM     24  C   UNL     1       1.120   4.358  20.531  0.00  0.00    +0.000 C 
ATOM     25  C   UNL     1       1.114   3.127  19.658  0.00  0.00    +0.000 C 
ATOM     26  C   UNL     1       1.296   2.990  21.144  0.00  0.00    +0.000 C 
ENDBRANCH  23  24
ENDBRANCH  21  23
ENDBRANCH   4  19
BRANCH   9  27
ATOM     27  C   UNL     1      -2.667  11.436  17.391  0.00  0.00    +0.000 C 
ATOM     28  C   UNL     1      -2.484  10.909  15.972  0.00  0.00    +0.000 C 
ATOM     29  C   UNL     1      -4.139  11.396  17.796  0.00  0.00    +0.000 C 
ENDBRANCH   9  27
TORSDOF 5
ENDMDL
MODEL 9
REMARK VINA RESULT:      -6.4      3.964      8.569
REMARK  Name = 
REMARK  8 active torsions:
REMARK  status: ('A' for Active; 'I' for Inactive)
REMARK    1  A    between atoms: C_1  and  C_2
REMARK    2  A    between atoms: C_4  and  C_5
REMARK    3  A    between atoms: C_8  and  C_9
REMARK    4  A    between atoms: N_11  and  C_12
REMARK    5  A    between atoms: C_12  and  C_13
REMARK    6  A    between atoms: N_20  and  C_21
REMARK    7  A    between atoms: C_21  and  C_22
REMARK    8  A    between atoms: C_21  and  C_23
REMARK                            x       y       z     vdW  Elec       q    Type
REMARK                         _______ _______ _______ _____ _____    ______ ____
ROOT
ATOM      1  C   UNL     1      -0.919  11.266  21.076  0.00  0.00    +0.000 C 
ATOM      2  C   UNL     1      -0.855  10.126  22.122  0.00  0.00    +0.000 C 
ATOM      3  C   UNL     1      -0.208   8.856  21.585  0.00  0.00    +0.000 C 
ATOM      4  C   UNL     1       1.155   9.156  20.962  0.00  0.00    +0.000 C 
ATOM      5  C   UNL     1       1.044  10.292  19.938  0.00  0.00    +0.000 C 
ATOM      6  N   UNL     1       0.426  11.507  20.495  0.00  0.00    +0.000 N 
ATOM      7  C   UNL     1       0.908  12.790  20.242  0.00  0.00    +0.000 C 
ATOM      8  O   UNL     1       0.383  13.824  20.646  0.00  0.00    +0.000 OA
ATOM      9  N   UNL     1       2.091  12.861  19.542  0.00  0.00    +0.000 N 
ATOM     10  H   UNL     1       2.181  12.207  18.780  0.00  0.00    +0.000 HD
ENDROOT
BRANCH   1  14
ATOM     11  C   UNL     1      -1.401  14.727  24.733  0.00  0.00    +0.000 C 
ATOM     12  C   UNL     1      -1.896  14.096  23.470  0.00  0.00    +0.000 A 
ATOM     13  C   UNL     1      -1.265  12.969  22.924  0.00  0.00    +0.000 A 
ATOM     14  C   UNL     1      -1.687  12.425  21.696  0.00  0.00    +0.000 A 
ATOM     15  C   UNL     1      -2.783  13.015  21.039  0.00  0.00    +0.000 A 
ATOM     16  C   UNL     1      -3.434  14.116  21.591  0.00  0.00    +0.000 A 
ATOM     17  C   UNL     1      -2.984  14.649  22.791  0.00  0.00    +0.000 A 
ATOM     18  F   UNL     1      -3.604  15.727  23.294  0.00  0.00    +0.000 F 
ENDBRANCH   1  14
BRANCH   4  19
ATOM     19  C   UNL     1       1.735   7.924  20.275  0.00  0.00    +0.000 C 
ATOM     20  O   UNL     1       2.242   7.967  19.156  0.00  0.00    +0.000 OA
ATOM     21  N   UNL     1       1.655   6.761  21.005  0.00  0.00    +0.000 N 
ATOM     22  H   UNL     1       1.283   6.766  21.944  0.00  0.00    +0.000 HD
BRANCH  21  23
ATOM     23  C   UNL     1       2.155   5.520  20.457  0.00  0.00    +0.000 C 
BRANCH  23  24
ATOM     24  C   UNL     1       1.106   4.461  20.550  0.00  0.00    +0.000 C 
ATOM     25  C   UNL     1       1.180   3.225  19.688  0.00  0.00    +0.000 C 
ATOM     26  C   UNL     1       1.420   3.121  21.168  0.00  0.00    +0.000 C 
ENDBRANCH  23  24
ENDBRANCH  21  23
ENDBRANCH   4  19
BRANCH   9  27
ATOM     27  C   UNL     1       2.737  14.153  19.312  0.00  0.00    +0.000 C 
ATOM     28  C   UNL     1       3.756  14.433  20.413  0.00  0.00    +0.000 C 
ATOM     29  C   UNL     1       3.400  14.196  17.938  0.00  0.00    +0.000 C 
ENDBRANCH   9  27
TORSDOF 5
ENDMDL
