MODEL 1
REMARK VINA RESULT:      -6.3      0.000      0.000
REMARK  Name = 
REMARK  8 active torsions:
REMARK  status: ('A' for Active; 'I' for Inactive)
REMARK    1  A    between atoms: C_1  and  O_2
REMARK    2  A    between atoms: O_2  and  C_3
REMARK    3  A    between atoms: C_8  and  O_9
REMARK    4  A    between atoms: O_9  and  C_10
REMARK    5  A    between atoms: C_11  and  S_12
REMARK    6  A    between atoms: S_12  and  C_13
REMARK    7  A    between atoms: C_15  and  C_16
REMARK    8  A    between atoms: C_15  and  C_17
REMARK                            x       y       z     vdW  Elec       q    Type
REMARK                         _______ _______ _______ _____ _____    ______ ____
ROOT
ATOM      1  C   UNL     1       5.942   4.776  17.362  0.00  0.00    +0.000 A 
ATOM      2  C   UNL     1       5.105   3.854  18.005  0.00  0.00    +0.000 A 
ATOM      3  C   UNL     1       3.969   4.262  18.723  0.00  0.00    +0.000 A 
ATOM      4  C   UNL     1       3.630   5.609  18.767  0.00  0.00    +0.000 A 
ATOM      5  C   UNL     1       4.414   6.521  18.047  0.00  0.00    +0.000 A 
ATOM      6  C   UNL     1       5.563   6.123  17.342  0.00  0.00    +0.000 A 
ATOM      7  C   UNL     1       2.465   5.991  19.603  0.00  0.00    +0.000 C 
ATOM      8  N   UNL     1       1.732   5.163  20.253  0.00  0.00    +0.000 NA
ATOM      9  C   UNL     1       1.924   3.712  20.206  0.00  0.00    +0.000 C 
ATOM     10  C   UNL     1       0.682   3.120  19.526  0.00  0.00    +0.000 C 
ATOM     11  C   UNL     1       1.967   3.232  21.668  0.00  0.00    +0.000 C 
ATOM     12  C   UNL     1       3.200   3.227  19.488  0.00  0.00    +0.000 C 
ENDROOT
BRANCH   1  14
ATOM     13  C   UNL     1       7.083   4.319  15.330  0.00  0.00    +0.000 C 
ATOM     14  O   UNL     1       7.108   4.387  16.756  0.00  0.00    +0.000 OA
ENDBRANCH   1  14
BRANCH   6  15
ATOM     15  O   UNL     1       6.164   7.186  16.720  0.00  0.00    +0.000 OA
ATOM     16  C   UNL     1       7.299   7.799  17.314  0.00  0.00    +0.000 C 
ENDBRANCH   6  15
BRANCH   7  17
ATOM     17  S   UNL     1       2.081   7.707  19.740  0.00  0.00    +0.000 S 
ATOM     18  C   UNL     1       1.109   7.744  21.258  0.00  0.00    +0.000 C 
ENDBRANCH   7  17
TORSDOF 3
ENDMDL
MODEL 2
REMARK VINA RESULT:      -6.2      1.055      1.055
REMARK  Name = 
REMARK  8 active torsions:
REMARK  status: ('A' for Active; 'I' for Inactive)
REMARK    1  A    between atoms: C_1  and  O_2
REMARK    2  A    between atoms: O_2  and  C_3
REMARK    3  A    between atoms: C_8  and  O_9
REMARK    4  A    between atoms: O_9  and  C_10
REMARK    5  A    between atoms: C_11  and  S_12
REMARK    6  A    between atoms: S_12  and  C_13
REMARK    7  A    between atoms: C_15  and  C_16
REMARK    8  A    between atoms: C_15  and  C_17
REMARK                            x       y       z     vdW  Elec       q    Type
REMARK                         _______ _______ _______ _____ _____    ______ ____
ROOT
ATOM      1  C   UNL     1       6.138   4.911  16.755  0.00  0.00    +0.000 A 
ATOM      2  C   UNL     1       5.266   3.900  17.179  0.00  0.00    +0.000 A 
ATOM      3  C   UNL     1       4.134   4.181  17.962  0.00  0.00    +0.000 A 
ATOM      4  C   UNL     1       3.836   5.497  18.294  0.00  0.00    +0.000 A 
ATOM      5  C   UNL     1       4.656   6.517  17.792  0.00  0.00    +0.000 A 
ATOM      6  C   UNL     1       5.802   6.243  17.024  0.00  0.00    +0.000 A 
ATOM      7  C   UNL     1       2.673   5.728  19.186  0.00  0.00    +0.000 C 
ATOM      8  N   UNL     1       1.907   4.804  19.638  0.00  0.00    +0.000 NA
ATOM      9  C   UNL     1       2.055   3.392  19.280  0.00  0.00    +0.000 C 
ATOM     10  C   UNL     1       0.804   3.001  18.482  0.00  0.00    +0.000 C 
ATOM     11  C   UNL     1       2.065   2.607  20.605  0.00  0.00    +0.000 C 
ATOM     12  C   UNL     1       3.325   3.031  18.482  0.00  0.00    +0.000 C 
ENDROOT
BRANCH   1  14
ATOM     13  C   UNL     1       7.231   4.669  14.660  0.00  0.00    +0.000 C 
ATOM     14  O   UNL     1       7.299   4.625  16.086  0.00  0.00    +0.000 OA
ENDBRANCH   1  14
BRANCH   6  15
ATOM     15  O   UNL     1       6.442   7.394  16.649  0.00  0.00    +0.000 OA
ATOM     16  C   UNL     1       7.531   7.878  17.422  0.00  0.00    +0.000 C 
ENDBRANCH   6  15
BRANCH   7  17
ATOM     17  S   UNL     1       2.340   7.386  19.688  0.00  0.00    +0.000 S 
ATOM     18  C   UNL     1       1.915   8.164  18.119  0.00  0.00    +0.000 C 
ENDBRANCH   7  17
TORSDOF 3
ENDMDL
MODEL 3
REMARK VINA RESULT:      -5.8      2.746      4.062
REMARK  Name = 
REMARK  8 active torsions:
REMARK  status: ('A' for Active; 'I' for Inactive)
REMARK    1  A    between atoms: C_1  and  O_2
REMARK    2  A    between atoms: O_2  and  C_3
REMARK    3  A    between atoms: C_8  and  O_9
REMARK    4  A    between atoms: O_9  and  C_10
REMARK    5  A    between atoms: C_11  and  S_12
REMARK    6  A    between atoms: S_12  and  C_13
REMARK    7  A    between atoms: C_15  and  C_16
REMARK    8  A    between atoms: C_15  and  C_17
REMARK                            x       y       z     vdW  Elec       q    Type
REMARK                         _______ _______ _______ _____ _____    ______ ____
ROOT
ATOM      1  C   UNL     1       6.179   4.019  14.127  0.00  0.00    +0.000 A 
ATOM      2  C   UNL     1       5.179   3.630  15.029  0.00  0.00    +0.000 A 
ATOM      3  C   UNL     1       5.254   3.944  16.396  0.00  0.00    +0.000 A 
ATOM      4  C   UNL     1       6.320   4.698  16.871  0.00  0.00    +0.000 A 
ATOM      5  C   UNL     1       7.272   5.166  15.955  0.00  0.00    +0.000 A 
ATOM      6  C   UNL     1       7.214   4.840  14.588  0.00  0.00    +0.000 A 
ATOM      7  C   UNL     1       6.388   4.934  18.335  0.00  0.00    +0.000 C 
ATOM      8  N   UNL     1       5.515   4.524  19.179  0.00  0.00    +0.000 NA
ATOM      9  C   UNL     1       4.297   3.809  18.793  0.00  0.00    +0.000 C 
ATOM     10  C   UNL     1       3.114   4.719  19.147  0.00  0.00    +0.000 C 
ATOM     11  C   UNL     1       4.236   2.548  19.675  0.00  0.00    +0.000 C 
ATOM     12  C   UNL     1       4.211   3.382  17.314  0.00  0.00    +0.000 C 
ENDROOT
BRANCH   1  14
ATOM     13  C   UNL     1       4.870   3.444  12.231  0.00  0.00    +0.000 C 
ATOM     14  O   UNL     1       6.160   3.618  12.817  0.00  0.00    +0.000 OA
ENDBRANCH   1  14
BRANCH   6  15
ATOM     15  O   UNL     1       8.249   5.409  13.893  0.00  0.00    +0.000 OA
ATOM     16  C   UNL     1       8.085   5.723  12.517  0.00  0.00    +0.000 C 
ENDBRANCH   6  15
BRANCH   7  17
ATOM     17  S   UNL     1       7.785   5.811  18.961  0.00  0.00    +0.000 S 
ATOM     18  C   UNL     1       7.687   7.358  18.040  0.00  0.00    +0.000 C 
ENDBRANCH   7  17
TORSDOF 3
ENDMDL
MODEL 4
REMARK VINA RESULT:      -5.8      3.081      5.452
REMARK  Name = 
REMARK  8 active torsions:
REMARK  status: ('A' for Active; 'I' for Inactive)
REMARK    1  A    between atoms: C_1  and  O_2
REMARK    2  A    between atoms: O_2  and  C_3
REMARK    3  A    between atoms: C_8  and  O_9
REMARK    4  A    between atoms: O_9  and  C_10
REMARK    5  A    between atoms: C_11  and  S_12
REMARK    6  A    between atoms: S_12  and  C_13
REMARK    7  A    between atoms: C_15  and  C_16
REMARK    8  A    between atoms: C_15  and  C_17
REMARK                            x       y       z     vdW  Elec       q    Type
REMARK                         _______ _______ _______ _____ _____    ______ ____
ROOT
ATOM      1  C   UNL     1       1.662   8.850  19.235  0.00  0.00    +0.000 A 
ATOM      2  C   UNL     1       2.434   8.114  18.325  0.00  0.00    +0.000 A 
ATOM      3  C   UNL     1       2.826   6.792  18.589  0.00  0.00    +0.000 A 
ATOM      4  C   UNL     1       2.407   6.171  19.759  0.00  0.00    +0.000 A 
ATOM      5  C   UNL     1       1.560   6.874  20.626  0.00  0.00    +0.000 A 
ATOM      6  C   UNL     1       1.178   8.205  20.378  0.00  0.00    +0.000 A 
ATOM      7  C   UNL     1       2.916   4.802  20.022  0.00  0.00    +0.000 C 
ATOM      8  N   UNL     1       3.679   4.143  19.230  0.00  0.00    +0.000 NA
ATOM      9  C   UNL     1       4.106   4.647  17.923  0.00  0.00    +0.000 C 
ATOM     10  C   UNL     1       3.474   3.733  16.864  0.00  0.00    +0.000 C 
ATOM     11  C   UNL     1       5.636   4.482  17.873  0.00  0.00    +0.000 C 
ATOM     12  C   UNL     1       3.757   6.119  17.625  0.00  0.00    +0.000 C 
ENDROOT
BRANCH   1  14
ATOM     13  C   UNL     1       0.061  10.462  18.545  0.00  0.00    +0.000 C 
ATOM     14  O   UNL     1       1.373  10.174  19.026  0.00  0.00    +0.000 OA
ENDBRANCH   1  14
BRANCH   6  15
ATOM     15  O   UNL     1       0.351   8.680  21.360  0.00  0.00    +0.000 OA
ATOM     16  C   UNL     1       0.907   9.305  22.508  0.00  0.00    +0.000 C 
ENDBRANCH   6  15
BRANCH   7  17
ATOM     17  S   UNL     1       2.465   4.038  21.548  0.00  0.00    +0.000 S 
ATOM     18  C   UNL     1       1.248   2.825  21.004  0.00  0.00    +0.000 C 
ENDBRANCH   7  17
TORSDOF 3
ENDMDL
MODEL 5
REMARK VINA RESULT:      -5.8      3.459      5.798
REMARK  Name = 
REMARK  8 active torsions:
REMARK  status: ('A' for Active; 'I' for Inactive)
REMARK    1  A    between atoms: C_1  and  O_2
REMARK    2  A    between atoms: O_2  and  C_3
REMARK    3  A    between atoms: C_8  and  O_9
REMARK    4  A    between atoms: O_9  and  C_10
REMARK    5  A    between atoms: C_11  and  S_12
REMARK    6  A    between atoms: S_12  and  C_13
REMARK    7  A    between atoms: C_15  and  C_16
REMARK    8  A    between atoms: C_15  and  C_17
REMARK                            x       y       z     vdW  Elec       q    Type
REMARK                         _______ _______ _______ _____ _____    ______ ____
ROOT
ATOM      1  C   UNL     1       2.511   6.500  18.583  0.00  0.00    +0.000 A 
ATOM      2  C   UNL     1       2.275   7.788  18.084  0.00  0.00    +0.000 A 
ATOM      3  C   UNL     1       1.688   8.791  18.873  0.00  0.00    +0.000 A 
ATOM      4  C   UNL     1       1.369   8.523  20.199  0.00  0.00    +0.000 A 
ATOM      5  C   UNL     1       1.689   7.264  20.725  0.00  0.00    +0.000 A 
ATOM      6  C   UNL     1       2.259   6.250  19.936  0.00  0.00    +0.000 A 
ATOM      7  C   UNL     1       0.681   9.594  20.962  0.00  0.00    +0.000 C 
ATOM      8  N   UNL     1       0.398  10.754  20.495  0.00  0.00    +0.000 NA
ATOM      9  C   UNL     1       0.772  11.192  19.149  0.00  0.00    +0.000 C 
ATOM     10  C   UNL     1       1.784  12.333  19.316  0.00  0.00    +0.000 C 
ATOM     11  C   UNL     1      -0.509  11.754  18.504  0.00  0.00    +0.000 C 
ATOM     12  C   UNL     1       1.353  10.101  18.227  0.00  0.00    +0.000 C 
ENDROOT
BRANCH   1  14
ATOM     13  C   UNL     1       4.368   5.550  17.448  0.00  0.00    +0.000 C 
ATOM     14  O   UNL     1       2.981   5.493  17.781  0.00  0.00    +0.000 OA
ENDBRANCH   1  14
BRANCH   6  15
ATOM     15  O   UNL     1       2.480   5.112  20.666  0.00  0.00    +0.000 OA
ATOM     16  C   UNL     1       1.487   4.097  20.707  0.00  0.00    +0.000 C 
ENDBRANCH   6  15
BRANCH   7  17
ATOM     17  S   UNL     1       0.188   9.235  22.618  0.00  0.00    +0.000 S 
ATOM     18  C   UNL     1      -0.927  10.606  22.973  0.00  0.00    +0.000 C 
ENDBRANCH   7  17
TORSDOF 3
ENDMDL
MODEL 6
REMARK VINA RESULT:      -5.8      3.414      5.786
REMARK  Name = 
REMARK  8 active torsions:
REMARK  status: ('A' for Active; 'I' for Inactive)
REMARK    1  A    between atoms: C_1  and  O_2
REMARK    2  A    between atoms: O_2  and  C_3
REMARK    3  A    between atoms: C_8  and  O_9
REMARK    4  A    between atoms: O_9  and  C_10
REMARK    5  A    between atoms: C_11  and  S_12
REMARK    6  A    between atoms: S_12  and  C_13
REMARK    7  A    between atoms: C_15  and  C_16
REMARK    8  A    between atoms: C_15  and  C_17
REMARK                            x       y       z     vdW  Elec       q    Type
REMARK                         _______ _______ _______ _____ _____    ______ ____
ROOT
ATOM      1  C   UNL     1       2.805   2.501  18.620  0.00  0.00    +0.000 A 
ATOM      2  C   UNL     1       3.154   2.970  17.346  0.00  0.00    +0.000 A 
ATOM      3  C   UNL     1       4.272   3.796  17.143  0.00  0.00    +0.000 A 
ATOM      4  C   UNL     1       5.087   4.126  18.219  0.00  0.00    +0.000 A 
ATOM      5  C   UNL     1       4.792   3.582  19.476  0.00  0.00    +0.000 A 
ATOM      6  C   UNL     1       3.664   2.771  19.691  0.00  0.00    +0.000 A 
ATOM      7  C   UNL     1       6.208   5.064  17.960  0.00  0.00    +0.000 C 
ATOM      8  N   UNL     1       6.496   5.555  16.811  0.00  0.00    +0.000 NA
ATOM      9  C   UNL     1       5.777   5.205  15.584  0.00  0.00    +0.000 C 
ATOM     10  C   UNL     1       6.772   4.462  14.681  0.00  0.00    +0.000 C 
ATOM     11  C   UNL     1       5.393   6.536  14.912  0.00  0.00    +0.000 C 
ATOM     12  C   UNL     1       4.501   4.359  15.773  0.00  0.00    +0.000 C 
ENDROOT
BRANCH   1  14
ATOM     13  C   UNL     1       0.437   2.533  18.796  0.00  0.00    +0.000 C 
ATOM     14  O   UNL     1       1.654   1.788  18.833  0.00  0.00    +0.000 OA
ENDBRANCH   1  14
BRANCH   6  15
ATOM     15  O   UNL     1       3.583   2.360  20.995  0.00  0.00    +0.000 OA
ATOM     16  C   UNL     1       2.486   2.774  21.798  0.00  0.00    +0.000 C 
ENDBRANCH   6  15
BRANCH   7  17
ATOM     17  S   UNL     1       7.194   5.563  19.335  0.00  0.00    +0.000 S 
ATOM     18  C   UNL     1       8.106   6.956  18.644  0.00  0.00    +0.000 C 
ENDBRANCH   7  17
TORSDOF 3
ENDMDL
MODEL 7
REMARK VINA RESULT:      -5.8      3.153      5.594
REMARK  Name = 
REMARK  8 active torsions:
REMARK  status: ('A' for Active; 'I' for Inactive)
REMARK    1  A    between atoms: C_1  and  O_2
REMARK    2  A    between atoms: O_2  and  C_3
REMARK    3  A    between atoms: C_8  and  O_9
REMARK    4  A    between atoms: O_9  and  C_10
REMARK    5  A    between atoms: C_11  and  S_12
REMARK    6  A    between atoms: S_12  and  C_13
REMARK    7  A    between atoms: C_15  and  C_16
REMARK    8  A    between atoms: C_15  and  C_17
REMARK                            x       y       z     vdW  Elec       q    Type
REMARK                         _______ _______ _______ _____ _____    ______ ____
ROOT
ATOM      1  C   UNL     1       2.386   8.163  18.667  0.00  0.00    +0.000 A 
ATOM      2  C   UNL     1       3.250   7.878  17.601  0.00  0.00    +0.000 A 
ATOM      3  C   UNL     1       3.942   6.659  17.515  0.00  0.00    +0.000 A 
ATOM      4  C   UNL     1       3.739   5.684  18.484  0.00  0.00    +0.000 A 
ATOM      5  C   UNL     1       2.806   5.931  19.500  0.00  0.00    +0.000 A 
ATOM      6  C   UNL     1       2.124   7.156  19.603  0.00  0.00    +0.000 A 
ATOM      7  C   UNL     1       4.554   4.448  18.385  0.00  0.00    +0.000 C 
ATOM      8  N   UNL     1       5.399   4.205  17.451  0.00  0.00    +0.000 NA
ATOM      9  C   UNL     1       5.628   5.106  16.320  0.00  0.00    +0.000 C 
ATOM     10  C   UNL     1       5.157   4.369  15.059  0.00  0.00    +0.000 C 
ATOM     11  C   UNL     1       7.151   5.316  16.234  0.00  0.00    +0.000 C 
ATOM     12  C   UNL     1       4.943   6.485  16.413  0.00  0.00    +0.000 C 
ENDROOT
BRANCH   1  14
ATOM     13  C   UNL     1       0.627   9.622  18.024  0.00  0.00    +0.000 C 
ATOM     14  O   UNL     1       1.798   9.393  18.807  0.00  0.00    +0.000 OA
ENDBRANCH   1  14
BRANCH   6  15
ATOM     15  O   UNL     1       1.268   7.165  20.673  0.00  0.00    +0.000 OA
ATOM     16  C   UNL     1       1.247   8.283  21.549  0.00  0.00    +0.000 C 
ENDBRANCH   6  15
BRANCH   7  17
ATOM     17  S   UNL     1       4.373   3.241  19.660  0.00  0.00    +0.000 S 
ATOM     18  C   UNL     1       3.580   1.888  18.772  0.00  0.00    +0.000 C 
ENDBRANCH   7  17
TORSDOF 3
ENDMDL
MODEL 8
REMARK VINA RESULT:      -5.7      3.335      6.029
REMARK  Name = 
REMARK  8 active torsions:
REMARK  status: ('A' for Active; 'I' for Inactive)
REMARK    1  A    between atoms: C_1  and  O_2
REMARK    2  A    between atoms: O_2  and  C_3
REMARK    3  A    between atoms: C_8  and  O_9
REMARK    4  A    between atoms: O_9  and  C_10
REMARK    5  A    between atoms: C_11  and  S_12
REMARK    6  A    between atoms: S_12  and  C_13
REMARK    7  A    between atoms: C_15  and  C_16
REMARK    8  A    between atoms: C_15  and  C_17
REMARK                            x       y       z     vdW  Elec       q    Type
REMARK                         _______ _______ _______ _____ _____    ______ ____
ROOT
ATOM      1  C   UNL     1       2.515   4.465  19.660  0.00  0.00    +0.000 A 
ATOM      2  C   UNL     1       3.747   5.090  19.900  0.00  0.00    +0.000 A 
ATOM      3  C   UNL     1       4.772   5.096  18.939  0.00  0.00    +0.000 A 
ATOM      4  C   UNL     1       4.555   4.510  17.699  0.00  0.00    +0.000 A 
ATOM      5  C   UNL     1       3.292   3.966  17.424  0.00  0.00    +0.000 A 
ATOM      6  C   UNL     1       2.268   3.940  18.387  0.00  0.00    +0.000 A 
ATOM      7  C   UNL     1       5.698   4.477  16.752  0.00  0.00    +0.000 C 
ATOM      8  N   UNL     1       6.852   4.985  16.986  0.00  0.00    +0.000 NA
ATOM      9  C   UNL     1       7.174   5.717  18.213  0.00  0.00    +0.000 C 
ATOM     10  C   UNL     1       7.448   7.171  17.806  0.00  0.00    +0.000 C 
ATOM     11  C   UNL     1       8.475   5.099  18.759  0.00  0.00    +0.000 C 
ATOM     12  C   UNL     1       6.102   5.672  19.321  0.00  0.00    +0.000 C 
ENDROOT
BRANCH   1  14
ATOM     13  C   UNL     1       1.770   3.355  21.622  0.00  0.00    +0.000 C 
ATOM     14  O   UNL     1       1.559   4.365  20.636  0.00  0.00    +0.000 OA
ENDBRANCH   1  14
BRANCH   6  15
ATOM     15  O   UNL     1       1.130   3.361  17.892  0.00  0.00    +0.000 OA
ATOM     16  C   UNL     1       0.632   2.168  18.481  0.00  0.00    +0.000 C 
ENDBRANCH   6  15
BRANCH   7  17
ATOM     17  S   UNL     1       5.463   3.655  15.209  0.00  0.00    +0.000 S 
ATOM     18  C   UNL     1       6.653   4.506  14.156  0.00  0.00    +0.000 C 
ENDBRANCH   7  17
TORSDOF 3
ENDMDL
MODEL 9
REMARK VINA RESULT:      -5.6      3.121      5.666
REMARK  Name = 
REMARK  8 active torsions:
REMARK  status: ('A' for Active; 'I' for Inactive)
REMARK    1  A    between atoms: C_1  and  O_2
REMARK    2  A    between atoms: O_2  and  C_3
REMARK    3  A    between atoms: C_8  and  O_9
REMARK    4  A    between atoms: O_9  and  C_10
REMARK    5  A    between atoms: C_11  and  S_12
REMARK    6  A    between atoms: S_12  and  C_13
REMARK    7  A    between atoms: C_15  and  C_16
REMARK    8  A    between atoms: C_15  and  C_17
REMARK                            x       y       z     vdW  Elec       q    Type
REMARK                         _______ _______ _______ _____ _____    ______ ____
ROOT
ATOM      1  C   UNL     1       2.610   7.569  18.644  0.00  0.00    +0.000 A 
ATOM      2  C   UNL     1       3.454   7.470  17.529  0.00  0.00    +0.000 A 
ATOM      3  C   UNL     1       4.157   6.290  17.236  0.00  0.00    +0.000 A 
ATOM      4  C   UNL     1       3.985   5.170  18.041  0.00  0.00    +0.000 A 
ATOM      5  C   UNL     1       3.071   5.239  19.101  0.00  0.00    +0.000 A 
ATOM      6  C   UNL     1       2.378   6.423  19.412  0.00  0.00    +0.000 A 
ATOM      7  C   UNL     1       4.811   3.976  17.730  0.00  0.00    +0.000 C 
ATOM      8  N   UNL     1       5.638   3.897  16.754  0.00  0.00    +0.000 NA
ATOM      9  C   UNL     1       5.833   4.970  15.777  0.00  0.00    +0.000 C 
ATOM     10  C   UNL     1       5.343   4.436  14.424  0.00  0.00    +0.000 C 
ATOM     11  C   UNL     1       7.352   5.212  15.696  0.00  0.00    +0.000 C 
ATOM     12  C   UNL     1       5.136   6.307  16.101  0.00  0.00    +0.000 C 
ENDROOT
BRANCH   1  14
ATOM     13  C   UNL     1       1.669   9.622  17.911  0.00  0.00    +0.000 C 
ATOM     14  O   UNL     1       2.012   8.753  18.989  0.00  0.00    +0.000 OA
ENDBRANCH   1  14
BRANCH   6  15
ATOM     15  O   UNL     1       1.546   6.249  20.486  0.00  0.00    +0.000 OA
ATOM     16  C   UNL     1       1.178   4.937  20.887  0.00  0.00    +0.000 C 
ENDBRANCH   6  15
BRANCH   7  17
ATOM     17  S   UNL     1       4.669   2.580  18.800  0.00  0.00    +0.000 S 
ATOM     18  C   UNL     1       3.248   1.724  18.096  0.00  0.00    +0.000 C 
ENDBRANCH   7  17
TORSDOF 3
ENDMDL
