MODEL 1
REMARK VINA RESULT:      -6.5      0.000      0.000
REMARK  Name = 
REMARK  10 active torsions:
REMARK  status: ('A' for Active; 'I' for Inactive)
REMARK    1  A    between atoms: C_1  and  C_2
REMARK    2  A    between atoms: C_2  and  C_3
REMARK    3  A    between atoms: C_3  and  C_4
REMARK    4  A    between atoms: C_4  and  C_5
REMARK    5  A    between atoms: C_5  and  C_6
REMARK    6  A    between atoms: C_6  and  O_7
REMARK    7  A    between atoms: O_7  and  C_8
REMARK    8  A    between atoms: C_10  and  C_11
REMARK    9  A    between atoms: C_11  and  O_13
REMARK   10  A    between atoms: C_16  and  N_17
REMARK                            x       y       z     vdW  Elec       q    Type
REMARK                         _______ _______ _______ _____ _____    ______ ____
ROOT
ATOM      1  C   UNL     1       4.629   4.326  17.795  0.00  0.00    +0.000 A 
ATOM      2  C   UNL     1       5.391   4.061  16.648  0.00  0.00    +0.000 A 
ATOM      3  C   UNL     1       5.748   5.077  15.764  0.00  0.00    +0.000 A 
ATOM      4  C   UNL     1       5.303   6.366  15.996  0.00  0.00    +0.000 A 
ATOM      5  C   UNL     1       4.500   6.642  17.116  0.00  0.00    +0.000 A 
ATOM      6  C   UNL     1       4.197   5.639  18.056  0.00  0.00    +0.000 A 
ENDROOT
BRANCH   6   7
ATOM      7  N   UNL     1       3.354   5.981  19.123  0.00  0.00    +0.000 N 
ATOM      8  H   UNL     1       3.798   5.952  20.041  0.00  0.00    +0.000 HD
ATOM      9  H   UNL     1       2.481   5.451  19.104  0.00  0.00    +0.000 HD
ENDBRANCH   6   7
BRANCH   3  10
ATOM     10  C   UNL     1       6.658   4.681  14.648  0.00  0.00    +0.000 C 
ATOM     11  O   UNL     1       7.607   5.362  14.304  0.00  0.00    +0.000 OA
BRANCH  10  12
ATOM     12  O   UNL     1       6.365   3.494  14.073  0.00  0.00    +0.000 OA
ATOM     13  H   UNL     1       5.543   3.447  13.558  0.00  0.00    +0.000 HD
ENDBRANCH  10  12
ENDBRANCH   3  10
BRANCH   1  14
ATOM     14  O   UNL     1       4.314   3.302  18.669  0.00  0.00    +0.000 OA
BRANCH  14  15
ATOM     15  C   UNL     1       3.542   2.252  18.058  0.00  0.00    +0.000 C 
BRANCH  15  16
ATOM     16  C   UNL     1       2.158   2.759  17.679  0.00  0.00    +0.000 C 
BRANCH  16  17
ATOM     17  C   UNL     1       1.125   2.322  18.722  0.00  0.00    +0.000 C 
BRANCH  17  18
ATOM     18  C   UNL     1       0.934   3.391  19.795  0.00  0.00    +0.000 C 
BRANCH  18  20
ATOM     19  C   UNL     1       2.590   2.982  21.646  0.00  0.00    +0.000 C 
ATOM     20  C   UNL     1       1.148   2.815  21.194  0.00  0.00    +0.000 C 
ENDBRANCH  18  20
ENDBRANCH  17  18
ENDBRANCH  16  17
ENDBRANCH  15  16
ENDBRANCH  14  15
ENDBRANCH   1  14
TORSDOF 9
ENDMDL
MODEL 2
REMARK VINA RESULT:      -6.1      1.366      1.743
REMARK  Name = 
REMARK  10 active torsions:
REMARK  status: ('A' for Active; 'I' for Inactive)
REMARK    1  A    between atoms: C_1  and  C_2
REMARK    2  A    between atoms: C_2  and  C_3
REMARK    3  A    between atoms: C_3  and  C_4
REMARK    4  A    between atoms: C_4  and  C_5
REMARK    5  A    between atoms: C_5  and  C_6
REMARK    6  A    between atoms: C_6  and  O_7
REMARK    7  A    between atoms: O_7  and  C_8
REMARK    8  A    between atoms: C_10  and  C_11
REMARK    9  A    between atoms: C_11  and  O_13
REMARK   10  A    between atoms: C_16  and  N_17
REMARK                            x       y       z     vdW  Elec       q    Type
REMARK                         _______ _______ _______ _____ _____    ______ ____
ROOT
ATOM      1  C   UNL     1       4.809   4.580  17.230  0.00  0.00    +0.000 A 
ATOM      2  C   UNL     1       5.189   4.602  15.880  0.00  0.00    +0.000 A 
ATOM      3  C   UNL     1       6.531   4.590  15.505  0.00  0.00    +0.000 A 
ATOM      4  C   UNL     1       7.509   4.601  16.482  0.00  0.00    +0.000 A 
ATOM      5  C   UNL     1       7.147   4.625  17.840  0.00  0.00    +0.000 A 
ATOM      6  C   UNL     1       5.796   4.561  18.231  0.00  0.00    +0.000 A 
ENDROOT
BRANCH   6   7
ATOM      7  N   UNL     1       5.512   4.633  19.602  0.00  0.00    +0.000 N 
ATOM      8  H   UNL     1       4.929   3.874  19.956  0.00  0.00    +0.000 HD
ATOM      9  H   UNL     1       5.148   5.550  19.869  0.00  0.00    +0.000 HD
ENDBRANCH   6   7
BRANCH   3  10
ATOM     10  C   UNL     1       6.797   4.497  14.038  0.00  0.00    +0.000 C 
ATOM     11  O   UNL     1       7.459   5.324  13.438  0.00  0.00    +0.000 OA
BRANCH  10  12
ATOM     12  O   UNL     1       6.273   3.406  13.435  0.00  0.00    +0.000 OA
ATOM     13  H   UNL     1       6.579   2.541  13.753  0.00  0.00    +0.000 HD
ENDBRANCH  10  12
ENDBRANCH   3  10
BRANCH   1  14
ATOM     14  O   UNL     1       3.469   4.565  17.571  0.00  0.00    +0.000 OA
BRANCH  14  15
ATOM     15  C   UNL     1       2.778   3.390  17.109  0.00  0.00    +0.000 C 
BRANCH  15  16
ATOM     16  C   UNL     1       3.229   2.164  17.890  0.00  0.00    +0.000 C 
BRANCH  16  17
ATOM     17  C   UNL     1       2.357   1.974  19.135  0.00  0.00    +0.000 C 
BRANCH  17  18
ATOM     18  C   UNL     1       1.085   2.814  19.056  0.00  0.00    +0.000 C 
BRANCH  18  20
ATOM     19  C   UNL     1       1.604   4.813  20.495  0.00  0.00    +0.000 C 
ATOM     20  C   UNL     1       0.808   3.524  20.381  0.00  0.00    +0.000 C 
ENDBRANCH  18  20
ENDBRANCH  17  18
ENDBRANCH  16  17
ENDBRANCH  15  16
ENDBRANCH  14  15
ENDBRANCH   1  14
TORSDOF 9
ENDMDL
MODEL 3
REMARK VINA RESULT:      -6.1      1.401      1.540
REMARK  Name = 
REMARK  10 active torsions:
REMARK  status: ('A' for Active; 'I' for Inactive)
REMARK    1  A    between atoms: C_1  and  C_2
REMARK    2  A    between atoms: C_2  and  C_3
REMARK    3  A    between atoms: C_3  and  C_4
REMARK    4  A    between atoms: C_4  and  C_5
REMARK    5  A    between atoms: C_5  and  C_6
REMARK    6  A    between atoms: C_6  and  O_7
REMARK    7  A    between atoms: O_7  and  C_8
REMARK    8  A    between atoms: C_10  and  C_11
REMARK    9  A    between atoms: C_11  and  O_13
REMARK   10  A    between atoms: C_16  and  N_17
REMARK                            x       y       z     vdW  Elec       q    Type
REMARK                         _______ _______ _______ _____ _____    ______ ____
ROOT
ATOM      1  C   UNL     1       5.104   3.932  17.372  0.00  0.00    +0.000 A 
ATOM      2  C   UNL     1       5.407   3.954  16.002  0.00  0.00    +0.000 A 
ATOM      3  C   UNL     1       6.501   4.664  15.513  0.00  0.00    +0.000 A 
ATOM      4  C   UNL     1       7.279   5.401  16.388  0.00  0.00    +0.000 A 
ATOM      5  C   UNL     1       6.963   5.428  17.757  0.00  0.00    +0.000 A 
ATOM      6  C   UNL     1       5.907   4.654  18.274  0.00  0.00    +0.000 A 
ENDROOT
BRANCH   6   7
ATOM      7  N   UNL     1       5.626   4.768  19.642  0.00  0.00    +0.000 N 
ATOM      8  H   UNL     1       5.688   3.893  20.164  0.00  0.00    +0.000 HD
ATOM      9  H   UNL     1       4.741   5.250  19.811  0.00  0.00    +0.000 HD
ENDBRANCH   6   7
BRANCH   3  10
ATOM     10  C   UNL     1       6.781   4.508  14.054  0.00  0.00    +0.000 C 
ATOM     11  O   UNL     1       7.455   5.304  13.427  0.00  0.00    +0.000 OA
BRANCH  10  12
ATOM     12  O   UNL     1       6.253   3.398  13.492  0.00  0.00    +0.000 OA
ATOM     13  H   UNL     1       6.760   2.575  13.587  0.00  0.00    +0.000 HD
ENDBRANCH  10  12
ENDBRANCH   3  10
BRANCH   1  14
ATOM     14  O   UNL     1       4.028   3.196  17.831  0.00  0.00    +0.000 OA
BRANCH  14  15
ATOM     15  C   UNL     1       2.800   3.495  17.143  0.00  0.00    +0.000 C 
BRANCH  15  16
ATOM     16  C   UNL     1       2.079   4.653  17.817  0.00  0.00    +0.000 C 
BRANCH  16  17
ATOM     17  C   UNL     1       2.035   4.445  19.333  0.00  0.00    +0.000 C 
BRANCH  17  18
ATOM     18  C   UNL     1       0.976   3.415  19.722  0.00  0.00    +0.000 C 
BRANCH  18  20
ATOM     19  C   UNL     1       2.686   2.684  21.418  0.00  0.00    +0.000 C 
ATOM     20  C   UNL     1       1.207   2.893  21.139  0.00  0.00    +0.000 C 
ENDBRANCH  18  20
ENDBRANCH  17  18
ENDBRANCH  16  17
ENDBRANCH  15  16
ENDBRANCH  14  15
ENDBRANCH   1  14
TORSDOF 9
ENDMDL
MODEL 4
REMARK VINA RESULT:      -6.1      2.747      6.109
REMARK  Name = 
REMARK  10 active torsions:
REMARK  status: ('A' for Active; 'I' for Inactive)
REMARK    1  A    between atoms: C_1  and  C_2
REMARK    2  A    between atoms: C_2  and  C_3
REMARK    3  A    between atoms: C_3  and  C_4
REMARK    4  A    between atoms: C_4  and  C_5
REMARK    5  A    between atoms: C_5  and  C_6
REMARK    6  A    between atoms: C_6  and  O_7
REMARK    7  A    between atoms: O_7  and  C_8
REMARK    8  A    between atoms: C_10  and  C_11
REMARK    9  A    between atoms: C_11  and  O_13
REMARK   10  A    between atoms: C_16  and  N_17
REMARK                            x       y       z     vdW  Elec       q    Type
REMARK                         _______ _______ _______ _____ _____    ______ ____
ROOT
ATOM      1  C   UNL     1       5.545   4.727  16.800  0.00  0.00    +0.000 A 
ATOM      2  C   UNL     1       4.364   3.971  16.779  0.00  0.00    +0.000 A 
ATOM      3  C   UNL     1       3.568   3.839  17.915  0.00  0.00    +0.000 A 
ATOM      4  C   UNL     1       3.973   4.427  19.100  0.00  0.00    +0.000 A 
ATOM      5  C   UNL     1       5.177   5.150  19.151  0.00  0.00    +0.000 A 
ATOM      6  C   UNL     1       5.950   5.354  17.992  0.00  0.00    +0.000 A 
ENDROOT
BRANCH   6   7
ATOM      7  N   UNL     1       7.160   6.047  18.132  0.00  0.00    +0.000 N 
ATOM      8  H   UNL     1       7.669   5.845  18.992  0.00  0.00    +0.000 HD
ATOM      9  H   UNL     1       7.044   7.052  17.984  0.00  0.00    +0.000 HD
ENDBRANCH   6   7
BRANCH   3  10
ATOM     10  C   UNL     1       2.279   3.107  17.727  0.00  0.00    +0.000 C 
ATOM     11  O   UNL     1       1.223   3.680  17.530  0.00  0.00    +0.000 OA
BRANCH  10  12
ATOM     12  O   UNL     1       2.383   1.760  17.762  0.00  0.00    +0.000 OA
ATOM     13  H   UNL     1       3.142   1.367  17.300  0.00  0.00    +0.000 HD
ENDBRANCH  10  12
ENDBRANCH   3  10
BRANCH   1  14
ATOM     14  O   UNL     1       6.300   4.863  15.650  0.00  0.00    +0.000 OA
BRANCH  14  15
ATOM     15  C   UNL     1       6.200   3.730  14.768  0.00  0.00    +0.000 C 
BRANCH  15  16
ATOM     16  C   UNL     1       5.678   4.159  13.405  0.00  0.00    +0.000 C 
BRANCH  16  17
ATOM     17  C   UNL     1       6.294   3.294  12.301  0.00  0.00    +0.000 C 
BRANCH  17  18
ATOM     18  C   UNL     1       5.214   2.634  11.446  0.00  0.00    +0.000 C 
BRANCH  18  20
ATOM     19  C   UNL     1       3.272   3.504  10.101  0.00  0.00    +0.000 C 
ATOM     20  C   UNL     1       3.916   3.440  11.476  0.00  0.00    +0.000 C 
ENDBRANCH  18  20
ENDBRANCH  17  18
ENDBRANCH  16  17
ENDBRANCH  15  16
ENDBRANCH  14  15
ENDBRANCH   1  14
TORSDOF 9
ENDMDL
MODEL 5
REMARK VINA RESULT:      -6.0      1.431      1.846
REMARK  Name = 
REMARK  10 active torsions:
REMARK  status: ('A' for Active; 'I' for Inactive)
REMARK    1  A    between atoms: C_1  and  C_2
REMARK    2  A    between atoms: C_2  and  C_3
REMARK    3  A    between atoms: C_3  and  C_4
REMARK    4  A    between atoms: C_4  and  C_5
REMARK    5  A    between atoms: C_5  and  C_6
REMARK    6  A    between atoms: C_6  and  O_7
REMARK    7  A    between atoms: O_7  and  C_8
REMARK    8  A    between atoms: C_10  and  C_11
REMARK    9  A    between atoms: C_11  and  O_13
REMARK   10  A    between atoms: C_16  and  N_17
REMARK                            x       y       z     vdW  Elec       q    Type
REMARK                         _______ _______ _______ _____ _____    ______ ____
ROOT
ATOM      1  C   UNL     1       4.713   4.049  17.226  0.00  0.00    +0.000 A 
ATOM      2  C   UNL     1       5.054   4.116  15.867  0.00  0.00    +0.000 A 
ATOM      3  C   UNL     1       6.333   4.489  15.459  0.00  0.00    +0.000 A 
ATOM      4  C   UNL     1       7.273   4.844  16.409  0.00  0.00    +0.000 A 
ATOM      5  C   UNL     1       6.935   4.827  17.773  0.00  0.00    +0.000 A 
ATOM      6  C   UNL     1       5.671   4.378  18.202  0.00  0.00    +0.000 A 
ENDROOT
BRANCH   6   7
ATOM      7  N   UNL     1       5.393   4.432  19.574  0.00  0.00    +0.000 N 
ATOM      8  H   UNL     1       4.428   4.672  19.804  0.00  0.00    +0.000 HD
ATOM      9  H   UNL     1       6.062   5.018  20.077  0.00  0.00    +0.000 HD
ENDBRANCH   6   7
BRANCH   3  10
ATOM     10  C   UNL     1       6.599   4.407  13.991  0.00  0.00    +0.000 C 
ATOM     11  O   UNL     1       6.016   3.624  13.263  0.00  0.00    +0.000 OA
BRANCH  10  12
ATOM     12  O   UNL     1       7.513   5.290  13.531  0.00  0.00    +0.000 OA
ATOM     13  H   UNL     1       7.508   5.468  12.576  0.00  0.00    +0.000 HD
ENDBRANCH  10  12
ENDBRANCH   3  10
BRANCH   1  14
ATOM     14  O   UNL     1       3.444   3.648  17.602  0.00  0.00    +0.000 OA
BRANCH  14  15
ATOM     15  C   UNL     1       3.344   2.235  17.849  0.00  0.00    +0.000 C 
BRANCH  15  16
ATOM     16  C   UNL     1       2.121   1.927  18.701  0.00  0.00    +0.000 C 
BRANCH  16  17
ATOM     17  C   UNL     1       1.182   3.135  18.743  0.00  0.00    +0.000 C 
BRANCH  17  18
ATOM     18  C   UNL     1       0.853   3.534  20.180  0.00  0.00    +0.000 C 
BRANCH  18  20
ATOM     19  C   UNL     1       1.869   5.805  20.561  0.00  0.00    +0.000 C 
ATOM     20  C   UNL     1       2.005   4.313  20.815  0.00  0.00    +0.000 C 
ENDBRANCH  18  20
ENDBRANCH  17  18
ENDBRANCH  16  17
ENDBRANCH  15  16
ENDBRANCH  14  15
ENDBRANCH   1  14
TORSDOF 9
ENDMDL
MODEL 6
REMARK VINA RESULT:      -6.0      1.465      1.924
REMARK  Name = 
REMARK  10 active torsions:
REMARK  status: ('A' for Active; 'I' for Inactive)
REMARK    1  A    between atoms: C_1  and  C_2
REMARK    2  A    between atoms: C_2  and  C_3
REMARK    3  A    between atoms: C_3  and  C_4
REMARK    4  A    between atoms: C_4  and  C_5
REMARK    5  A    between atoms: C_5  and  C_6
REMARK    6  A    between atoms: C_6  and  O_7
REMARK    7  A    between atoms: O_7  and  C_8
REMARK    8  A    between atoms: C_10  and  C_11
REMARK    9  A    between atoms: C_11  and  O_13
REMARK   10  A    between atoms: C_16  and  N_17
REMARK                            x       y       z     vdW  Elec       q    Type
REMARK                         _______ _______ _______ _____ _____    ______ ____
ROOT
ATOM      1  C   UNL     1       5.064   4.114  17.185  0.00  0.00    +0.000 A 
ATOM      2  C   UNL     1       5.297   4.166  15.803  0.00  0.00    +0.000 A 
ATOM      3  C   UNL     1       6.544   4.519  15.291  0.00  0.00    +0.000 A 
ATOM      4  C   UNL     1       7.560   4.869  16.160  0.00  0.00    +0.000 A 
ATOM      5  C   UNL     1       7.332   4.867  17.547  0.00  0.00    +0.000 A 
ATOM      6  C   UNL     1       6.101   4.439  18.079  0.00  0.00    +0.000 A 
ENDROOT
BRANCH   6   7
ATOM      7  N   UNL     1       5.933   4.507  19.468  0.00  0.00    +0.000 N 
ATOM      8  H   UNL     1       6.783   4.726  19.989  0.00  0.00    +0.000 HD
ATOM      9  H   UNL     1       5.463   3.679  19.838  0.00  0.00    +0.000 HD
ENDBRANCH   6   7
BRANCH   3  10
ATOM     10  C   UNL     1       6.691   4.421  13.808  0.00  0.00    +0.000 C 
ATOM     11  O   UNL     1       6.061   3.623  13.138  0.00  0.00    +0.000 OA
BRANCH  10  12
ATOM     12  O   UNL     1       7.553   5.308  13.265  0.00  0.00    +0.000 OA
ATOM     13  H   UNL     1       8.445   5.343  13.648  0.00  0.00    +0.000 HD
ENDBRANCH  10  12
ENDBRANCH   3  10
BRANCH   1  14
ATOM     14  O   UNL     1       3.824   3.734  17.664  0.00  0.00    +0.000 OA
BRANCH  14  15
ATOM     15  C   UNL     1       2.876   4.815  17.709  0.00  0.00    +0.000 C 
BRANCH  15  16
ATOM     16  C   UNL     1       1.493   4.298  18.075  0.00  0.00    +0.000 C 
BRANCH  16  17
ATOM     17  C   UNL     1       1.511   2.773  18.211  0.00  0.00    +0.000 C 
BRANCH  17  18
ATOM     18  C   UNL     1       1.229   2.340  19.647  0.00  0.00    +0.000 C 
BRANCH  18  20
ATOM     19  C   UNL     1       2.141   3.497  21.688  0.00  0.00    +0.000 C 
ATOM     20  C   UNL     1       1.107   3.548  20.575  0.00  0.00    +0.000 C 
ENDBRANCH  18  20
ENDBRANCH  17  18
ENDBRANCH  16  17
ENDBRANCH  15  16
ENDBRANCH  14  15
ENDBRANCH   1  14
TORSDOF 9
ENDMDL
MODEL 7
REMARK VINA RESULT:      -6.0      0.949      1.728
REMARK  Name = 
REMARK  10 active torsions:
REMARK  status: ('A' for Active; 'I' for Inactive)
REMARK    1  A    between atoms: C_1  and  C_2
REMARK    2  A    between atoms: C_2  and  C_3
REMARK    3  A    between atoms: C_3  and  C_4
REMARK    4  A    between atoms: C_4  and  C_5
REMARK    5  A    between atoms: C_5  and  C_6
REMARK    6  A    between atoms: C_6  and  O_7
REMARK    7  A    between atoms: O_7  and  C_8
REMARK    8  A    between atoms: C_10  and  C_11
REMARK    9  A    between atoms: C_11  and  O_13
REMARK   10  A    between atoms: C_16  and  N_17
REMARK                            x       y       z     vdW  Elec       q    Type
REMARK                         _______ _______ _______ _____ _____    ______ ____
ROOT
ATOM      1  C   UNL     1       5.264   4.556  18.401  0.00  0.00    +0.000 A 
ATOM      2  C   UNL     1       5.898   4.312  17.174  0.00  0.00    +0.000 A 
ATOM      3  C   UNL     1       5.789   5.207  16.112  0.00  0.00    +0.000 A 
ATOM      4  C   UNL     1       5.003   6.336  16.253  0.00  0.00    +0.000 A 
ATOM      5  C   UNL     1       4.323   6.574  17.460  0.00  0.00    +0.000 A 
ATOM      6  C   UNL     1       4.487   5.717  18.565  0.00  0.00    +0.000 A 
ENDROOT
BRANCH   6   7
ATOM      7  N   UNL     1       3.742   5.995  19.720  0.00  0.00    +0.000 N 
ATOM      8  H   UNL     1       4.181   5.697  20.591  0.00  0.00    +0.000 HD
ATOM      9  H   UNL     1       2.780   5.659  19.644  0.00  0.00    +0.000 HD
ENDBRANCH   6   7
BRANCH   3  10
ATOM     10  C   UNL     1       6.607   4.888  14.904  0.00  0.00    +0.000 C 
ATOM     11  O   UNL     1       7.685   5.411  14.685  0.00  0.00    +0.000 OA
BRANCH  10  12
ATOM     12  O   UNL     1       6.073   3.951  14.090  0.00  0.00    +0.000 OA
ATOM     13  H   UNL     1       5.190   3.621  14.322  0.00  0.00    +0.000 HD
ENDBRANCH  10  12
ENDBRANCH   3  10
BRANCH   1  14
ATOM     14  O   UNL     1       5.413   3.663  19.446  0.00  0.00    +0.000 OA
BRANCH  14  15
ATOM     15  C   UNL     1       4.485   2.565  19.392  0.00  0.00    +0.000 C 
BRANCH  15  16
ATOM     16  C   UNL     1       4.015   2.192  20.790  0.00  0.00    +0.000 C 
BRANCH  16  17
ATOM     17  C   UNL     1       2.660   2.839  21.088  0.00  0.00    +0.000 C 
BRANCH  17  18
ATOM     18  C   UNL     1       1.620   2.460  20.036  0.00  0.00    +0.000 C 
BRANCH  18  20
ATOM     19  C   UNL     1       1.384   3.881  17.972  0.00  0.00    +0.000 C 
ATOM     20  C   UNL     1       0.974   3.702  19.424  0.00  0.00    +0.000 C 
ENDBRANCH  18  20
ENDBRANCH  17  18
ENDBRANCH  16  17
ENDBRANCH  15  16
ENDBRANCH  14  15
ENDBRANCH   1  14
TORSDOF 9
ENDMDL
MODEL 8
REMARK VINA RESULT:      -6.0      2.320      3.469
REMARK  Name = 
REMARK  10 active torsions:
REMARK  status: ('A' for Active; 'I' for Inactive)
REMARK    1  A    between atoms: C_1  and  C_2
REMARK    2  A    between atoms: C_2  and  C_3
REMARK    3  A    between atoms: C_3  and  C_4
REMARK    4  A    between atoms: C_4  and  C_5
REMARK    5  A    between atoms: C_5  and  C_6
REMARK    6  A    between atoms: C_6  and  O_7
REMARK    7  A    between atoms: O_7  and  C_8
REMARK    8  A    between atoms: C_10  and  C_11
REMARK    9  A    between atoms: C_11  and  O_13
REMARK   10  A    between atoms: C_16  and  N_17
REMARK                            x       y       z     vdW  Elec       q    Type
REMARK                         _______ _______ _______ _____ _____    ______ ____
ROOT
ATOM      1  C   UNL     1       4.299   4.334  17.762  0.00  0.00    +0.000 A 
ATOM      2  C   UNL     1       3.534   5.397  18.263  0.00  0.00    +0.000 A 
ATOM      3  C   UNL     1       3.603   6.669  17.698  0.00  0.00    +0.000 A 
ATOM      4  C   UNL     1       4.477   6.900  16.651  0.00  0.00    +0.000 A 
ATOM      5  C   UNL     1       5.285   5.858  16.167  0.00  0.00    +0.000 A 
ATOM      6  C   UNL     1       5.169   4.552  16.679  0.00  0.00    +0.000 A 
ENDROOT
BRANCH   6   7
ATOM      7  N   UNL     1       6.040   3.576  16.175  0.00  0.00    +0.000 N 
ATOM      8  H   UNL     1       6.899   3.455  16.713  0.00  0.00    +0.000 HD
ATOM      9  H   UNL     1       6.229   3.708  15.180  0.00  0.00    +0.000 HD
ENDBRANCH   6   7
BRANCH   3  10
ATOM     10  C   UNL     1       2.650   7.680  18.248  0.00  0.00    +0.000 C 
ATOM     11  O   UNL     1       2.203   7.611  19.378  0.00  0.00    +0.000 OA
BRANCH  10  12
ATOM     12  O   UNL     1       2.350   8.692  17.405  0.00  0.00    +0.000 OA
ATOM     13  H   UNL     1       2.515   9.594  17.726  0.00  0.00    +0.000 HD
ENDBRANCH  10  12
ENDBRANCH   3  10
BRANCH   1  14
ATOM     14  O   UNL     1       4.189   3.076  18.326  0.00  0.00    +0.000 OA
BRANCH  14  15
ATOM     15  C   UNL     1       3.132   2.287  17.753  0.00  0.00    +0.000 C 
BRANCH  15  16
ATOM     16  C   UNL     1       2.163   1.827  18.832  0.00  0.00    +0.000 C 
BRANCH  16  17
ATOM     17  C   UNL     1       0.845   2.599  18.731  0.00  0.00    +0.000 C 
BRANCH  17  18
ATOM     18  C   UNL     1       0.634   3.500  19.945  0.00  0.00    +0.000 C 
BRANCH  18  20
ATOM     19  C   UNL     1       2.443   4.060  21.604  0.00  0.00    +0.000 C 
ATOM     20  C   UNL     1       1.445   3.010  21.145  0.00  0.00    +0.000 C 
ENDBRANCH  18  20
ENDBRANCH  17  18
ENDBRANCH  16  17
ENDBRANCH  15  16
ENDBRANCH  14  15
ENDBRANCH   1  14
TORSDOF 9
ENDMDL
MODEL 9
REMARK VINA RESULT:      -6.0      0.576      1.010
REMARK  Name = 
REMARK  10 active torsions:
REMARK  status: ('A' for Active; 'I' for Inactive)
REMARK    1  A    between atoms: C_1  and  C_2
REMARK    2  A    between atoms: C_2  and  C_3
REMARK    3  A    between atoms: C_3  and  C_4
REMARK    4  A    between atoms: C_4  and  C_5
REMARK    5  A    between atoms: C_5  and  C_6
REMARK    6  A    between atoms: C_6  and  O_7
REMARK    7  A    between atoms: O_7  and  C_8
REMARK    8  A    between atoms: C_10  and  C_11
REMARK    9  A    between atoms: C_11  and  O_13
REMARK   10  A    between atoms: C_16  and  N_17
REMARK                            x       y       z     vdW  Elec       q    Type
REMARK                         _______ _______ _______ _____ _____    ______ ____
ROOT
ATOM      1  C   UNL     1       4.444   4.396  17.411  0.00  0.00    +0.000 A 
ATOM      2  C   UNL     1       5.226   4.120  16.280  0.00  0.00    +0.000 A 
ATOM      3  C   UNL     1       5.716   5.143  15.471  0.00  0.00    +0.000 A 
ATOM      4  C   UNL     1       5.389   6.455  15.762  0.00  0.00    +0.000 A 
ATOM      5  C   UNL     1       4.568   6.747  16.865  0.00  0.00    +0.000 A 
ATOM      6  C   UNL     1       4.130   5.729  17.733  0.00  0.00    +0.000 A 
ENDROOT
BRANCH   6   7
ATOM      7  N   UNL     1       3.279   6.093  18.785  0.00  0.00    +0.000 N 
ATOM      8  H   UNL     1       3.603   6.886  19.340  0.00  0.00    +0.000 HD
ATOM      9  H   UNL     1       3.032   5.293  19.372  0.00  0.00    +0.000 HD
ENDBRANCH   6   7
BRANCH   3  10
ATOM     10  C   UNL     1       6.632   4.721  14.369  0.00  0.00    +0.000 C 
ATOM     11  O   UNL     1       6.362   3.812  13.605  0.00  0.00    +0.000 OA
BRANCH  10  12
ATOM     12  O   UNL     1       7.767   5.447  14.267  0.00  0.00    +0.000 OA
ATOM     13  H   UNL     1       8.215   5.441  13.405  0.00  0.00    +0.000 HD
ENDBRANCH  10  12
ENDBRANCH   3  10
BRANCH   1  14
ATOM     14  O   UNL     1       3.994   3.361  18.211  0.00  0.00    +0.000 OA
BRANCH  14  15
ATOM     15  C   UNL     1       2.883   2.646  17.642  0.00  0.00    +0.000 C 
BRANCH  15  16
ATOM     16  C   UNL     1       2.098   1.927  18.729  0.00  0.00    +0.000 C 
BRANCH  16  17
ATOM     17  C   UNL     1       0.744   2.608  18.948  0.00  0.00    +0.000 C 
BRANCH  17  18
ATOM     18  C   UNL     1       0.846   3.731  19.977  0.00  0.00    +0.000 C 
BRANCH  18  20
ATOM     19  C   UNL     1       1.418   2.456  22.071  0.00  0.00    +0.000 C 
ATOM     20  C   UNL     1       1.923   3.429  21.019  0.00  0.00    +0.000 C 
ENDBRANCH  18  20
ENDBRANCH  17  18
ENDBRANCH  16  17
ENDBRANCH  15  16
ENDBRANCH  14  15
ENDBRANCH   1  14
TORSDOF 9
ENDMDL
