MODEL 1
REMARK VINA RESULT:      -7.1      0.000      0.000
REMARK  Name = 
REMARK  6 active torsions:
REMARK  status: ('A' for Active; 'I' for Inactive)
REMARK    1  A    between atoms: C_1  and  O_2
REMARK    2  A    between atoms: O_2  and  C_3
REMARK    3  A    between atoms: C_7  and  C_8
REMARK    4  A    between atoms: N_13  and  C_14
REMARK    5  A    between atoms: C_33  and  O_34
REMARK    6  A    between atoms: O_34  and  C_35
REMARK                            x       y       z     vdW  Elec       q    Type
REMARK                         _______ _______ _______ _____ _____    ______ ____
ROOT
ATOM      1  C   UNL     1      -3.075  13.109  20.163  0.00  0.00    +0.000 C 
ATOM      2  C   UNL     1      -3.639  13.827  21.407  0.00  0.00    +0.000 A 
ATOM      3  C   UNL     1      -4.885  13.581  21.843  0.00  0.00    +0.000 A 
ATOM      4  N   UNL     1      -5.397  13.978  23.071  0.00  0.00    +0.000 NA
ATOM      5  C   UNL     1      -4.587  14.622  23.849  0.00  0.00    +0.000 A 
ATOM      6  N   UNL     1      -3.304  15.053  23.568  0.00  0.00    +0.000 N 
ATOM      7  C   UNL     1      -2.799  14.739  22.287  0.00  0.00    +0.000 A 
ATOM      8  N   UNL     1      -1.703  15.182  21.752  0.00  0.00    +0.000 NA
ATOM      9  O   UNL     1      -5.754  12.840  21.045  0.00  0.00    +0.000 OA
ATOM     10  C   UNL     1      -5.295  12.351  19.843  0.00  0.00    +0.000 A 
ATOM     11  C   UNL     1      -6.050  12.619  18.731  0.00  0.00    +0.000 A 
ATOM     12  C   UNL     1      -5.535  12.285  17.479  0.00  0.00    +0.000 A 
ATOM     13  C   UNL     1      -4.311  11.609  17.279  0.00  0.00    +0.000 A 
ATOM     14  C   UNL     1      -3.863  11.413  15.967  0.00  0.00    +0.000 A 
ATOM     15  C   UNL     1      -2.654  10.802  15.690  0.00  0.00    +0.000 A 
ATOM     16  C   UNL     1      -2.474   9.697  16.449  0.00  0.00    +0.000 A 
ATOM     17  C   UNL     1      -2.645   9.984  17.828  0.00  0.00    +0.000 A 
ATOM     18  C   UNL     1      -3.549  11.140  18.340  0.00  0.00    +0.000 A 
ATOM     19  C   UNL     1      -3.983  11.867  19.637  0.00  0.00    +0.000 A 
ATOM     20  H   UNL     1      -1.185  15.779  22.386  0.00  0.00    +0.000 HD
ENDROOT
BRANCH   1  25
ATOM     21  C   UNL     1       0.669  12.554  20.085  0.00  0.00    +0.000 A 
ATOM     22  C   UNL     1       0.766  11.720  21.218  0.00  0.00    +0.000 A 
ATOM     23  C   UNL     1      -0.364  11.269  21.889  0.00  0.00    +0.000 A 
ATOM     24  C   UNL     1      -1.591  11.653  21.493  0.00  0.00    +0.000 A 
ATOM     25  C   UNL     1      -1.706  12.592  20.444  0.00  0.00    +0.000 A 
ATOM     26  C   UNL     1      -0.588  13.076  19.749  0.00  0.00    +0.000 A 
BRANCH  21  28
ATOM     27  C   UNL     1       2.116  11.934  18.306  0.00  0.00    +0.000 C 
ATOM     28  O   UNL     1       1.798  12.863  19.362  0.00  0.00    +0.000 OA
ENDBRANCH  21  28
BRANCH  26  29
ATOM     29  O   UNL     1      -0.936  14.061  18.862  0.00  0.00    +0.000 OA
ATOM     30  C   UNL     1      -0.153  15.222  18.758  0.00  0.00    +0.000 C 
ENDBRANCH  26  29
ENDBRANCH   1  25
BRANCH   6  31
ATOM     31  C   UNL     1      -2.594  15.856  24.547  0.00  0.00    +0.000 A 
ATOM     32  C   UNL     1      -2.771  17.230  24.690  0.00  0.00    +0.000 A 
ATOM     33  C   UNL     1      -1.998  18.003  25.609  0.00  0.00    +0.000 A 
ATOM     34  C   UNL     1      -1.093  17.365  26.439  0.00  0.00    +0.000 A 
ATOM     35  C   UNL     1      -0.921  15.993  26.341  0.00  0.00    +0.000 A 
ATOM     36  C   UNL     1      -1.652  15.241  25.386  0.00  0.00    +0.000 A 
ENDBRANCH   6  31
TORSDOF 4
ENDMDL
MODEL 2
REMARK VINA RESULT:      -6.7      3.178      7.334
REMARK  Name = 
REMARK  6 active torsions:
REMARK  status: ('A' for Active; 'I' for Inactive)
REMARK    1  A    between atoms: C_1  and  O_2
REMARK    2  A    between atoms: O_2  and  C_3
REMARK    3  A    between atoms: C_7  and  C_8
REMARK    4  A    between atoms: N_13  and  C_14
REMARK    5  A    between atoms: C_33  and  O_34
REMARK    6  A    between atoms: O_34  and  C_35
REMARK                            x       y       z     vdW  Elec       q    Type
REMARK                         _______ _______ _______ _____ _____    ______ ____
ROOT
ATOM      1  C   UNL     1      -1.669  14.581  20.058  0.00  0.00    +0.000 C 
ATOM      2  C   UNL     1      -0.436  13.879  19.452  0.00  0.00    +0.000 A 
ATOM      3  C   UNL     1       0.640  14.583  19.065  0.00  0.00    +0.000 A 
ATOM      4  N   UNL     1       1.877  14.041  18.742  0.00  0.00    +0.000 NA
ATOM      5  C   UNL     1       1.985  12.754  18.843  0.00  0.00    +0.000 A 
ATOM      6  N   UNL     1       0.989  11.841  19.137  0.00  0.00    +0.000 N 
ATOM      7  C   UNL     1      -0.299  12.367  19.378  0.00  0.00    +0.000 A 
ATOM      8  N   UNL     1      -1.403  11.697  19.502  0.00  0.00    +0.000 NA
ATOM      9  O   UNL     1       0.563  15.973  19.004  0.00  0.00    +0.000 OA
ATOM     10  C   UNL     1      -0.610  16.587  19.378  0.00  0.00    +0.000 A 
ATOM     11  C   UNL     1      -1.153  17.486  18.497  0.00  0.00    +0.000 A 
ATOM     12  C   UNL     1      -2.420  18.002  18.766  0.00  0.00    +0.000 A 
ATOM     13  C   UNL     1      -3.159  17.722  19.936  0.00  0.00    +0.000 A 
ATOM     14  C   UNL     1      -4.458  18.232  20.044  0.00  0.00    +0.000 A 
ATOM     15  C   UNL     1      -5.261  17.963  21.136  0.00  0.00    +0.000 A 
ATOM     16  C   UNL     1      -4.577  18.093  22.296  0.00  0.00    +0.000 A 
ATOM     17  C   UNL     1      -3.388  17.321  22.283  0.00  0.00    +0.000 A 
ATOM     18  C   UNL     1      -2.634  16.961  20.971  0.00  0.00    +0.000 A 
ATOM     19  C   UNL     1      -1.430  16.144  20.441  0.00  0.00    +0.000 A 
ATOM     20  H   UNL     1      -1.248  10.697  19.449  0.00  0.00    +0.000 HD
ENDROOT
BRANCH   1  25
ATOM     21  C   UNL     1      -3.741  12.657  22.576  0.00  0.00    +0.000 A 
ATOM     22  C   UNL     1      -2.716  12.394  23.511  0.00  0.00    +0.000 A 
ATOM     23  C   UNL     1      -1.445  12.936  23.369  0.00  0.00    +0.000 A 
ATOM     24  C   UNL     1      -1.144  13.701  22.304  0.00  0.00    +0.000 A 
ATOM     25  C   UNL     1      -2.113  13.869  21.290  0.00  0.00    +0.000 A 
ATOM     26  C   UNL     1      -3.404  13.331  21.394  0.00  0.00    +0.000 A 
BRANCH  21  28
ATOM     27  C   UNL     1      -5.734  12.975  23.827  0.00  0.00    +0.000 C 
ATOM     28  O   UNL     1      -5.022  12.223  22.823  0.00  0.00    +0.000 OA
ENDBRANCH  21  28
BRANCH  26  29
ATOM     29  O   UNL     1      -4.121  13.521  20.242  0.00  0.00    +0.000 OA
ATOM     30  C   UNL     1      -5.289  14.302  20.260  0.00  0.00    +0.000 C 
ENDBRANCH  26  29
ENDBRANCH   1  25
BRANCH   6  31
ATOM     31  C   UNL     1       1.295  10.422  19.102  0.00  0.00    +0.000 A 
ATOM     32  C   UNL     1       1.132   9.573  20.192  0.00  0.00    +0.000 A 
ATOM     33  C   UNL     1       1.518   8.199  20.148  0.00  0.00    +0.000 A 
ATOM     34  C   UNL     1       2.003   7.667  18.965  0.00  0.00    +0.000 A 
ATOM     35  C   UNL     1       2.144   8.484  17.854  0.00  0.00    +0.000 A 
ATOM     36  C   UNL     1       1.811   9.861  17.924  0.00  0.00    +0.000 A 
ENDBRANCH   6  31
TORSDOF 4
ENDMDL
MODEL 3
REMARK VINA RESULT:      -6.7      2.574      6.686
REMARK  Name = 
REMARK  6 active torsions:
REMARK  status: ('A' for Active; 'I' for Inactive)
REMARK    1  A    between atoms: C_1  and  O_2
REMARK    2  A    between atoms: O_2  and  C_3
REMARK    3  A    between atoms: C_7  and  C_8
REMARK    4  A    between atoms: N_13  and  C_14
REMARK    5  A    between atoms: C_33  and  O_34
REMARK    6  A    between atoms: O_34  and  C_35
REMARK                            x       y       z     vdW  Elec       q    Type
REMARK                         _______ _______ _______ _____ _____    ______ ____
ROOT
ATOM      1  C   UNL     1      -4.073  12.630  21.046  0.00  0.00    +0.000 C 
ATOM      2  C   UNL     1      -3.368  11.993  19.831  0.00  0.00    +0.000 A 
ATOM      3  C   UNL     1      -4.026  11.790  18.677  0.00  0.00    +0.000 A 
ATOM      4  N   UNL     1      -3.434  11.458  17.466  0.00  0.00    +0.000 NA
ATOM      5  C   UNL     1      -2.143  11.355  17.467  0.00  0.00    +0.000 A 
ATOM      6  N   UNL     1      -1.287  11.437  18.549  0.00  0.00    +0.000 N 
ATOM      7  C   UNL     1      -1.880  11.682  19.806  0.00  0.00    +0.000 A 
ATOM      8  N   UNL     1      -1.300  11.629  20.966  0.00  0.00    +0.000 NA
ATOM      9  O   UNL     1      -5.409  11.952  18.641  0.00  0.00    +0.000 OA
ATOM     10  C   UNL     1      -6.059  12.350  19.787  0.00  0.00    +0.000 A 
ATOM     11  C   UNL     1      -7.129  11.596  20.191  0.00  0.00    +0.000 A 
ATOM     12  C   UNL     1      -7.707  11.869  21.431  0.00  0.00    +0.000 A 
ATOM     13  C   UNL     1      -7.313  12.931  22.273  0.00  0.00    +0.000 A 
ATOM     14  C   UNL     1      -7.914  13.042  23.533  0.00  0.00    +0.000 A 
ATOM     15  C   UNL     1      -7.549  14.026  24.433  0.00  0.00    +0.000 A 
ATOM     16  C   UNL     1      -7.434  15.231  23.828  0.00  0.00    +0.000 A 
ATOM     17  C   UNL     1      -6.571  15.163  22.705  0.00  0.00    +0.000 A 
ATOM     18  C   UNL     1      -6.356  13.858  21.887  0.00  0.00    +0.000 A 
ATOM     19  C   UNL     1      -5.529  13.275  20.715  0.00  0.00    +0.000 A 
ATOM     20  H   UNL     1      -0.311  11.423  20.886  0.00  0.00    +0.000 HD
ENDROOT
BRANCH   1  25
ATOM     21  C   UNL     1      -1.933  14.651  23.427  0.00  0.00    +0.000 A 
ATOM     22  C   UNL     1      -1.477  15.618  22.506  0.00  0.00    +0.000 A 
ATOM     23  C   UNL     1      -1.957  15.665  21.203  0.00  0.00    +0.000 A 
ATOM     24  C   UNL     1      -2.848  14.755  20.770  0.00  0.00    +0.000 A 
ATOM     25  C   UNL     1      -3.218  13.700  21.634  0.00  0.00    +0.000 A 
ATOM     26  C   UNL     1      -2.750  13.615  22.952  0.00  0.00    +0.000 A 
BRANCH  21  28
ATOM     27  C   UNL     1      -1.216  16.048  25.209  0.00  0.00    +0.000 C 
ATOM     28  O   UNL     1      -1.546  14.723  24.745  0.00  0.00    +0.000 OA
ENDBRANCH  21  28
BRANCH  26  29
ATOM     29  O   UNL     1      -3.146  12.448  23.552  0.00  0.00    +0.000 OA
ATOM     30  C   UNL     1      -4.128  12.471  24.556  0.00  0.00    +0.000 C 
ENDBRANCH  26  29
ENDBRANCH   1  25
BRANCH   6  31
ATOM     31  C   UNL     1       0.131  11.189  18.353  0.00  0.00    +0.000 A 
ATOM     32  C   UNL     1       1.096  12.191  18.372  0.00  0.00    +0.000 A 
ATOM     33  C   UNL     1       2.472  11.925  18.096  0.00  0.00    +0.000 A 
ATOM     34  C   UNL     1       2.879  10.621  17.873  0.00  0.00    +0.000 A 
ATOM     35  C   UNL     1       1.942   9.599  17.881  0.00  0.00    +0.000 A 
ATOM     36  C   UNL     1       0.570   9.881  18.100  0.00  0.00    +0.000 A 
ENDBRANCH   6  31
TORSDOF 4
ENDMDL
MODEL 4
REMARK VINA RESULT:      -6.2      1.175      1.858
REMARK  Name = 
REMARK  6 active torsions:
REMARK  status: ('A' for Active; 'I' for Inactive)
REMARK    1  A    between atoms: C_1  and  O_2
REMARK    2  A    between atoms: O_2  and  C_3
REMARK    3  A    between atoms: C_7  and  C_8
REMARK    4  A    between atoms: N_13  and  C_14
REMARK    5  A    between atoms: C_33  and  O_34
REMARK    6  A    between atoms: O_34  and  C_35
REMARK                            x       y       z     vdW  Elec       q    Type
REMARK                         _______ _______ _______ _____ _____    ______ ____
ROOT
ATOM      1  C   UNL     1      -2.855  13.251  19.899  0.00  0.00    +0.000 C 
ATOM      2  C   UNL     1      -3.294  13.953  21.200  0.00  0.00    +0.000 A 
ATOM      3  C   UNL     1      -4.423  13.594  21.834  0.00  0.00    +0.000 A 
ATOM      4  N   UNL     1      -4.778  13.981  23.119  0.00  0.00    +0.000 NA
ATOM      5  C   UNL     1      -3.933  14.737  23.745  0.00  0.00    +0.000 A 
ATOM      6  N   UNL     1      -2.765  15.290  23.254  0.00  0.00    +0.000 N 
ATOM      7  C   UNL     1      -2.434  14.982  21.917  0.00  0.00    +0.000 A 
ATOM      8  N   UNL     1      -1.489  15.516  21.205  0.00  0.00    +0.000 NA
ATOM      9  O   UNL     1      -5.319  12.735  21.200  0.00  0.00    +0.000 OA
ATOM     10  C   UNL     1      -5.000  12.251  19.952  0.00  0.00    +0.000 A 
ATOM     11  C   UNL     1      -5.944  12.395  18.967  0.00  0.00    +0.000 A 
ATOM     12  C   UNL     1      -5.596  12.069  17.657  0.00  0.00    +0.000 A 
ATOM     13  C   UNL     1      -4.351  11.519  17.280  0.00  0.00    +0.000 A 
ATOM     14  C   UNL     1      -4.094  11.321  15.918  0.00  0.00    +0.000 A 
ATOM     15  C   UNL     1      -2.883  10.831  15.466  0.00  0.00    +0.000 A 
ATOM     16  C   UNL     1      -2.466   9.781  16.210  0.00  0.00    +0.000 A 
ATOM     17  C   UNL     1      -2.451  10.101  17.592  0.00  0.00    +0.000 A 
ATOM     18  C   UNL     1      -3.387  11.174  18.216  0.00  0.00    +0.000 A 
ATOM     19  C   UNL     1      -3.691  11.901  19.550  0.00  0.00    +0.000 A 
ATOM     20  H   UNL     1      -0.949  16.188  21.735  0.00  0.00    +0.000 HD
ENDROOT
BRANCH   1  25
ATOM     21  C   UNL     1       0.441  11.703  20.934  0.00  0.00    +0.000 A 
ATOM     22  C   UNL     1       1.217  12.148  19.843  0.00  0.00    +0.000 A 
ATOM     23  C   UNL     1       0.701  13.017  18.889  0.00  0.00    +0.000 A 
ATOM     24  C   UNL     1      -0.579  13.428  18.962  0.00  0.00    +0.000 A 
ATOM     25  C   UNL     1      -1.410  12.892  19.970  0.00  0.00    +0.000 A 
ATOM     26  C   UNL     1      -0.928  12.007  20.945  0.00  0.00    +0.000 A 
BRANCH  21  28
ATOM     27  C   UNL     1       1.055   9.539  21.697  0.00  0.00    +0.000 C 
ATOM     28  O   UNL     1       1.026  10.961  21.934  0.00  0.00    +0.000 OA
ENDBRANCH  21  28
BRANCH  26  29
ATOM     29  O   UNL     1      -1.940  11.532  21.737  0.00  0.00    +0.000 OA
ATOM     30  C   UNL     1      -1.787  11.502  23.132  0.00  0.00    +0.000 C 
ENDBRANCH  26  29
ENDBRANCH   1  25
BRANCH   6  31
ATOM     31  C   UNL     1      -2.004  16.200  24.091  0.00  0.00    +0.000 A 
ATOM     32  C   UNL     1      -2.036  17.584  23.949  0.00  0.00    +0.000 A 
ATOM     33  C   UNL     1      -1.214  18.447  24.736  0.00  0.00    +0.000 A 
ATOM     34  C   UNL     1      -0.410  17.905  25.723  0.00  0.00    +0.000 A 
ATOM     35  C   UNL     1      -0.385  16.531  25.908  0.00  0.00    +0.000 A 
ATOM     36  C   UNL     1      -1.161  15.677  25.084  0.00  0.00    +0.000 A 
ENDBRANCH   6  31
TORSDOF 4
ENDMDL
MODEL 5
REMARK VINA RESULT:      -6.2      3.090      7.074
REMARK  Name = 
REMARK  6 active torsions:
REMARK  status: ('A' for Active; 'I' for Inactive)
REMARK    1  A    between atoms: C_1  and  O_2
REMARK    2  A    between atoms: O_2  and  C_3
REMARK    3  A    between atoms: C_7  and  C_8
REMARK    4  A    between atoms: N_13  and  C_14
REMARK    5  A    between atoms: C_33  and  O_34
REMARK    6  A    between atoms: O_34  and  C_35
REMARK                            x       y       z     vdW  Elec       q    Type
REMARK                         _______ _______ _______ _____ _____    ______ ____
ROOT
ATOM      1  C   UNL     1      -2.603  14.897  20.628  0.00  0.00    +0.000 C 
ATOM      2  C   UNL     1      -1.251  14.230  20.300  0.00  0.00    +0.000 A 
ATOM      3  C   UNL     1      -0.151  14.968  20.080  0.00  0.00    +0.000 A 
ATOM      4  N   UNL     1       1.146  14.474  20.021  0.00  0.00    +0.000 NA
ATOM      5  C   UNL     1       1.285  13.201  20.212  0.00  0.00    +0.000 A 
ATOM      6  N   UNL     1       0.290  12.254  20.367  0.00  0.00    +0.000 N 
ATOM      7  C   UNL     1      -1.041  12.724  20.336  0.00  0.00    +0.000 A 
ATOM      8  N   UNL     1      -2.121  12.006  20.291  0.00  0.00    +0.000 NA
ATOM      9  O   UNL     1      -0.272  16.348  19.929  0.00  0.00    +0.000 OA
ATOM     10  C   UNL     1      -1.518  16.919  20.045  0.00  0.00    +0.000 A 
ATOM     11  C   UNL     1      -1.922  17.747  19.030  0.00  0.00    +0.000 A 
ATOM     12  C   UNL     1      -3.238  18.211  19.031  0.00  0.00    +0.000 A 
ATOM     13  C   UNL     1      -4.170  17.949  20.058  0.00  0.00    +0.000 A 
ATOM     14  C   UNL     1      -5.487  18.397  19.895  0.00  0.00    +0.000 A 
ATOM     15  C   UNL     1      -6.469  18.140  20.834  0.00  0.00    +0.000 A 
ATOM     16  C   UNL     1      -6.020  18.358  22.091  0.00  0.00    +0.000 A 
ATOM     17  C   UNL     1      -4.818  17.647  22.341  0.00  0.00    +0.000 A 
ATOM     18  C   UNL     1      -3.818  17.265  21.213  0.00  0.00    +0.000 A 
ATOM     19  C   UNL     1      -2.504  16.485  20.961  0.00  0.00    +0.000 A 
ATOM     20  H   UNL     1      -1.918  11.014  20.323  0.00  0.00    +0.000 HD
ENDROOT
BRANCH   1  25
ATOM     21  C   UNL     1      -4.980  12.902  22.798  0.00  0.00    +0.000 A 
ATOM     22  C   UNL     1      -4.178  12.840  23.958  0.00  0.00    +0.000 A 
ATOM     23  C   UNL     1      -2.976  13.530  24.050  0.00  0.00    +0.000 A 
ATOM     24  C   UNL     1      -2.521  14.251  23.008  0.00  0.00    +0.000 A 
ATOM     25  C   UNL     1      -3.241  14.221  21.793  0.00  0.00    +0.000 A 
ATOM     26  C   UNL     1      -4.453  13.530  21.660  0.00  0.00    +0.000 A 
BRANCH  21  28
ATOM     27  C   UNL     1      -7.112  12.785  23.838  0.00  0.00    +0.000 C 
ATOM     28  O   UNL     1      -6.228  12.326  22.795  0.00  0.00    +0.000 OA
ENDBRANCH  21  28
BRANCH  26  29
ATOM     29  O   UNL     1      -4.900  13.544  20.364  0.00  0.00    +0.000 OA
ATOM     30  C   UNL     1      -6.037  14.292  20.020  0.00  0.00    +0.000 C 
ENDBRANCH  26  29
ENDBRANCH   1  25
BRANCH   6  31
ATOM     31  C   UNL     1       0.654  10.851  20.467  0.00  0.00    +0.000 A 
ATOM     32  C   UNL     1       0.634  10.135  21.660  0.00  0.00    +0.000 A 
ATOM     33  C   UNL     1       1.075   8.779  21.738  0.00  0.00    +0.000 A 
ATOM     34  C   UNL     1       1.470   8.126  20.584  0.00  0.00    +0.000 A 
ATOM     35  C   UNL     1       1.468   8.807  19.376  0.00  0.00    +0.000 A 
ATOM     36  C   UNL     1       1.082  10.170  19.318  0.00  0.00    +0.000 A 
ENDBRANCH   6  31
TORSDOF 4
ENDMDL
MODEL 6
REMARK VINA RESULT:      -6.1      2.834      6.823
REMARK  Name = 
REMARK  6 active torsions:
REMARK  status: ('A' for Active; 'I' for Inactive)
REMARK    1  A    between atoms: C_1  and  O_2
REMARK    2  A    between atoms: O_2  and  C_3
REMARK    3  A    between atoms: C_7  and  C_8
REMARK    4  A    between atoms: N_13  and  C_14
REMARK    5  A    between atoms: C_33  and  O_34
REMARK    6  A    between atoms: O_34  and  C_35
REMARK                            x       y       z     vdW  Elec       q    Type
REMARK                         _______ _______ _______ _____ _____    ______ ____
ROOT
ATOM      1  C   UNL     1      -2.079  13.712  21.233  0.00  0.00    +0.000 C 
ATOM      2  C   UNL     1      -2.022  12.395  20.432  0.00  0.00    +0.000 A 
ATOM      3  C   UNL     1      -3.027  12.037  19.616  0.00  0.00    +0.000 A 
ATOM      4  N   UNL     1      -2.972  11.015  18.678  0.00  0.00    +0.000 NA
ATOM      5  C   UNL     1      -1.848  10.377  18.589  0.00  0.00    +0.000 A 
ATOM      6  N   UNL     1      -0.726  10.523  19.384  0.00  0.00    +0.000 N 
ATOM      7  C   UNL     1      -0.797  11.495  20.405  0.00  0.00    +0.000 A 
ATOM      8  N   UNL     1       0.058  11.683  21.363  0.00  0.00    +0.000 NA
ATOM      9  O   UNL     1      -4.225  12.747  19.655  0.00  0.00    +0.000 OA
ATOM     10  C   UNL     1      -4.330  13.821  20.510  0.00  0.00    +0.000 A 
ATOM     11  C   UNL     1      -5.411  13.844  21.352  0.00  0.00    +0.000 A 
ATOM     12  C   UNL     1      -5.465  14.824  22.343  0.00  0.00    +0.000 A 
ATOM     13  C   UNL     1      -4.512  15.856  22.489  0.00  0.00    +0.000 A 
ATOM     14  C   UNL     1      -4.631  16.725  23.581  0.00  0.00    +0.000 A 
ATOM     15  C   UNL     1      -3.713  17.730  23.819  0.00  0.00    +0.000 A 
ATOM     16  C   UNL     1      -3.403  18.396  22.684  0.00  0.00    +0.000 A 
ATOM     17  C   UNL     1      -2.993  17.506  21.659  0.00  0.00    +0.000 A 
ATOM     18  C   UNL     1      -3.471  16.028  21.588  0.00  0.00    +0.000 A 
ATOM     19  C   UNL     1      -3.274  14.719  20.784  0.00  0.00    +0.000 A 
ATOM     20  H   UNL     1       0.853  11.060  21.289  0.00  0.00    +0.000 HD
ENDROOT
BRANCH   1  25
ATOM     21  C   UNL     1       1.232  15.371  22.023  0.00  0.00    +0.000 A 
ATOM     22  C   UNL     1       1.655  15.601  20.697  0.00  0.00    +0.000 A 
ATOM     23  C   UNL     1       0.830  15.336  19.612  0.00  0.00    +0.000 A 
ATOM     24  C   UNL     1      -0.394  14.808  19.799  0.00  0.00    +0.000 A 
ATOM     25  C   UNL     1      -0.788  14.446  21.107  0.00  0.00    +0.000 A 
ATOM     26  C   UNL     1       0.022  14.692  22.225  0.00  0.00    +0.000 A 
BRANCH  21  28
ATOM     27  C   UNL     1       1.839  17.155  23.469  0.00  0.00    +0.000 C 
ATOM     28  O   UNL     1       2.018  15.779  23.075  0.00  0.00    +0.000 OA
ENDBRANCH  21  28
BRANCH  26  29
ATOM     29  O   UNL     1      -0.514  14.148  23.362  0.00  0.00    +0.000 OA
ATOM     30  C   UNL     1      -1.167  14.969  24.296  0.00  0.00    +0.000 C 
ENDBRANCH  26  29
ENDBRANCH   1  25
BRANCH   6  31
ATOM     31  C   UNL     1       0.405   9.633  19.185  0.00  0.00    +0.000 A 
ATOM     32  C   UNL     1       1.163   9.602  18.019  0.00  0.00    +0.000 A 
ATOM     33  C   UNL     1       2.218   8.660  17.825  0.00  0.00    +0.000 A 
ATOM     34  C   UNL     1       2.552   7.793  18.851  0.00  0.00    +0.000 A 
ATOM     35  C   UNL     1       1.833   7.825  20.036  0.00  0.00    +0.000 A 
ATOM     36  C   UNL     1       0.750   8.726  20.199  0.00  0.00    +0.000 A 
ENDBRANCH   6  31
TORSDOF 4
ENDMDL
MODEL 7
REMARK VINA RESULT:      -6.0      1.924      7.277
REMARK  Name = 
REMARK  6 active torsions:
REMARK  status: ('A' for Active; 'I' for Inactive)
REMARK    1  A    between atoms: C_1  and  O_2
REMARK    2  A    between atoms: O_2  and  C_3
REMARK    3  A    between atoms: C_7  and  C_8
REMARK    4  A    between atoms: N_13  and  C_14
REMARK    5  A    between atoms: C_33  and  O_34
REMARK    6  A    between atoms: O_34  and  C_35
REMARK                            x       y       z     vdW  Elec       q    Type
REMARK                         _______ _______ _______ _____ _____    ______ ____
ROOT
ATOM      1  C   UNL     1      -1.644  14.629  21.975  0.00  0.00    +0.000 C 
ATOM      2  C   UNL     1      -2.642  13.637  21.343  0.00  0.00    +0.000 A 
ATOM      3  C   UNL     1      -3.906  13.548  21.789  0.00  0.00    +0.000 A 
ATOM      4  N   UNL     1      -4.938  12.880  21.144  0.00  0.00    +0.000 NA
ATOM      5  C   UNL     1      -4.641  12.317  20.016  0.00  0.00    +0.000 A 
ATOM      6  N   UNL     1      -3.397  12.214  19.422  0.00  0.00    +0.000 N 
ATOM      7  C   UNL     1      -2.317  12.808  20.111  0.00  0.00    +0.000 A 
ATOM      8  N   UNL     1      -1.055  12.690  19.831  0.00  0.00    +0.000 NA
ATOM      9  O   UNL     1      -4.260  14.194  22.972  0.00  0.00    +0.000 OA
ATOM     10  C   UNL     1      -3.307  14.936  23.631  0.00  0.00    +0.000 A 
ATOM     11  C   UNL     1      -3.126  14.676  24.965  0.00  0.00    +0.000 A 
ATOM     12  C   UNL     1      -2.061  15.288  25.626  0.00  0.00    +0.000 A 
ATOM     13  C   UNL     1      -1.194  16.230  25.030  0.00  0.00    +0.000 A 
ATOM     14  C   UNL     1      -0.107  16.703  25.776  0.00  0.00    +0.000 A 
ATOM     15  C   UNL     1       0.812  17.589  25.248  0.00  0.00    +0.000 A 
ATOM     16  C   UNL     1       0.202  18.587  24.568  0.00  0.00    +0.000 A 
ATOM     17  C   UNL     1      -0.694  18.076  23.595  0.00  0.00    +0.000 A 
ATOM     18  C   UNL     1      -1.390  16.693  23.737  0.00  0.00    +0.000 A 
ATOM     19  C   UNL     1      -2.320  15.712  22.981  0.00  0.00    +0.000 A 
ATOM     20  H   UNL     1      -0.901  12.133  19.000  0.00  0.00    +0.000 HD
ENDROOT
BRANCH   1  25
ATOM     21  C   UNL     1       1.062  15.939  19.673  0.00  0.00    +0.000 A 
ATOM     22  C   UNL     1       0.231  16.646  18.779  0.00  0.00    +0.000 A 
ATOM     23  C   UNL     1      -1.133  16.782  19.005  0.00  0.00    +0.000 A 
ATOM     24  C   UNL     1      -1.709  16.202  20.074  0.00  0.00    +0.000 A 
ATOM     25  C   UNL     1      -0.921  15.380  20.910  0.00  0.00    +0.000 A 
ATOM     26  C   UNL     1       0.457  15.213  20.709  0.00  0.00    +0.000 A 
BRANCH  21  28
ATOM     27  C   UNL     1       2.884  16.694  18.349  0.00  0.00    +0.000 C 
ATOM     28  O   UNL     1       2.426  15.947  19.495  0.00  0.00    +0.000 OA
ENDBRANCH  21  28
BRANCH  26  29
ATOM     29  O   UNL     1       0.980  14.280  21.566  0.00  0.00    +0.000 OA
ATOM     30  C   UNL     1       1.922  13.348  21.103  0.00  0.00    +0.000 C 
ENDBRANCH  26  29
ENDBRANCH   1  25
BRANCH   6  31
ATOM     31  C   UNL     1      -3.257  11.448  18.196  0.00  0.00    +0.000 A 
ATOM     32  C   UNL     1      -2.235  10.529  17.976  0.00  0.00    +0.000 A 
ATOM     33  C   UNL     1      -2.080   9.852  16.728  0.00  0.00    +0.000 A 
ATOM     34  C   UNL     1      -3.012  10.055  15.725  0.00  0.00    +0.000 A 
ATOM     35  C   UNL     1      -4.058  10.941  15.930  0.00  0.00    +0.000 A 
ATOM     36  C   UNL     1      -4.172  11.652  17.152  0.00  0.00    +0.000 A 
ENDBRANCH   6  31
TORSDOF 4
ENDMDL
MODEL 8
REMARK VINA RESULT:      -6.0     10.081     12.000
REMARK  Name = 
REMARK  6 active torsions:
REMARK  status: ('A' for Active; 'I' for Inactive)
REMARK    1  A    between atoms: C_1  and  O_2
REMARK    2  A    between atoms: O_2  and  C_3
REMARK    3  A    between atoms: C_7  and  C_8
REMARK    4  A    between atoms: N_13  and  C_14
REMARK    5  A    between atoms: C_33  and  O_34
REMARK    6  A    between atoms: O_34  and  C_35
REMARK                            x       y       z     vdW  Elec       q    Type
REMARK                         _______ _______ _______ _____ _____    ______ ____
ROOT
ATOM      1  C   UNL     1       8.951  13.707  21.017  0.00  0.00    +0.000 C 
ATOM      2  C   UNL     1       8.215  13.329  22.319  0.00  0.00    +0.000 A 
ATOM      3  C   UNL     1       8.376  12.119  22.878  0.00  0.00    +0.000 A 
ATOM      4  N   UNL     1       7.964  11.765  24.156  0.00  0.00    +0.000 NA
ATOM      5  C   UNL     1       7.395  12.697  24.854  0.00  0.00    +0.000 A 
ATOM      6  N   UNL     1       7.057  13.974  24.447  0.00  0.00    +0.000 N 
ATOM      7  C   UNL     1       7.385  14.321  23.118  0.00  0.00    +0.000 A 
ATOM      8  N   UNL     1       7.016  15.388  22.478  0.00  0.00    +0.000 NA
ATOM      9  O   UNL     1       9.035  11.119  22.166  0.00  0.00    +0.000 OA
ATOM     10  C   UNL     1       9.536  11.415  20.919  0.00  0.00    +0.000 A 
ATOM     11  C   UNL     1       9.192  10.575  19.892  0.00  0.00    +0.000 A 
ATOM     12  C   UNL     1       9.541  10.933  18.590  0.00  0.00    +0.000 A 
ATOM     13  C   UNL     1      10.302  12.075  18.260  0.00  0.00    +0.000 A 
ATOM     14  C   UNL     1      10.508  12.371  16.907  0.00  0.00    +0.000 A 
ATOM     15  C   UNL     1      11.202  13.496  16.501  0.00  0.00    +0.000 A 
ATOM     16  C   UNL     1      12.331  13.668  17.227  0.00  0.00    +0.000 A 
ATOM     17  C   UNL     1      12.057  13.660  18.618  0.00  0.00    +0.000 A 
ATOM     18  C   UNL     1      10.846  12.902  19.232  0.00  0.00    +0.000 A 
ATOM     19  C   UNL     1      10.112  12.659  20.574  0.00  0.00    +0.000 A 
ATOM     20  H   UNL     1       6.471  16.011  23.061  0.00  0.00    +0.000 HD
ENDROOT
BRANCH   1  25
ATOM     21  C   UNL     1       9.878  17.336  20.461  0.00  0.00    +0.000 A 
ATOM     22  C   UNL     1      10.614  17.533  21.649  0.00  0.00    +0.000 A 
ATOM     23  C   UNL     1      10.890  16.484  22.517  0.00  0.00    +0.000 A 
ATOM     24  C   UNL     1      10.422  15.248  22.264  0.00  0.00    +0.000 A 
ATOM     25  C   UNL     1       9.574  15.055  21.151  0.00  0.00    +0.000 A 
ATOM     26  C   UNL     1       9.267  16.091  20.257  0.00  0.00    +0.000 A 
BRANCH  21  28
ATOM     27  C   UNL     1      10.925  18.628  18.765  0.00  0.00    +0.000 C 
ATOM     28  O   UNL     1       9.748  18.364  19.557  0.00  0.00    +0.000 OA
ENDBRANCH  21  28
BRANCH  26  29
ATOM     29  O   UNL     1       8.335  15.697  19.333  0.00  0.00    +0.000 OA
ATOM     30  C   UNL     1       8.655  15.701  17.965  0.00  0.00    +0.000 C 
ENDBRANCH  26  29
ENDBRANCH   1  25
BRANCH   6  31
ATOM     31  C   UNL     1       6.327  14.839  25.357  0.00  0.00    +0.000 A 
ATOM     32  C   UNL     1       5.141  14.469  25.985  0.00  0.00    +0.000 A 
ATOM     33  C   UNL     1       4.406  15.372  26.811  0.00  0.00    +0.000 A 
ATOM     34  C   UNL     1       4.917  16.634  27.059  0.00  0.00    +0.000 A 
ATOM     35  C   UNL     1       6.113  17.017  26.472  0.00  0.00    +0.000 A 
ATOM     36  C   UNL     1       6.808  16.133  25.608  0.00  0.00    +0.000 A 
ENDBRANCH   6  31
TORSDOF 4
ENDMDL
MODEL 9
REMARK VINA RESULT:      -6.0      3.351      6.786
REMARK  Name = 
REMARK  6 active torsions:
REMARK  status: ('A' for Active; 'I' for Inactive)
REMARK    1  A    between atoms: C_1  and  O_2
REMARK    2  A    between atoms: O_2  and  C_3
REMARK    3  A    between atoms: C_7  and  C_8
REMARK    4  A    between atoms: N_13  and  C_14
REMARK    5  A    between atoms: C_33  and  O_34
REMARK    6  A    between atoms: O_34  and  C_35
REMARK                            x       y       z     vdW  Elec       q    Type
REMARK                         _______ _______ _______ _____ _____    ______ ____
ROOT
ATOM      1  C   UNL     1      -3.875  15.197  20.644  0.00  0.00    +0.000 C 
ATOM      2  C   UNL     1      -2.442  14.663  20.849  0.00  0.00    +0.000 A 
ATOM      3  C   UNL     1      -1.421  15.499  21.099  0.00  0.00    +0.000 A 
ATOM      4  N   UNL     1      -0.160  15.115  21.536  0.00  0.00    +0.000 NA
ATOM      5  C   UNL     1       0.020  13.847  21.727  0.00  0.00    +0.000 A 
ATOM      6  N   UNL     1      -0.859  12.815  21.453  0.00  0.00    +0.000 N 
ATOM      7  C   UNL     1      -2.114  13.180  20.919  0.00  0.00    +0.000 A 
ATOM      8  N   UNL     1      -3.016  12.382  20.435  0.00  0.00    +0.000 NA
ATOM      9  O   UNL     1      -1.611  16.872  20.954  0.00  0.00    +0.000 OA
ATOM     10  C   UNL     1      -2.856  17.333  20.593  0.00  0.00    +0.000 A 
ATOM     11  C   UNL     1      -2.917  18.192  19.526  0.00  0.00    +0.000 A 
ATOM     12  C   UNL     1      -4.170  18.548  19.028  0.00  0.00    +0.000 A 
ATOM     13  C   UNL     1      -5.396  18.145  19.602  0.00  0.00    +0.000 A 
ATOM     14  C   UNL     1      -6.585  18.498  18.952  0.00  0.00    +0.000 A 
ATOM     15  C   UNL     1      -7.822  18.102  19.424  0.00  0.00    +0.000 A 
ATOM     16  C   UNL     1      -7.917  18.270  20.763  0.00  0.00    +0.000 A 
ATOM     17  C   UNL     1      -6.840  17.643  21.440  0.00  0.00    +0.000 A 
ATOM     18  C   UNL     1      -5.450  17.416  20.781  0.00  0.00    +0.000 A 
ATOM     19  C   UNL     1      -4.070  16.762  21.037  0.00  0.00    +0.000 A 
ATOM     20  H   UNL     1      -2.744  11.410  20.513  0.00  0.00    +0.000 HD
ENDROOT
BRANCH   1  25
ATOM     21  C   UNL     1      -6.707  12.895  21.655  0.00  0.00    +0.000 A 
ATOM     22  C   UNL     1      -6.400  12.802  23.029  0.00  0.00    +0.000 A 
ATOM     23  C   UNL     1      -5.388  13.561  23.603  0.00  0.00    +0.000 A 
ATOM     24  C   UNL     1      -4.640  14.385  22.846  0.00  0.00    +0.000 A 
ATOM     25  C   UNL     1      -4.842  14.397  21.448  0.00  0.00    +0.000 A 
ATOM     26  C   UNL     1      -5.848  13.638  20.832  0.00  0.00    +0.000 A 
BRANCH  21  28
ATOM     27  C   UNL     1      -7.562  10.879  20.736  0.00  0.00    +0.000 C 
ATOM     28  O   UNL     1      -7.805  12.239  21.151  0.00  0.00    +0.000 OA
ENDBRANCH  21  28
BRANCH  26  29
ATOM     29  O   UNL     1      -5.772  13.718  19.466  0.00  0.00    +0.000 OA
ATOM     30  C   UNL     1      -6.696  14.500  18.754  0.00  0.00    +0.000 C 
ENDBRANCH  26  29
ENDBRANCH   1  25
BRANCH   6  31
ATOM     31  C   UNL     1      -0.424  11.443  21.645  0.00  0.00    +0.000 A 
ATOM     32  C   UNL     1       0.283  10.719  20.689  0.00  0.00    +0.000 A 
ATOM     33  C   UNL     1       0.626   9.346  20.877  0.00  0.00    +0.000 A 
ATOM     34  C   UNL     1       0.311   8.726  22.074  0.00  0.00    +0.000 A 
ATOM     35  C   UNL     1      -0.364   9.434  23.057  0.00  0.00    +0.000 A 
ATOM     36  C   UNL     1      -0.750  10.781  22.838  0.00  0.00    +0.000 A 
ENDBRANCH   6  31
TORSDOF 4
ENDMDL
