MODEL 1
REMARK VINA RESULT:      -7.5      0.000      0.000
REMARK  Name = 
REMARK  6 active torsions:
REMARK  status: ('A' for Active; 'I' for Inactive)
REMARK    1  A    between atoms: C_1  and  C_2
REMARK    2  A    between atoms: C_2  and  C_3
REMARK    3  A    between atoms: C_2  and  N_4
REMARK    4  A    between atoms: C_5  and  C_7
REMARK    5  A    between atoms: C_7  and  C_8
REMARK    6  A    between atoms: C_10  and  C_11
REMARK                            x       y       z     vdW  Elec       q    Type
REMARK                         _______ _______ _______ _____ _____    ______ ____
ROOT
ATOM      1  C   UNL     1       5.786   4.680  16.277  0.00  0.00    +0.000 A 
ATOM      2  C   UNL     1       5.005   3.686  16.907  0.00  0.00    +0.000 A 
ATOM      3  C   UNL     1       3.916   4.362  17.408  0.00  0.00    +0.000 A 
ATOM      4  O   UNL     1       4.022   5.676  17.051  0.00  0.00    +0.000 OA
ATOM      5  N   UNL     1       5.194   5.880  16.343  0.00  0.00    +0.000 NA
ENDROOT
BRANCH   3   6
ATOM      6  C   UNL     1       2.764   3.994  18.224  0.00  0.00    +0.000 A 
ATOM      7  C   UNL     1       2.076   2.796  17.977  0.00  0.00    +0.000 A 
ATOM      8  C   UNL     1       1.006   2.401  18.788  0.00  0.00    +0.000 A 
ATOM      9  C   UNL     1       0.608   3.203  19.853  0.00  0.00    +0.000 A 
ATOM     10  C   UNL     1       1.269   4.402  20.104  0.00  0.00    +0.000 A 
ATOM     11  C   UNL     1       2.338   4.796  19.293  0.00  0.00    +0.000 A 
ENDBRANCH   3   6
BRANCH   1  12
ATOM     12  C   UNL     1       7.104   4.529  15.611  0.00  0.00    +0.000 C 
BRANCH  12  14
ATOM     13  N   UNL     1       6.300   3.516  13.545  0.00  0.00    +0.000 N 
ATOM     14  C   UNL     1       6.965   4.585  14.104  0.00  0.00    +0.000 C 
ATOM     15  O   UNL     1       7.392   5.535  13.450  0.00  0.00    +0.000 OA
ATOM     16  H   UNL     1       5.961   2.781  14.161  0.00  0.00    +0.000 HD
BRANCH  13  18
ATOM     17  C   UNL     1       6.771   2.182  11.554  0.00  0.00    +0.000 C 
ATOM     18  C   UNL     1       6.058   3.407  12.116  0.00  0.00    +0.000 C 
ATOM     19  C   UNL     1       4.560   3.344  11.827  0.00  0.00    +0.000 C 
ENDBRANCH  13  18
ENDBRANCH  12  14
ENDBRANCH   1  12
TORSDOF 4
ENDMDL
MODEL 2
REMARK VINA RESULT:      -7.5      2.180      6.921
REMARK  Name = 
REMARK  6 active torsions:
REMARK  status: ('A' for Active; 'I' for Inactive)
REMARK    1  A    between atoms: C_1  and  C_2
REMARK    2  A    between atoms: C_2  and  C_3
REMARK    3  A    between atoms: C_2  and  N_4
REMARK    4  A    between atoms: C_5  and  C_7
REMARK    5  A    between atoms: C_7  and  C_8
REMARK    6  A    between atoms: C_10  and  C_11
REMARK                            x       y       z     vdW  Elec       q    Type
REMARK                         _______ _______ _______ _____ _____    ______ ____
ROOT
ATOM      1  C   UNL     1       6.198   4.660  18.048  0.00  0.00    +0.000 A 
ATOM      2  C   UNL     1       5.599   4.600  16.770  0.00  0.00    +0.000 A 
ATOM      3  C   UNL     1       6.655   4.495  15.893  0.00  0.00    +0.000 A 
ATOM      4  O   UNL     1       7.812   4.446  16.616  0.00  0.00    +0.000 OA
ATOM      5  N   UNL     1       7.530   4.551  17.967  0.00  0.00    +0.000 NA
ENDROOT
BRANCH   3   6
ATOM      6  C   UNL     1       6.785   4.467  14.441  0.00  0.00    +0.000 A 
ATOM      7  C   UNL     1       7.680   5.333  13.793  0.00  0.00    +0.000 A 
ATOM      8  C   UNL     1       7.859   5.276  12.407  0.00  0.00    +0.000 A 
ATOM      9  C   UNL     1       7.140   4.355  11.650  0.00  0.00    +0.000 A 
ATOM     10  C   UNL     1       6.237   3.499  12.273  0.00  0.00    +0.000 A 
ATOM     11  C   UNL     1       6.060   3.556  13.659  0.00  0.00    +0.000 A 
ENDBRANCH   3   6
BRANCH   1  12
ATOM     12  C   UNL     1       5.536   4.831  19.365  0.00  0.00    +0.000 C 
BRANCH  12  14
ATOM     13  N   UNL     1       3.217   4.091  19.491  0.00  0.00    +0.000 N 
ATOM     14  C   UNL     1       4.538   3.722  19.625  0.00  0.00    +0.000 C 
ATOM     15  O   UNL     1       4.898   2.580  19.902  0.00  0.00    +0.000 OA
ATOM     16  H   UNL     1       3.007   5.053  19.239  0.00  0.00    +0.000 HD
BRANCH  13  18
ATOM     17  C   UNL     1       0.964   3.844  20.401  0.00  0.00    +0.000 C 
ATOM     18  C   UNL     1       2.122   3.155  19.685  0.00  0.00    +0.000 C 
ATOM     19  C   UNL     1       1.666   2.575  18.349  0.00  0.00    +0.000 C 
ENDBRANCH  13  18
ENDBRANCH  12  14
ENDBRANCH   1  12
TORSDOF 4
ENDMDL
MODEL 3
REMARK VINA RESULT:      -7.4      0.143      1.142
REMARK  Name = 
REMARK  6 active torsions:
REMARK  status: ('A' for Active; 'I' for Inactive)
REMARK    1  A    between atoms: C_1  and  C_2
REMARK    2  A    between atoms: C_2  and  C_3
REMARK    3  A    between atoms: C_2  and  N_4
REMARK    4  A    between atoms: C_5  and  C_7
REMARK    5  A    between atoms: C_7  and  C_8
REMARK    6  A    between atoms: C_10  and  C_11
REMARK                            x       y       z     vdW  Elec       q    Type
REMARK                         _______ _______ _______ _____ _____    ______ ____
ROOT
ATOM      1  C   UNL     1       5.795   4.653  16.336  0.00  0.00    +0.000 A 
ATOM      2  C   UNL     1       5.074   3.661  17.037  0.00  0.00    +0.000 A 
ATOM      3  C   UNL     1       3.944   4.303  17.489  0.00  0.00    +0.000 A 
ATOM      4  O   UNL     1       3.970   5.592  17.038  0.00  0.00    +0.000 OA
ATOM      5  N   UNL     1       5.130   5.816  16.316  0.00  0.00    +0.000 NA
ENDROOT
BRANCH   3   6
ATOM      6  C   UNL     1       2.814   3.925  18.331  0.00  0.00    +0.000 A 
ATOM      7  C   UNL     1       2.464   4.708  19.442  0.00  0.00    +0.000 A 
ATOM      8  C   UNL     1       1.348   4.390  20.223  0.00  0.00    +0.000 A 
ATOM      9  C   UNL     1       0.571   3.280  19.905  0.00  0.00    +0.000 A 
ATOM     10  C   UNL     1       0.911   2.482  18.816  0.00  0.00    +0.000 A 
ATOM     11  C   UNL     1       2.027   2.802  18.036  0.00  0.00    +0.000 A 
ENDBRANCH   3   6
BRANCH   1  12
ATOM     12  C   UNL     1       7.121   4.535  15.681  0.00  0.00    +0.000 C 
BRANCH  12  14
ATOM     13  N   UNL     1       6.277   3.603  13.594  0.00  0.00    +0.000 N 
ATOM     14  C   UNL     1       6.998   4.623  14.175  0.00  0.00    +0.000 C 
ATOM     15  O   UNL     1       7.484   5.556  13.539  0.00  0.00    +0.000 OA
ATOM     16  H   UNL     1       5.891   2.879  14.196  0.00  0.00    +0.000 HD
BRANCH  13  18
ATOM     17  C   UNL     1       6.948   2.479  11.532  0.00  0.00    +0.000 C 
ATOM     18  C   UNL     1       6.040   3.530  12.162  0.00  0.00    +0.000 C 
ATOM     19  C   UNL     1       4.573   3.224  11.874  0.00  0.00    +0.000 C 
ENDBRANCH  13  18
ENDBRANCH  12  14
ENDBRANCH   1  12
TORSDOF 4
ENDMDL
MODEL 4
REMARK VINA RESULT:      -7.3      1.977      6.740
REMARK  Name = 
REMARK  6 active torsions:
REMARK  status: ('A' for Active; 'I' for Inactive)
REMARK    1  A    between atoms: C_1  and  C_2
REMARK    2  A    between atoms: C_2  and  C_3
REMARK    3  A    between atoms: C_2  and  N_4
REMARK    4  A    between atoms: C_5  and  C_7
REMARK    5  A    between atoms: C_7  and  C_8
REMARK    6  A    between atoms: C_10  and  C_11
REMARK                            x       y       z     vdW  Elec       q    Type
REMARK                         _______ _______ _______ _____ _____    ______ ____
ROOT
ATOM      1  C   UNL     1       6.229   4.699  18.141  0.00  0.00    +0.000 A 
ATOM      2  C   UNL     1       5.631   4.597  16.865  0.00  0.00    +0.000 A 
ATOM      3  C   UNL     1       6.688   4.471  15.993  0.00  0.00    +0.000 A 
ATOM      4  O   UNL     1       7.846   4.448  16.717  0.00  0.00    +0.000 OA
ATOM      5  N   UNL     1       7.562   4.593  18.064  0.00  0.00    +0.000 NA
ENDROOT
BRANCH   3   6
ATOM      6  C   UNL     1       6.820   4.398  14.542  0.00  0.00    +0.000 A 
ATOM      7  C   UNL     1       6.022   3.511  13.802  0.00  0.00    +0.000 A 
ATOM      8  C   UNL     1       6.095   3.473  12.405  0.00  0.00    +0.000 A 
ATOM      9  C   UNL     1       6.972   4.318  11.732  0.00  0.00    +0.000 A 
ATOM     10  C   UNL     1       7.782   5.193  12.449  0.00  0.00    +0.000 A 
ATOM     11  C   UNL     1       7.708   5.231  13.845  0.00  0.00    +0.000 A 
ENDBRANCH   3   6
BRANCH   1  12
ATOM     12  C   UNL     1       5.566   4.907  19.452  0.00  0.00    +0.000 C 
BRANCH  12  14
ATOM     13  N   UNL     1       3.259   4.127  19.548  0.00  0.00    +0.000 N 
ATOM     14  C   UNL     1       4.089   5.193  19.280  0.00  0.00    +0.000 C 
ATOM     15  O   UNL     1       3.680   6.306  18.956  0.00  0.00    +0.000 OA
ATOM     16  H   UNL     1       3.679   3.245  19.829  0.00  0.00    +0.000 HD
BRANCH  13  18
ATOM     17  C   UNL     1       1.350   3.811  18.057  0.00  0.00    +0.000 C 
ATOM     18  C   UNL     1       1.811   4.220  19.451  0.00  0.00    +0.000 C 
ATOM     19  C   UNL     1       1.145   3.357  20.520  0.00  0.00    +0.000 C 
ENDBRANCH  13  18
ENDBRANCH  12  14
ENDBRANCH   1  12
TORSDOF 4
ENDMDL
MODEL 5
REMARK VINA RESULT:      -7.2      1.909      6.814
REMARK  Name = 
REMARK  6 active torsions:
REMARK  status: ('A' for Active; 'I' for Inactive)
REMARK    1  A    between atoms: C_1  and  C_2
REMARK    2  A    between atoms: C_2  and  C_3
REMARK    3  A    between atoms: C_2  and  N_4
REMARK    4  A    between atoms: C_5  and  C_7
REMARK    5  A    between atoms: C_7  and  C_8
REMARK    6  A    between atoms: C_10  and  C_11
REMARK                            x       y       z     vdW  Elec       q    Type
REMARK                         _______ _______ _______ _____ _____    ______ ____
ROOT
ATOM      1  C   UNL     1       6.055   4.655  18.084  0.00  0.00    +0.000 A 
ATOM      2  C   UNL     1       5.460   4.457  16.818  0.00  0.00    +0.000 A 
ATOM      3  C   UNL     1       6.512   4.469  15.931  0.00  0.00    +0.000 A 
ATOM      4  O   UNL     1       7.671   4.616  16.638  0.00  0.00    +0.000 OA
ATOM      5  N   UNL     1       7.389   4.735  17.988  0.00  0.00    +0.000 NA
ENDROOT
BRANCH   3   6
ATOM      6  C   UNL     1       6.632   4.399  14.479  0.00  0.00    +0.000 A 
ATOM      7  C   UNL     1       7.596   5.169  13.810  0.00  0.00    +0.000 A 
ATOM      8  C   UNL     1       7.762   5.068  12.425  0.00  0.00    +0.000 A 
ATOM      9  C   UNL     1       6.961   4.200  11.690  0.00  0.00    +0.000 A 
ATOM     10  C   UNL     1       5.989   3.439  12.334  0.00  0.00    +0.000 A 
ATOM     11  C   UNL     1       5.824   3.540  13.719  0.00  0.00    +0.000 A 
ENDBRANCH   3   6
BRANCH   1  12
ATOM     12  C   UNL     1       5.388   4.784  19.404  0.00  0.00    +0.000 C 
BRANCH  12  14
ATOM     13  N   UNL     1       3.121   3.891  19.363  0.00  0.00    +0.000 N 
ATOM     14  C   UNL     1       3.901   5.021  19.244  0.00  0.00    +0.000 C 
ATOM     15  O   UNL     1       3.441   6.145  19.056  0.00  0.00    +0.000 OA
ATOM     16  H   UNL     1       3.581   3.002  19.539  0.00  0.00    +0.000 HD
BRANCH  13  18
ATOM     17  C   UNL     1       1.162   2.655  18.589  0.00  0.00    +0.000 C 
ATOM     18  C   UNL     1       1.672   3.928  19.256  0.00  0.00    +0.000 C 
ATOM     19  C   UNL     1       1.035   4.114  20.631  0.00  0.00    +0.000 C 
ENDBRANCH  13  18
ENDBRANCH  12  14
ENDBRANCH   1  12
TORSDOF 4
ENDMDL
MODEL 6
REMARK VINA RESULT:      -7.1      1.557      1.858
REMARK  Name = 
REMARK  6 active torsions:
REMARK  status: ('A' for Active; 'I' for Inactive)
REMARK    1  A    between atoms: C_1  and  C_2
REMARK    2  A    between atoms: C_2  and  C_3
REMARK    3  A    between atoms: C_2  and  N_4
REMARK    4  A    between atoms: C_5  and  C_7
REMARK    5  A    between atoms: C_7  and  C_8
REMARK    6  A    between atoms: C_10  and  C_11
REMARK                            x       y       z     vdW  Elec       q    Type
REMARK                         _______ _______ _______ _____ _____    ______ ____
ROOT
ATOM      1  C   UNL     1       4.892   4.941  16.578  0.00  0.00    +0.000 A 
ATOM      2  C   UNL     1       4.139   5.279  17.725  0.00  0.00    +0.000 A 
ATOM      3  C   UNL     1       3.753   4.071  18.259  0.00  0.00    +0.000 A 
ATOM      4  O   UNL     1       4.290   3.072  17.499  0.00  0.00    +0.000 OA
ATOM      5  N   UNL     1       5.003   3.613  16.443  0.00  0.00    +0.000 NA
ENDROOT
BRANCH   3   6
ATOM      6  C   UNL     1       2.910   3.665  19.378  0.00  0.00    +0.000 A 
ATOM      7  C   UNL     1       1.528   3.910  19.348  0.00  0.00    +0.000 A 
ATOM      8  C   UNL     1       0.699   3.474  20.387  0.00  0.00    +0.000 A 
ATOM      9  C   UNL     1       1.242   2.792  21.472  0.00  0.00    +0.000 A 
ATOM     10  C   UNL     1       2.613   2.555  21.526  0.00  0.00    +0.000 A 
ATOM     11  C   UNL     1       3.441   2.990  20.487  0.00  0.00    +0.000 A 
ENDBRANCH   3   6
BRANCH   1  12
ATOM     12  C   UNL     1       5.512   5.852  15.584  0.00  0.00    +0.000 C 
BRANCH  12  14
ATOM     13  N   UNL     1       5.746   4.336  13.691  0.00  0.00    +0.000 N 
ATOM     14  C   UNL     1       6.411   5.093  14.631  0.00  0.00    +0.000 C 
ATOM     15  O   UNL     1       7.635   5.183  14.687  0.00  0.00    +0.000 OA
ATOM     16  H   UNL     1       4.729   4.334  13.702  0.00  0.00    +0.000 HD
BRANCH  13  18
ATOM     17  C   UNL     1       5.446   2.736  11.870  0.00  0.00    +0.000 C 
ATOM     18  C   UNL     1       6.444   3.554  12.683  0.00  0.00    +0.000 C 
ATOM     19  C   UNL     1       7.272   4.460  11.776  0.00  0.00    +0.000 C 
ENDBRANCH  13  18
ENDBRANCH  12  14
ENDBRANCH   1  12
TORSDOF 4
ENDMDL
MODEL 7
REMARK VINA RESULT:      -7.0      2.005      6.819
REMARK  Name = 
REMARK  6 active torsions:
REMARK  status: ('A' for Active; 'I' for Inactive)
REMARK    1  A    between atoms: C_1  and  C_2
REMARK    2  A    between atoms: C_2  and  C_3
REMARK    3  A    between atoms: C_2  and  N_4
REMARK    4  A    between atoms: C_5  and  C_7
REMARK    5  A    between atoms: C_7  and  C_8
REMARK    6  A    between atoms: C_10  and  C_11
REMARK                            x       y       z     vdW  Elec       q    Type
REMARK                         _______ _______ _______ _____ _____    ______ ____
ROOT
ATOM      1  C   UNL     1       5.316   4.877  17.920  0.00  0.00    +0.000 A 
ATOM      2  C   UNL     1       6.283   4.348  17.036  0.00  0.00    +0.000 A 
ATOM      3  C   UNL     1       5.900   4.792  15.791  0.00  0.00    +0.000 A 
ATOM      4  O   UNL     1       4.795   5.582  15.936  0.00  0.00    +0.000 OA
ATOM      5  N   UNL     1       4.424   5.635  17.269  0.00  0.00    +0.000 NA
ENDROOT
BRANCH   3   6
ATOM      6  C   UNL     1       6.379   4.576  14.431  0.00  0.00    +0.000 A 
ATOM      7  C   UNL     1       5.738   3.649  13.593  0.00  0.00    +0.000 A 
ATOM      8  C   UNL     1       6.150   3.474  12.268  0.00  0.00    +0.000 A 
ATOM      9  C   UNL     1       7.211   4.219  11.765  0.00  0.00    +0.000 A 
ATOM     10  C   UNL     1       7.869   5.132  12.585  0.00  0.00    +0.000 A 
ATOM     11  C   UNL     1       7.456   5.307  13.910  0.00  0.00    +0.000 A 
ENDBRANCH   3   6
BRANCH   1  12
ATOM     12  C   UNL     1       5.201   4.673  19.386  0.00  0.00    +0.000 C 
BRANCH  12  14
ATOM     13  N   UNL     1       2.998   3.652  19.590  0.00  0.00    +0.000 N 
ATOM     14  C   UNL     1       4.357   3.457  19.706  0.00  0.00    +0.000 C 
ATOM     15  O   UNL     1       4.864   2.380  20.013  0.00  0.00    +0.000 OA
ATOM     16  H   UNL     1       2.663   4.570  19.310  0.00  0.00    +0.000 HD
BRANCH  13  18
ATOM     17  C   UNL     1       1.375   2.796  21.201  0.00  0.00    +0.000 C 
ATOM     18  C   UNL     1       2.034   2.593  19.841  0.00  0.00    +0.000 C 
ATOM     19  C   UNL     1       0.987   2.545  18.731  0.00  0.00    +0.000 C 
ENDBRANCH  13  18
ENDBRANCH  12  14
ENDBRANCH   1  12
TORSDOF 4
ENDMDL
MODEL 8
REMARK VINA RESULT:      -6.9      1.520      2.180
REMARK  Name = 
REMARK  6 active torsions:
REMARK  status: ('A' for Active; 'I' for Inactive)
REMARK    1  A    between atoms: C_1  and  C_2
REMARK    2  A    between atoms: C_2  and  C_3
REMARK    3  A    between atoms: C_2  and  N_4
REMARK    4  A    between atoms: C_5  and  C_7
REMARK    5  A    between atoms: C_7  and  C_8
REMARK    6  A    between atoms: C_10  and  C_11
REMARK                            x       y       z     vdW  Elec       q    Type
REMARK                         _______ _______ _______ _____ _____    ______ ____
ROOT
ATOM      1  C   UNL     1       5.287   6.121  17.380  0.00  0.00    +0.000 A 
ATOM      2  C   UNL     1       4.839   4.869  17.856  0.00  0.00    +0.000 A 
ATOM      3  C   UNL     1       3.551   5.099  18.284  0.00  0.00    +0.000 A 
ATOM      4  O   UNL     1       3.238   6.403  18.030  0.00  0.00    +0.000 OA
ATOM      5  N   UNL     1       4.324   7.048  17.465  0.00  0.00    +0.000 NA
ENDROOT
BRANCH   3   6
ATOM      6  C   UNL     1       2.531   4.295  18.947  0.00  0.00    +0.000 A 
ATOM      7  C   UNL     1       2.347   4.388  20.336  0.00  0.00    +0.000 A 
ATOM      8  C   UNL     1       1.333   3.667  20.976  0.00  0.00    +0.000 A 
ATOM      9  C   UNL     1       0.494   2.839  20.237  0.00  0.00    +0.000 A 
ATOM     10  C   UNL     1       0.671   2.722  18.861  0.00  0.00    +0.000 A 
ATOM     11  C   UNL     1       1.684   3.443  18.221  0.00  0.00    +0.000 A 
ENDBRANCH   3   6
BRANCH   1  12
ATOM     12  C   UNL     1       6.627   6.476  16.847  0.00  0.00    +0.000 C 
BRANCH  12  14
ATOM     13  N   UNL     1       6.736   5.486  14.623  0.00  0.00    +0.000 N 
ATOM     14  C   UNL     1       7.156   5.392  15.932  0.00  0.00    +0.000 C 
ATOM     15  O   UNL     1       7.927   4.523  16.336  0.00  0.00    +0.000 OA
ATOM     16  H   UNL     1       6.114   6.249  14.368  0.00  0.00    +0.000 HD
BRANCH  13  18
ATOM     17  C   UNL     1       5.974   3.688  13.156  0.00  0.00    +0.000 C 
ATOM     18  C   UNL     1       7.155   4.544  13.599  0.00  0.00    +0.000 C 
ATOM     19  C   UNL     1       7.769   5.280  12.410  0.00  0.00    +0.000 C 
ENDBRANCH  13  18
ENDBRANCH  12  14
ENDBRANCH   1  12
TORSDOF 4
ENDMDL
MODEL 9
REMARK VINA RESULT:      -6.9      2.194      7.099
REMARK  Name = 
REMARK  6 active torsions:
REMARK  status: ('A' for Active; 'I' for Inactive)
REMARK    1  A    between atoms: C_1  and  C_2
REMARK    2  A    between atoms: C_2  and  C_3
REMARK    3  A    between atoms: C_2  and  N_4
REMARK    4  A    between atoms: C_5  and  C_7
REMARK    5  A    between atoms: C_7  and  C_8
REMARK    6  A    between atoms: C_10  and  C_11
REMARK                            x       y       z     vdW  Elec       q    Type
REMARK                         _______ _______ _______ _____ _____    ______ ____
ROOT
ATOM      1  C   UNL     1       5.231   4.223  17.804  0.00  0.00    +0.000 A 
ATOM      2  C   UNL     1       6.288   4.549  16.927  0.00  0.00    +0.000 A 
ATOM      3  C   UNL     1       5.777   4.335  15.667  0.00  0.00    +0.000 A 
ATOM      4  O   UNL     1       4.473   3.950  15.791  0.00  0.00    +0.000 OA
ATOM      5  N   UNL     1       4.127   3.877  17.129  0.00  0.00    +0.000 NA
ENDROOT
BRANCH   3   6
ATOM      6  C   UNL     1       6.320   4.394  14.315  0.00  0.00    +0.000 A 
ATOM      7  C   UNL     1       7.393   5.249  14.018  0.00  0.00    +0.000 A 
ATOM      8  C   UNL     1       7.962   5.273  12.741  0.00  0.00    +0.000 A 
ATOM      9  C   UNL     1       7.460   4.445  11.741  0.00  0.00    +0.000 A 
ATOM     10  C   UNL     1       6.386   3.602  12.012  0.00  0.00    +0.000 A 
ATOM     11  C   UNL     1       5.819   3.578  13.289  0.00  0.00    +0.000 A 
ENDBRANCH   3   6
BRANCH   1  12
ATOM     12  C   UNL     1       5.236   4.218  19.289  0.00  0.00    +0.000 C 
BRANCH  12  14
ATOM     13  N   UNL     1       2.979   3.419  19.747  0.00  0.00    +0.000 N 
ATOM     14  C   UNL     1       4.326   3.139  19.836  0.00  0.00    +0.000 C 
ATOM     15  O   UNL     1       4.770   2.088  20.292  0.00  0.00    +0.000 OA
ATOM     16  H   UNL     1       2.696   4.306  19.336  0.00  0.00    +0.000 HD
BRANCH  13  18
ATOM     17  C   UNL     1       1.556   2.824  21.640  0.00  0.00    +0.000 C 
ATOM     18  C   UNL     1       1.957   2.494  20.206  0.00  0.00    +0.000 C 
ATOM     19  C   UNL     1       0.743   2.531  19.280  0.00  0.00    +0.000 C 
ENDBRANCH  13  18
ENDBRANCH  12  14
ENDBRANCH   1  12
TORSDOF 4
ENDMDL
