MODEL 1
REMARK VINA RESULT:      -7.1      0.000      0.000
REMARK  Name = 
REMARK  4 active torsions:
REMARK  status: ('A' for Active; 'I' for Inactive)
REMARK    1  A    between atoms: C_1  and  N_2
REMARK    2  A    between atoms: C_6  and  S_7
REMARK    3  A    between atoms: S_7  and  C_8
REMARK    4  A    between atoms: C_8  and  C_9
REMARK                            x       y       z     vdW  Elec       q    Type
REMARK                         _______ _______ _______ _____ _____    ______ ____
ROOT
ATOM      1  C   UNL     1       4.487   2.789  18.734  0.00  0.00    +0.000 C 
ATOM      2  O   UNL     1       5.044   2.971  19.822  0.00  0.00    +0.000 OA
ATOM      3  N   UNL     1       4.738   3.514  17.585  0.00  0.00    +0.000 N 
ATOM      4  C   UNL     1       5.573   4.632  17.568  0.00  0.00    +0.000 A 
ATOM      5  C   UNL     1       6.809   4.641  18.203  0.00  0.00    +0.000 A 
ATOM      6  C   UNL     1       7.562   5.814  18.190  0.00  0.00    +0.000 A 
ATOM      7  C   UNL     1       7.039   6.941  17.570  0.00  0.00    +0.000 A 
ATOM      8 CL   UNL     1       7.890   8.429  17.596  0.00  0.00    +0.000 Cl
ATOM      9  C   UNL     1       5.808   6.833  16.942  0.00  0.00    +0.000 A 
ATOM     10  N   UNL     1       5.082   5.691  16.896  0.00  0.00    +0.000 NA
ATOM     11  H   UNL     1       3.992   3.574  16.896  0.00  0.00    +0.000 HD
ENDROOT
BRANCH   1  12
ATOM     12  C   UNL     1       3.429   1.717  18.574  0.00  0.00    +0.000 C 
BRANCH  12  13
ATOM     13  S   UNL     1       1.793   2.452  18.278  0.00  0.00    +0.000 S 
BRANCH  13  19
ATOM     14  C   UNL     1       1.505   2.803  21.518  0.00  0.00    +0.000 C 
ATOM     15  N   UNL     1       1.744   3.884  20.611  0.00  0.00    +0.000 N 
ATOM     16  N   UNL     1       1.913   5.140  21.063  0.00  0.00    +0.000 NA
ATOM     17  N   UNL     1       2.143   5.869  19.981  0.00  0.00    +0.000 NA
ATOM     18  N   UNL     1       2.134   5.095  18.845  0.00  0.00    +0.000 NA
ATOM     19  C   UNL     1       1.880   3.871  19.253  0.00  0.00    +0.000 A 
ENDBRANCH  13  19
ENDBRANCH  12  13
ENDBRANCH   1  12
TORSDOF 3
ENDMDL
MODEL 2
REMARK VINA RESULT:      -7.0      3.493      5.877
REMARK  Name = 
REMARK  4 active torsions:
REMARK  status: ('A' for Active; 'I' for Inactive)
REMARK    1  A    between atoms: C_1  and  N_2
REMARK    2  A    between atoms: C_6  and  S_7
REMARK    3  A    between atoms: S_7  and  C_8
REMARK    4  A    between atoms: C_8  and  C_9
REMARK                            x       y       z     vdW  Elec       q    Type
REMARK                         _______ _______ _______ _____ _____    ______ ____
ROOT
ATOM      1  C   UNL     1       4.364   5.741  16.750  0.00  0.00    +0.000 C 
ATOM      2  O   UNL     1       3.824   6.667  17.364  0.00  0.00    +0.000 OA
ATOM      3  N   UNL     1       4.177   4.397  17.016  0.00  0.00    +0.000 N 
ATOM      4  C   UNL     1       3.440   3.944  18.111  0.00  0.00    +0.000 A 
ATOM      5  C   UNL     1       2.209   4.491  18.452  0.00  0.00    +0.000 A 
ATOM      6  C   UNL     1       1.559   4.023  19.592  0.00  0.00    +0.000 A 
ATOM      7  C   UNL     1       2.177   3.048  20.366  0.00  0.00    +0.000 A 
ATOM      8 CL   UNL     1       1.456   2.498  21.821  0.00  0.00    +0.000 Cl
ATOM      9  C   UNL     1       3.394   2.544  19.936  0.00  0.00    +0.000 A 
ATOM     10  N   UNL     1       4.020   2.945  18.804  0.00  0.00    +0.000 NA
ATOM     11  H   UNL     1       4.926   3.759  16.759  0.00  0.00    +0.000 HD
ENDROOT
BRANCH   1  12
ATOM     12  C   UNL     1       5.327   6.020  15.614  0.00  0.00    +0.000 C 
BRANCH  12  13
ATOM     13  S   UNL     1       6.823   4.997  15.758  0.00  0.00    +0.000 S 
BRANCH  13  19
ATOM     14  C   UNL     1       7.683   7.778  17.253  0.00  0.00    +0.000 C 
ATOM     15  N   UNL     1       7.609   6.505  17.903  0.00  0.00    +0.000 N 
ATOM     16  N   UNL     1       7.855   6.388  19.221  0.00  0.00    +0.000 NA
ATOM     17  N   UNL     1       7.669   5.106  19.496  0.00  0.00    +0.000 NA
ATOM     18  N   UNL     1       7.296   4.403  18.375  0.00  0.00    +0.000 NA
ATOM     19  C   UNL     1       7.271   5.284  17.398  0.00  0.00    +0.000 A 
ENDBRANCH  13  19
ENDBRANCH  12  13
ENDBRANCH   1  12
TORSDOF 3
ENDMDL
MODEL 3
REMARK VINA RESULT:      -6.8      3.613      5.958
REMARK  Name = 
REMARK  4 active torsions:
REMARK  status: ('A' for Active; 'I' for Inactive)
REMARK    1  A    between atoms: C_1  and  N_2
REMARK    2  A    between atoms: C_6  and  S_7
REMARK    3  A    between atoms: S_7  and  C_8
REMARK    4  A    between atoms: C_8  and  C_9
REMARK                            x       y       z     vdW  Elec       q    Type
REMARK                         _______ _______ _______ _____ _____    ______ ____
ROOT
ATOM      1  C   UNL     1       4.783   3.876  16.470  0.00  0.00    +0.000 C 
ATOM      2  O   UNL     1       3.995   4.827  16.446  0.00  0.00    +0.000 OA
ATOM      3  N   UNL     1       4.704   2.802  17.336  0.00  0.00    +0.000 N 
ATOM      4  C   UNL     1       3.778   2.743  18.378  0.00  0.00    +0.000 A 
ATOM      5  C   UNL     1       2.442   3.083  18.200  0.00  0.00    +0.000 A 
ATOM      6  C   UNL     1       1.589   3.053  19.302  0.00  0.00    +0.000 A 
ATOM      7  C   UNL     1       2.109   2.715  20.545  0.00  0.00    +0.000 A 
ATOM      8 CL   UNL     1       1.119   2.741  21.944  0.00  0.00    +0.000 Cl
ATOM      9  C   UNL     1       3.448   2.367  20.623  0.00  0.00    +0.000 A 
ATOM     10  N   UNL     1       4.284   2.338  19.559  0.00  0.00    +0.000 NA
ATOM     11  H   UNL     1       5.567   2.310  17.553  0.00  0.00    +0.000 HD
ENDROOT
BRANCH   1  12
ATOM     12  C   UNL     1       5.959   3.819  15.515  0.00  0.00    +0.000 C 
BRANCH  12  13
ATOM     13  S   UNL     1       6.891   5.380  15.532  0.00  0.00    +0.000 S 
BRANCH  13  19
ATOM     14  C   UNL     1       7.513   7.965  17.438  0.00  0.00    +0.000 C 
ATOM     15  N   UNL     1       7.629   6.604  17.867  0.00  0.00    +0.000 N 
ATOM     16  N   UNL     1       7.970   6.305  19.134  0.00  0.00    +0.000 NA
ATOM     17  N   UNL     1       7.952   4.982  19.195  0.00  0.00    +0.000 NA
ATOM     18  N   UNL     1       7.594   4.431  17.987  0.00  0.00    +0.000 NA
ATOM     19  C   UNL     1       7.404   5.449  17.176  0.00  0.00    +0.000 A 
ENDBRANCH  13  19
ENDBRANCH  12  13
ENDBRANCH   1  12
TORSDOF 3
ENDMDL
MODEL 4
REMARK VINA RESULT:      -6.8      3.998      5.804
REMARK  Name = 
REMARK  4 active torsions:
REMARK  status: ('A' for Active; 'I' for Inactive)
REMARK    1  A    between atoms: C_1  and  N_2
REMARK    2  A    between atoms: C_6  and  S_7
REMARK    3  A    between atoms: S_7  and  C_8
REMARK    4  A    between atoms: C_8  and  C_9
REMARK                            x       y       z     vdW  Elec       q    Type
REMARK                         _______ _______ _______ _____ _____    ______ ____
ROOT
ATOM      1  C   UNL     1       2.572   5.143  20.073  0.00  0.00    +0.000 C 
ATOM      2  O   UNL     1       1.526   4.857  20.664  0.00  0.00    +0.000 OA
ATOM      3  N   UNL     1       2.954   6.420  19.708  0.00  0.00    +0.000 N 
ATOM      4  C   UNL     1       2.119   7.527  19.863  0.00  0.00    +0.000 A 
ATOM      5  C   UNL     1       1.398   7.752  21.030  0.00  0.00    +0.000 A 
ATOM      6  C   UNL     1       0.542   8.850  21.089  0.00  0.00    +0.000 A 
ATOM      7  C   UNL     1       0.415   9.664  19.971  0.00  0.00    +0.000 A 
ATOM      8 CL   UNL     1      -0.685  10.979  19.966  0.00  0.00    +0.000 Cl
ATOM      9  C   UNL     1       1.190   9.377  18.860  0.00  0.00    +0.000 A 
ATOM     10  N   UNL     1       2.068   8.348  18.797  0.00  0.00    +0.000 NA
ATOM     11  H   UNL     1       3.581   6.513  18.913  0.00  0.00    +0.000 HD
ENDROOT
BRANCH   1  12
ATOM     12  C   UNL     1       3.556   4.062  19.671  0.00  0.00    +0.000 C 
BRANCH  12  13
ATOM     13  S   UNL     1       3.951   4.163  17.900  0.00  0.00    +0.000 S 
BRANCH  13  19
ATOM     14  C   UNL     1       6.138   4.157  15.466  0.00  0.00    +0.000 C 
ATOM     15  N   UNL     1       6.473   4.329  16.848  0.00  0.00    +0.000 N 
ATOM     16  N   UNL     1       7.745   4.550  17.227  0.00  0.00    +0.000 NA
ATOM     17  N   UNL     1       7.694   4.694  18.543  0.00  0.00    +0.000 NA
ATOM     18  N   UNL     1       6.405   4.580  19.008  0.00  0.00    +0.000 NA
ATOM     19  C   UNL     1       5.665   4.348  17.946  0.00  0.00    +0.000 A 
ENDBRANCH  13  19
ENDBRANCH  12  13
ENDBRANCH   1  12
TORSDOF 3
ENDMDL
MODEL 5
REMARK VINA RESULT:      -6.7      4.126      6.951
REMARK  Name = 
REMARK  4 active torsions:
REMARK  status: ('A' for Active; 'I' for Inactive)
REMARK    1  A    between atoms: C_1  and  N_2
REMARK    2  A    between atoms: C_6  and  S_7
REMARK    3  A    between atoms: S_7  and  C_8
REMARK    4  A    between atoms: C_8  and  C_9
REMARK                            x       y       z     vdW  Elec       q    Type
REMARK                         _______ _______ _______ _____ _____    ______ ____
ROOT
ATOM      1  C   UNL     1       4.308   5.565  17.133  0.00  0.00    +0.000 C 
ATOM      2  O   UNL     1       4.131   6.499  17.922  0.00  0.00    +0.000 OA
ATOM      3  N   UNL     1       3.758   4.303  17.260  0.00  0.00    +0.000 N 
ATOM      4  C   UNL     1       3.031   3.911  18.384  0.00  0.00    +0.000 A 
ATOM      5  C   UNL     1       2.057   4.721  18.955  0.00  0.00    +0.000 A 
ATOM      6  C   UNL     1       1.411   4.283  20.110  0.00  0.00    +0.000 A 
ATOM      7  C   UNL     1       1.785   3.068  20.669  0.00  0.00    +0.000 A 
ATOM      8 CL   UNL     1       1.078   2.523  22.133  0.00  0.00    +0.000 Cl
ATOM      9  C   UNL     1       2.749   2.316  20.017  0.00  0.00    +0.000 A 
ATOM     10  N   UNL     1       3.352   2.695  18.866  0.00  0.00    +0.000 NA
ATOM     11  H   UNL     1       4.255   3.529  16.827  0.00  0.00    +0.000 HD
ENDROOT
BRANCH   1  12
ATOM     12  C   UNL     1       5.196   5.736  15.916  0.00  0.00    +0.000 C 
BRANCH  12  13
ATOM     13  S   UNL     1       5.917   4.147  15.405  0.00  0.00    +0.000 S 
BRANCH  13  19
ATOM     14  C   UNL     1       5.715   3.231  12.271  0.00  0.00    +0.000 C 
ATOM     15  N   UNL     1       6.672   4.169  12.774  0.00  0.00    +0.000 N 
ATOM     16  N   UNL     1       7.541   4.779  11.947  0.00  0.00    +0.000 NA
ATOM     17  N   UNL     1       8.245   5.591  12.722  0.00  0.00    +0.000 NA
ATOM     18  N   UNL     1       7.830   5.517  14.030  0.00  0.00    +0.000 NA
ATOM     19  C   UNL     1       6.861   4.628  14.045  0.00  0.00    +0.000 A 
ENDBRANCH  13  19
ENDBRANCH  12  13
ENDBRANCH   1  12
TORSDOF 3
ENDMDL
MODEL 6
REMARK VINA RESULT:      -6.7      2.469      3.390
REMARK  Name = 
REMARK  4 active torsions:
REMARK  status: ('A' for Active; 'I' for Inactive)
REMARK    1  A    between atoms: C_1  and  N_2
REMARK    2  A    between atoms: C_6  and  S_7
REMARK    3  A    between atoms: S_7  and  C_8
REMARK    4  A    between atoms: C_8  and  C_9
REMARK                            x       y       z     vdW  Elec       q    Type
REMARK                         _______ _______ _______ _____ _____    ______ ____
ROOT
ATOM      1  C   UNL     1       2.703   5.566  19.271  0.00  0.00    +0.000 C 
ATOM      2  O   UNL     1       2.004   5.716  18.264  0.00  0.00    +0.000 OA
ATOM      3  N   UNL     1       4.084   5.509  19.276  0.00  0.00    +0.000 N 
ATOM      4  C   UNL     1       4.840   5.490  18.103  0.00  0.00    +0.000 A 
ATOM      5  C   UNL     1       4.579   6.348  17.041  0.00  0.00    +0.000 A 
ATOM      6  C   UNL     1       5.342   6.231  15.881  0.00  0.00    +0.000 A 
ATOM      7  C   UNL     1       6.315   5.241  15.813  0.00  0.00    +0.000 A 
ATOM      8 CL   UNL     1       7.224   5.005  14.378  0.00  0.00    +0.000 Cl
ATOM      9  C   UNL     1       6.521   4.447  16.929  0.00  0.00    +0.000 A 
ATOM     10  N   UNL     1       5.829   4.576  18.085  0.00  0.00    +0.000 NA
ATOM     11  H   UNL     1       4.530   5.000  20.035  0.00  0.00    +0.000 HD
ENDROOT
BRANCH   1  12
ATOM     12  C   UNL     1       2.071   5.411  20.639  0.00  0.00    +0.000 C 
BRANCH  12  13
ATOM     13  S   UNL     1       1.469   3.715  20.893  0.00  0.00    +0.000 S 
BRANCH  13  19
ATOM     14  C   UNL     1       2.005   2.158  18.066  0.00  0.00    +0.000 C 
ATOM     15  N   UNL     1       2.933   2.189  19.155  0.00  0.00    +0.000 N 
ATOM     16  N   UNL     1       4.137   1.596  19.054  0.00  0.00    +0.000 NA
ATOM     17  N   UNL     1       4.743   1.841  20.206  0.00  0.00    +0.000 NA
ATOM     18  N   UNL     1       3.947   2.592  21.038  0.00  0.00    +0.000 NA
ATOM     19  C   UNL     1       2.830   2.793  20.374  0.00  0.00    +0.000 A 
ENDBRANCH  13  19
ENDBRANCH  12  13
ENDBRANCH   1  12
TORSDOF 3
ENDMDL
MODEL 7
REMARK VINA RESULT:      -6.6      1.103      1.654
REMARK  Name = 
REMARK  4 active torsions:
REMARK  status: ('A' for Active; 'I' for Inactive)
REMARK    1  A    between atoms: C_1  and  N_2
REMARK    2  A    between atoms: C_6  and  S_7
REMARK    3  A    between atoms: S_7  and  C_8
REMARK    4  A    between atoms: C_8  and  C_9
REMARK                            x       y       z     vdW  Elec       q    Type
REMARK                         _______ _______ _______ _____ _____    ______ ____
ROOT
ATOM      1  C   UNL     1       3.921   3.039  17.963  0.00  0.00    +0.000 C 
ATOM      2  O   UNL     1       4.620   2.848  18.963  0.00  0.00    +0.000 OA
ATOM      3  N   UNL     1       4.159   4.001  17.000  0.00  0.00    +0.000 N 
ATOM      4  C   UNL     1       5.166   4.959  17.127  0.00  0.00    +0.000 A 
ATOM      5  C   UNL     1       6.450   4.631  17.547  0.00  0.00    +0.000 A 
ATOM      6  C   UNL     1       7.386   5.651  17.704  0.00  0.00    +0.000 A 
ATOM      7  C   UNL     1       6.997   6.963  17.466  0.00  0.00    +0.000 A 
ATOM      8 CL   UNL     1       8.088   8.260  17.722  0.00  0.00    +0.000 Cl
ATOM      9  C   UNL     1       5.703   7.194  17.028  0.00  0.00    +0.000 A 
ATOM     10  N   UNL     1       4.791   6.215  16.817  0.00  0.00    +0.000 NA
ATOM     11  H   UNL     1       3.361   4.343  16.470  0.00  0.00    +0.000 HD
ENDROOT
BRANCH   1  12
ATOM     12  C   UNL     1       2.683   2.202  17.711  0.00  0.00    +0.000 C 
BRANCH  12  13
ATOM     13  S   UNL     1       1.207   2.988  18.423  0.00  0.00    +0.000 S 
BRANCH  13  19
ATOM     14  C   UNL     1       2.104   5.571  20.219  0.00  0.00    +0.000 C 
ATOM     15  N   UNL     1       2.002   4.237  20.726  0.00  0.00    +0.000 N 
ATOM     16  N   UNL     1       2.234   3.972  22.024  0.00  0.00    +0.000 NA
ATOM     17  N   UNL     1       2.023   2.671  22.157  0.00  0.00    +0.000 NA
ATOM     18  N   UNL     1       1.647   2.103  20.962  0.00  0.00    +0.000 NA
ATOM     19  C   UNL     1       1.646   3.085  20.087  0.00  0.00    +0.000 A 
ENDBRANCH  13  19
ENDBRANCH  12  13
ENDBRANCH   1  12
TORSDOF 3
ENDMDL
MODEL 8
REMARK VINA RESULT:      -6.5      0.644      1.394
REMARK  Name = 
REMARK  4 active torsions:
REMARK  status: ('A' for Active; 'I' for Inactive)
REMARK    1  A    between atoms: C_1  and  N_2
REMARK    2  A    between atoms: C_6  and  S_7
REMARK    3  A    between atoms: S_7  and  C_8
REMARK    4  A    between atoms: C_8  and  C_9
REMARK                            x       y       z     vdW  Elec       q    Type
REMARK                         _______ _______ _______ _____ _____    ______ ____
ROOT
ATOM      1  C   UNL     1       4.631   2.792  18.519  0.00  0.00    +0.000 C 
ATOM      2  O   UNL     1       5.080   2.985  19.653  0.00  0.00    +0.000 OA
ATOM      3  N   UNL     1       4.966   3.528  17.397  0.00  0.00    +0.000 N 
ATOM      4  C   UNL     1       5.768   4.668  17.458  0.00  0.00    +0.000 A 
ATOM      5  C   UNL     1       6.940   4.709  18.205  0.00  0.00    +0.000 A 
ATOM      6  C   UNL     1       7.658   5.902  18.261  0.00  0.00    +0.000 A 
ATOM      7  C   UNL     1       7.163   7.017  17.597  0.00  0.00    +0.000 A 
ATOM      8 CL   UNL     1       7.966   8.527  17.703  0.00  0.00    +0.000 Cl
ATOM      9  C   UNL     1       5.999   6.877  16.858  0.00  0.00    +0.000 A 
ATOM     10  N   UNL     1       5.312   5.715  16.745  0.00  0.00    +0.000 NA
ATOM     11  H   UNL     1       4.285   3.569  16.644  0.00  0.00    +0.000 HD
ENDROOT
BRANCH   1  12
ATOM     12  C   UNL     1       3.622   1.691  18.261  0.00  0.00    +0.000 C 
BRANCH  12  13
ATOM     13  S   UNL     1       1.934   2.360  18.170  0.00  0.00    +0.000 S 
BRANCH  13  19
ATOM     14  C   UNL     1       2.125   5.625  18.231  0.00  0.00    +0.000 C 
ATOM     15  N   UNL     1       2.014   4.805  19.399  0.00  0.00    +0.000 N 
ATOM     16  N   UNL     1       1.934   5.355  20.624  0.00  0.00    +0.000 NA
ATOM     17  N   UNL     1       1.809   4.332  21.456  0.00  0.00    +0.000 NA
ATOM     18  N   UNL     1       1.796   3.136  20.778  0.00  0.00    +0.000 NA
ATOM     19  C   UNL     1       1.930   3.448  19.508  0.00  0.00    +0.000 A 
ENDBRANCH  13  19
ENDBRANCH  12  13
ENDBRANCH   1  12
TORSDOF 3
ENDMDL
MODEL 9
REMARK VINA RESULT:      -6.5      3.838      5.745
REMARK  Name = 
REMARK  4 active torsions:
REMARK  status: ('A' for Active; 'I' for Inactive)
REMARK    1  A    between atoms: C_1  and  N_2
REMARK    2  A    between atoms: C_6  and  S_7
REMARK    3  A    between atoms: S_7  and  C_8
REMARK    4  A    between atoms: C_8  and  C_9
REMARK                            x       y       z     vdW  Elec       q    Type
REMARK                         _______ _______ _______ _____ _____    ______ ____
ROOT
ATOM      1  C   UNL     1       3.232   5.148  19.058  0.00  0.00    +0.000 C 
ATOM      2  O   UNL     1       2.232   4.825  19.708  0.00  0.00    +0.000 OA
ATOM      3  N   UNL     1       3.535   6.436  18.657  0.00  0.00    +0.000 N 
ATOM      4  C   UNL     1       2.660   7.506  18.842  0.00  0.00    +0.000 A 
ATOM      5  C   UNL     1       1.991   7.716  20.043  0.00  0.00    +0.000 A 
ATOM      6  C   UNL     1       1.090   8.775  20.134  0.00  0.00    +0.000 A 
ATOM      7  C   UNL     1       0.867   9.566  19.013  0.00  0.00    +0.000 A 
ATOM      8 CL   UNL     1      -0.291  10.830  19.050  0.00  0.00    +0.000 Cl
ATOM      9  C   UNL     1       1.596   9.297  17.866  0.00  0.00    +0.000 A 
ATOM     10  N   UNL     1       2.515   8.308  17.769  0.00  0.00    +0.000 NA
ATOM     11  H   UNL     1       4.114   6.545  17.829  0.00  0.00    +0.000 HD
ENDROOT
BRANCH   1  12
ATOM     12  C   UNL     1       4.241   4.107  18.618  0.00  0.00    +0.000 C 
BRANCH  12  13
ATOM     13  S   UNL     1       4.300   3.977  16.806  0.00  0.00    +0.000 S 
BRANCH  13  19
ATOM     14  C   UNL     1       6.216   3.893  14.156  0.00  0.00    +0.000 C 
ATOM     15  N   UNL     1       6.456   4.726  15.295  0.00  0.00    +0.000 N 
ATOM     16  N   UNL     1       7.495   5.580  15.319  0.00  0.00    +0.000 NA
ATOM     17  N   UNL     1       7.404   6.205  16.483  0.00  0.00    +0.000 NA
ATOM     18  N   UNL     1       6.314   5.770  17.199  0.00  0.00    +0.000 NA
ATOM     19  C   UNL     1       5.743   4.850  16.452  0.00  0.00    +0.000 A 
ENDBRANCH  13  19
ENDBRANCH  12  13
ENDBRANCH   1  12
TORSDOF 3
ENDMDL
