MODEL 1
REMARK VINA RESULT:      -8.6      0.000      0.000
REMARK  Name = 
REMARK  4 active torsions:
REMARK  status: ('A' for Active; 'I' for Inactive)
REMARK    1  A    between atoms: N_1  and  C_2
REMARK    2  A    between atoms: C_5  and  N_6
REMARK    3  A    between atoms: N_6  and  C_7
REMARK    4  A    between atoms: C_9  and  C_10
REMARK                            x       y       z     vdW  Elec       q    Type
REMARK                         _______ _______ _______ _____ _____    ______ ____
ROOT
ATOM      1  C   UNL     1       3.912   5.467  19.173  0.00  0.00    +0.000 A 
ATOM      2  N   UNL     1       3.342   6.639  19.577  0.00  0.00    +0.000 NA
ATOM      3  C   UNL     1       2.050   6.747  20.006  0.00  0.00    +0.000 A 
ATOM      4  C   UNL     1       1.267   5.584  20.058  0.00  0.00    +0.000 A 
ATOM      5  C   UNL     1       1.804   4.357  19.661  0.00  0.00    +0.000 A 
ATOM      6  C   UNL     1       1.013   3.198  19.740  0.00  0.00    +0.000 A 
ATOM      7  C   UNL     1       1.535   1.964  19.363  0.00  0.00    +0.000 A 
ATOM      8  C   UNL     1       2.847   1.872  18.903  0.00  0.00    +0.000 A 
ATOM      9  C   UNL     1       3.646   3.013  18.822  0.00  0.00    +0.000 A 
ATOM     10  C   UNL     1       3.140   4.277  19.197  0.00  0.00    +0.000 A 
ENDROOT
BRANCH   3  11
ATOM     11  C   UNL     1       1.514   8.093  20.402  0.00  0.00    +0.000 A 
ATOM     12  C   UNL     1       1.332   9.093  19.422  0.00  0.00    +0.000 A 
ATOM     13  C   UNL     1       0.826  10.352  19.767  0.00  0.00    +0.000 A 
ATOM     14  C   UNL     1       0.500  10.641  21.091  0.00  0.00    +0.000 A 
ATOM     15  C   UNL     1       0.673   9.668  22.075  0.00  0.00    +0.000 A 
ATOM     16  C   UNL     1       1.172   8.407  21.739  0.00  0.00    +0.000 A 
ENDBRANCH   3  11
BRANCH   1  17
ATOM     17  N   UNL     1       5.281   5.462  18.763  0.00  0.00    +0.000 N 
ATOM     18  H   UNL     1       5.963   4.884  19.268  0.00  0.00    +0.000 HD
BRANCH  17  22
ATOM     19  C   UNL     1       6.830   4.382  15.649  0.00  0.00    +0.000 C 
ATOM     20  C   UNL     1       7.555   4.652  16.983  0.00  0.00    +0.000 C 
ATOM     21  C   UNL     1       7.280   6.089  17.470  0.00  0.00    +0.000 C 
ATOM     22  C   UNL     1       5.762   6.317  17.687  0.00  0.00    +0.000 C 
ATOM     23  C   UNL     1       5.020   6.024  16.358  0.00  0.00    +0.000 C 
ATOM     24  C   UNL     1       5.315   4.607  15.828  0.00  0.00    +0.000 C 
BRANCH  19  25
ATOM     25  N   UNL     1       7.363   5.258  14.601  0.00  0.00    +0.000 NA
ATOM     26  H   UNL     1       6.596   5.883  14.263  0.00  0.00    +0.000 HD
ATOM     27  H   UNL     1       8.110   5.870  15.001  0.00  0.00    +0.000 HD
ENDBRANCH  19  25
ENDBRANCH  17  22
ENDBRANCH   1  17
TORSDOF 4
ENDMDL
MODEL 2
REMARK VINA RESULT:      -8.5      1.151      1.301
REMARK  Name = 
REMARK  4 active torsions:
REMARK  status: ('A' for Active; 'I' for Inactive)
REMARK    1  A    between atoms: N_1  and  C_2
REMARK    2  A    between atoms: C_5  and  N_6
REMARK    3  A    between atoms: N_6  and  C_7
REMARK    4  A    between atoms: C_9  and  C_10
REMARK                            x       y       z     vdW  Elec       q    Type
REMARK                         _______ _______ _______ _____ _____    ______ ____
ROOT
ATOM      1  C   UNL     1       3.824   5.290  18.695  0.00  0.00    +0.000 A 
ATOM      2  N   UNL     1       3.278   6.541  18.676  0.00  0.00    +0.000 NA
ATOM      3  C   UNL     1       2.295   6.953  19.528  0.00  0.00    +0.000 A 
ATOM      4  C   UNL     1       1.831   6.048  20.496  0.00  0.00    +0.000 A 
ATOM      5  C   UNL     1       2.360   4.757  20.562  0.00  0.00    +0.000 A 
ATOM      6  C   UNL     1       1.900   3.871  21.551  0.00  0.00    +0.000 A 
ATOM      7  C   UNL     1       2.426   2.585  21.641  0.00  0.00    +0.000 A 
ATOM      8  C   UNL     1       3.412   2.169  20.749  0.00  0.00    +0.000 A 
ATOM      9  C   UNL     1       3.880   3.038  19.764  0.00  0.00    +0.000 A 
ATOM     10  C   UNL     1       3.363   4.347  19.649  0.00  0.00    +0.000 A 
ENDROOT
BRANCH   3  11
ATOM     11  C   UNL     1       1.745   8.344  19.403  0.00  0.00    +0.000 A 
ATOM     12  C   UNL     1       1.915   9.061  18.199  0.00  0.00    +0.000 A 
ATOM     13  C   UNL     1       1.404  10.357  18.057  0.00  0.00    +0.000 A 
ATOM     14  C   UNL     1       0.723  10.964  19.109  0.00  0.00    +0.000 A 
ATOM     15  C   UNL     1       0.544  10.275  20.308  0.00  0.00    +0.000 A 
ATOM     16  C   UNL     1       1.045   8.979  20.457  0.00  0.00    +0.000 A 
ENDBRANCH   3  11
BRANCH   1  17
ATOM     17  N   UNL     1       4.866   4.969  17.770  0.00  0.00    +0.000 N 
ATOM     18  H   UNL     1       5.156   3.992  17.647  0.00  0.00    +0.000 HD
BRANCH  17  22
ATOM     19  C   UNL     1       7.061   4.485  14.906  0.00  0.00    +0.000 C 
ATOM     20  C   UNL     1       7.470   4.413  16.390  0.00  0.00    +0.000 C 
ATOM     21  C   UNL     1       7.114   5.727  17.116  0.00  0.00    +0.000 C 
ATOM     22  C   UNL     1       5.591   6.002  17.044  0.00  0.00    +0.000 C 
ATOM     23  C   UNL     1       5.164   6.051  15.554  0.00  0.00    +0.000 C 
ATOM     24  C   UNL     1       5.549   4.765  14.797  0.00  0.00    +0.000 C 
BRANCH  19  25
ATOM     25  N   UNL     1       7.832   5.528  14.222  0.00  0.00    +0.000 NA
ATOM     26  H   UNL     1       7.353   6.447  14.365  0.00  0.00    +0.000 HD
ATOM     27  H   UNL     1       8.782   5.602  14.652  0.00  0.00    +0.000 HD
ENDBRANCH  19  25
ENDBRANCH  17  22
ENDBRANCH   1  17
TORSDOF 4
ENDMDL
MODEL 3
REMARK VINA RESULT:      -8.5      0.905      1.384
REMARK  Name = 
REMARK  4 active torsions:
REMARK  status: ('A' for Active; 'I' for Inactive)
REMARK    1  A    between atoms: N_1  and  C_2
REMARK    2  A    between atoms: C_5  and  N_6
REMARK    3  A    between atoms: N_6  and  C_7
REMARK    4  A    between atoms: C_9  and  C_10
REMARK                            x       y       z     vdW  Elec       q    Type
REMARK                         _______ _______ _______ _____ _____    ______ ____
ROOT
ATOM      1  C   UNL     1       3.969   5.513  19.216  0.00  0.00    +0.000 A 
ATOM      2  N   UNL     1       3.381   6.744  19.199  0.00  0.00    +0.000 NA
ATOM      3  C   UNL     1       2.184   7.022  19.794  0.00  0.00    +0.000 A 
ATOM      4  C   UNL     1       1.528   5.990  20.483  0.00  0.00    +0.000 A 
ATOM      5  C   UNL     1       2.090   4.712  20.536  0.00  0.00    +0.000 A 
ATOM      6  C   UNL     1       1.431   3.696  21.249  0.00  0.00    +0.000 A 
ATOM      7  C   UNL     1       1.983   2.420  21.325  0.00  0.00    +0.000 A 
ATOM      8  C   UNL     1       3.193   2.143  20.691  0.00  0.00    +0.000 A 
ATOM      9  C   UNL     1       3.860   3.143  19.982  0.00  0.00    +0.000 A 
ATOM     10  C   UNL     1       3.321   4.444  19.889  0.00  0.00    +0.000 A 
ENDROOT
BRANCH   3  11
ATOM     11  C   UNL     1       1.612   8.406  19.691  0.00  0.00    +0.000 A 
ATOM     12  C   UNL     1       1.006   9.002  20.818  0.00  0.00    +0.000 A 
ATOM     13  C   UNL     1       0.474  10.296  20.747  0.00  0.00    +0.000 A 
ATOM     14  C   UNL     1       0.528  11.014  19.555  0.00  0.00    +0.000 A 
ATOM     15  C   UNL     1       1.121  10.445  18.429  0.00  0.00    +0.000 A 
ATOM     16  C   UNL     1       1.660   9.157  18.491  0.00  0.00    +0.000 A 
ENDBRANCH   3  11
BRANCH   1  17
ATOM     17  N   UNL     1       5.236   5.336  18.579  0.00  0.00    +0.000 N 
ATOM     18  H   UNL     1       5.856   4.574  18.879  0.00  0.00    +0.000 HD
BRANCH  17  22
ATOM     19  C   UNL     1       6.922   4.460  15.473  0.00  0.00    +0.000 C 
ATOM     20  C   UNL     1       7.594   4.695  16.840  0.00  0.00    +0.000 C 
ATOM     21  C   UNL     1       7.248   6.097  17.382  0.00  0.00    +0.000 C 
ATOM     22  C   UNL     1       5.717   6.257  17.558  0.00  0.00    +0.000 C 
ATOM     23  C   UNL     1       5.028   5.998  16.194  0.00  0.00    +0.000 C 
ATOM     24  C   UNL     1       5.395   4.618  15.611  0.00  0.00    +0.000 C 
BRANCH  19  25
ATOM     25  N   UNL     1       7.454   5.402  14.483  0.00  0.00    +0.000 NA
ATOM     26  H   UNL     1       6.771   5.479  13.694  0.00  0.00    +0.000 HD
ATOM     27  H   UNL     1       7.542   6.351  14.913  0.00  0.00    +0.000 HD
ENDBRANCH  19  25
ENDBRANCH  17  22
ENDBRANCH   1  17
TORSDOF 4
ENDMDL
MODEL 4
REMARK VINA RESULT:      -8.3      1.827      4.846
REMARK  Name = 
REMARK  4 active torsions:
REMARK  status: ('A' for Active; 'I' for Inactive)
REMARK    1  A    between atoms: N_1  and  C_2
REMARK    2  A    between atoms: C_5  and  N_6
REMARK    3  A    between atoms: N_6  and  C_7
REMARK    4  A    between atoms: C_9  and  C_10
REMARK                            x       y       z     vdW  Elec       q    Type
REMARK                         _______ _______ _______ _____ _____    ______ ____
ROOT
ATOM      1  C   UNL     1       3.102   4.595  17.494  0.00  0.00    +0.000 A 
ATOM      2  N   UNL     1       2.452   5.676  18.016  0.00  0.00    +0.000 NA
ATOM      3  C   UNL     1       2.963   6.942  18.014  0.00  0.00    +0.000 A 
ATOM      4  C   UNL     1       4.217   7.153  17.420  0.00  0.00    +0.000 A 
ATOM      5  C   UNL     1       4.921   6.082  16.867  0.00  0.00    +0.000 A 
ATOM      6  C   UNL     1       6.166   6.313  16.257  0.00  0.00    +0.000 A 
ATOM      7  C   UNL     1       6.877   5.260  15.687  0.00  0.00    +0.000 A 
ATOM      8  C   UNL     1       6.356   3.968  15.719  0.00  0.00    +0.000 A 
ATOM      9  C   UNL     1       5.120   3.723  16.318  0.00  0.00    +0.000 A 
ATOM     10  C   UNL     1       4.380   4.773  16.905  0.00  0.00    +0.000 A 
ENDROOT
BRANCH   3  11
ATOM     11  C   UNL     1       2.175   8.056  18.641  0.00  0.00    +0.000 A 
ATOM     12  C   UNL     1       1.769   7.957  19.989  0.00  0.00    +0.000 A 
ATOM     13  C   UNL     1       1.041   8.988  20.597  0.00  0.00    +0.000 A 
ATOM     14  C   UNL     1       0.697  10.128  19.873  0.00  0.00    +0.000 A 
ATOM     15  C   UNL     1       1.087  10.246  18.539  0.00  0.00    +0.000 A 
ATOM     16  C   UNL     1       1.819   9.225  17.926  0.00  0.00    +0.000 A 
ENDBRANCH   3  11
BRANCH   1  17
ATOM     17  N   UNL     1       2.467   3.315  17.530  0.00  0.00    +0.000 N 
ATOM     18  H   UNL     1       1.761   3.076  16.824  0.00  0.00    +0.000 HD
BRANCH  17  22
ATOM     19  C   UNL     1       1.629   3.675  21.056  0.00  0.00    +0.000 C 
ATOM     20  C   UNL     1       2.919   4.168  20.370  0.00  0.00    +0.000 C 
ATOM     21  C   UNL     1       3.643   3.000  19.669  0.00  0.00    +0.000 C 
ATOM     22  C   UNL     1       2.735   2.355  18.592  0.00  0.00    +0.000 C 
ATOM     23  C   UNL     1       1.424   1.878  19.267  0.00  0.00    +0.000 C 
ATOM     24  C   UNL     1       0.704   3.020  20.011  0.00  0.00    +0.000 C 
BRANCH  19  25
ATOM     25  N   UNL     1       1.960   2.726  22.123  0.00  0.00    +0.000 NA
ATOM     26  H   UNL     1       2.024   3.247  23.028  0.00  0.00    +0.000 HD
ATOM     27  H   UNL     1       1.189   2.026  22.221  0.00  0.00    +0.000 HD
ENDBRANCH  19  25
ENDBRANCH  17  22
ENDBRANCH   1  17
TORSDOF 4
ENDMDL
MODEL 5
REMARK VINA RESULT:      -8.0      1.102      1.152
REMARK  Name = 
REMARK  4 active torsions:
REMARK  status: ('A' for Active; 'I' for Inactive)
REMARK    1  A    between atoms: N_1  and  C_2
REMARK    2  A    between atoms: C_5  and  N_6
REMARK    3  A    between atoms: N_6  and  C_7
REMARK    4  A    between atoms: C_9  and  C_10
REMARK                            x       y       z     vdW  Elec       q    Type
REMARK                         _______ _______ _______ _____ _____    ______ ____
ROOT
ATOM      1  C   UNL     1       2.705   5.855  18.479  0.00  0.00    +0.000 A 
ATOM      2  N   UNL     1       2.301   7.052  18.995  0.00  0.00    +0.000 NA
ATOM      3  C   UNL     1       1.610   7.180  20.165  0.00  0.00    +0.000 A 
ATOM      4  C   UNL     1       1.316   6.018  20.896  0.00  0.00    +0.000 A 
ATOM      5  C   UNL     1       1.711   4.768  20.415  0.00  0.00    +0.000 A 
ATOM      6  C   UNL     1       1.428   3.616  21.169  0.00  0.00    +0.000 A 
ATOM      7  C   UNL     1       1.827   2.362  20.713  0.00  0.00    +0.000 A 
ATOM      8  C   UNL     1       2.509   2.243  19.503  0.00  0.00    +0.000 A 
ATOM      9  C   UNL     1       2.800   3.378  18.746  0.00  0.00    +0.000 A 
ATOM     10  C   UNL     1       2.406   4.660  19.185  0.00  0.00    +0.000 A 
ENDROOT
BRANCH   3  11
ATOM     11  C   UNL     1       1.190   8.545  20.629  0.00  0.00    +0.000 A 
ATOM     12  C   UNL     1       1.115   9.609  19.703  0.00  0.00    +0.000 A 
ATOM     13  C   UNL     1       0.718  10.889  20.111  0.00  0.00    +0.000 A 
ATOM     14  C   UNL     1       0.396  11.134  21.444  0.00  0.00    +0.000 A 
ATOM     15  C   UNL     1       0.464  10.098  22.375  0.00  0.00    +0.000 A 
ATOM     16  C   UNL     1       0.853   8.816  21.977  0.00  0.00    +0.000 A 
ENDBRANCH   3  11
BRANCH   1  17
ATOM     17  N   UNL     1       3.442   5.836  17.255  0.00  0.00    +0.000 N 
ATOM     18  H   UNL     1       3.063   5.343  16.438  0.00  0.00    +0.000 HD
BRANCH  17  22
ATOM     19  C   UNL     1       6.496   4.187  16.152  0.00  0.00    +0.000 C 
ATOM     20  C   UNL     1       5.949   4.224  17.593  0.00  0.00    +0.000 C 
ATOM     21  C   UNL     1       5.761   5.680  18.066  0.00  0.00    +0.000 C 
ATOM     22  C   UNL     1       4.766   6.434  17.148  0.00  0.00    +0.000 C 
ATOM     23  C   UNL     1       5.294   6.381  15.692  0.00  0.00    +0.000 C 
ATOM     24  C   UNL     1       5.531   4.936  15.212  0.00  0.00    +0.000 C 
BRANCH  19  25
ATOM     25  N   UNL     1       7.833   4.787  16.106  0.00  0.00    +0.000 NA
ATOM     26  H   UNL     1       7.793   5.651  15.518  0.00  0.00    +0.000 HD
ATOM     27  H   UNL     1       8.121   5.078  17.068  0.00  0.00    +0.000 HD
ENDBRANCH  19  25
ENDBRANCH  17  22
ENDBRANCH   1  17
TORSDOF 4
ENDMDL
MODEL 6
REMARK VINA RESULT:      -7.7      1.785      4.694
REMARK  Name = 
REMARK  4 active torsions:
REMARK  status: ('A' for Active; 'I' for Inactive)
REMARK    1  A    between atoms: N_1  and  C_2
REMARK    2  A    between atoms: C_5  and  N_6
REMARK    3  A    between atoms: N_6  and  C_7
REMARK    4  A    between atoms: C_9  and  C_10
REMARK                            x       y       z     vdW  Elec       q    Type
REMARK                         _______ _______ _______ _____ _____    ______ ____
ROOT
ATOM      1  C   UNL     1       4.299   5.051  18.757  0.00  0.00    +0.000 A 
ATOM      2  N   UNL     1       3.425   6.047  19.084  0.00  0.00    +0.000 NA
ATOM      3  C   UNL     1       3.157   7.116  18.278  0.00  0.00    +0.000 A 
ATOM      4  C   UNL     1       3.797   7.187  17.031  0.00  0.00    +0.000 A 
ATOM      5  C   UNL     1       4.697   6.191  16.646  0.00  0.00    +0.000 A 
ATOM      6  C   UNL     1       5.314   6.266  15.385  0.00  0.00    +0.000 A 
ATOM      7  C   UNL     1       6.203   5.274  14.978  0.00  0.00    +0.000 A 
ATOM      8  C   UNL     1       6.487   4.202  15.820  0.00  0.00    +0.000 A 
ATOM      9  C   UNL     1       5.880   4.112  17.074  0.00  0.00    +0.000 A 
ATOM     10  C   UNL     1       4.977   5.105  17.512  0.00  0.00    +0.000 A 
ENDROOT
BRANCH   3  11
ATOM     11  C   UNL     1       2.198   8.172  18.748  0.00  0.00    +0.000 A 
ATOM     12  C   UNL     1       1.742   8.162  20.084  0.00  0.00    +0.000 A 
ATOM     13  C   UNL     1       0.853   9.142  20.546  0.00  0.00    +0.000 A 
ATOM     14  C   UNL     1       0.397  10.139  19.687  0.00  0.00    +0.000 A 
ATOM     15  C   UNL     1       0.834  10.167  18.363  0.00  0.00    +0.000 A 
ATOM     16  C   UNL     1       1.725   9.198  17.895  0.00  0.00    +0.000 A 
ENDBRANCH   3  11
BRANCH   1  17
ATOM     17  N   UNL     1       4.490   3.965  19.666  0.00  0.00    +0.000 N 
ATOM     18  H   UNL     1       5.236   4.013  20.370  0.00  0.00    +0.000 HD
BRANCH  17  22
ATOM     19  C   UNL     1       0.867   3.689  19.910  0.00  0.00    +0.000 C 
ATOM     20  C   UNL     1       1.865   3.660  21.085  0.00  0.00    +0.000 C 
ATOM     21  C   UNL     1       2.903   2.535  20.890  0.00  0.00    +0.000 C 
ATOM     22  C   UNL     1       3.701   2.744  19.578  0.00  0.00    +0.000 C 
ATOM     23  C   UNL     1       2.705   2.799  18.392  0.00  0.00    +0.000 C 
ATOM     24  C   UNL     1       1.631   3.888  18.586  0.00  0.00    +0.000 C 
BRANCH  19  25
ATOM     25  N   UNL     1       0.092   2.445  19.879  0.00  0.00    +0.000 NA
ATOM     26  H   UNL     1      -0.911   2.679  19.696  0.00  0.00    +0.000 HD
ATOM     27  H   UNL     1       0.421   1.845  19.088  0.00  0.00    +0.000 HD
ENDBRANCH  19  25
ENDBRANCH  17  22
ENDBRANCH   1  17
TORSDOF 4
ENDMDL
MODEL 7
REMARK VINA RESULT:      -7.7      2.031      4.507
REMARK  Name = 
REMARK  4 active torsions:
REMARK  status: ('A' for Active; 'I' for Inactive)
REMARK    1  A    between atoms: N_1  and  C_2
REMARK    2  A    between atoms: C_5  and  N_6
REMARK    3  A    between atoms: N_6  and  C_7
REMARK    4  A    between atoms: C_9  and  C_10
REMARK                            x       y       z     vdW  Elec       q    Type
REMARK                         _______ _______ _______ _____ _____    ______ ____
ROOT
ATOM      1  C   UNL     1       3.185   5.915  19.596  0.00  0.00    +0.000 A 
ATOM      2  N   UNL     1       2.313   6.946  19.791  0.00  0.00    +0.000 NA
ATOM      3  C   UNL     1       2.181   8.001  18.935  0.00  0.00    +0.000 A 
ATOM      4  C   UNL     1       2.970   8.018  17.774  0.00  0.00    +0.000 A 
ATOM      5  C   UNL     1       3.875   6.984  17.524  0.00  0.00    +0.000 A 
ATOM      6  C   UNL     1       4.641   7.006  16.346  0.00  0.00    +0.000 A 
ATOM      7  C   UNL     1       5.538   5.976  16.072  0.00  0.00    +0.000 A 
ATOM      8  C   UNL     1       5.681   4.918  16.967  0.00  0.00    +0.000 A 
ATOM      9  C   UNL     1       4.924   4.881  18.139  0.00  0.00    +0.000 A 
ATOM     10  C   UNL     1       4.009   5.913  18.441  0.00  0.00    +0.000 A 
ENDROOT
BRANCH   3  11
ATOM     11  C   UNL     1       1.209   9.098  19.260  0.00  0.00    +0.000 A 
ATOM     12  C   UNL     1       0.765   9.272  20.588  0.00  0.00    +0.000 A 
ATOM     13  C   UNL     1      -0.136  10.294  20.916  0.00  0.00    +0.000 A 
ATOM     14  C   UNL     1      -0.615  11.153  19.929  0.00  0.00    +0.000 A 
ATOM     15  C   UNL     1      -0.189  10.999  18.610  0.00  0.00    +0.000 A 
ATOM     16  C   UNL     1       0.713   9.986  18.275  0.00  0.00    +0.000 A 
ENDBRANCH   3  11
BRANCH   1  17
ATOM     17  N   UNL     1       3.227   4.847  20.546  0.00  0.00    +0.000 N 
ATOM     18  H   UNL     1       4.110   4.618  21.016  0.00  0.00    +0.000 HD
BRANCH  17  22
ATOM     19  C   UNL     1       1.722   2.408  18.300  0.00  0.00    +0.000 C 
ATOM     20  C   UNL     1       1.396   3.914  18.362  0.00  0.00    +0.000 C 
ATOM     21  C   UNL     1       0.948   4.315  19.782  0.00  0.00    +0.000 C 
ATOM     22  C   UNL     1       2.063   4.016  20.817  0.00  0.00    +0.000 C 
ATOM     23  C   UNL     1       2.416   2.508  20.745  0.00  0.00    +0.000 C 
ATOM     24  C   UNL     1       2.825   2.074  19.324  0.00  0.00    +0.000 C 
BRANCH  19  25
ATOM     25  N   UNL     1       0.513   1.621  18.564  0.00  0.00    +0.000 NA
ATOM     26  H   UNL     1       0.061   1.384  17.651  0.00  0.00    +0.000 HD
ATOM     27  H   UNL     1       0.775   0.720  19.024  0.00  0.00    +0.000 HD
ENDBRANCH  19  25
ENDBRANCH  17  22
ENDBRANCH   1  17
TORSDOF 4
ENDMDL
MODEL 8
REMARK VINA RESULT:      -7.6      1.740      6.463
REMARK  Name = 
REMARK  4 active torsions:
REMARK  status: ('A' for Active; 'I' for Inactive)
REMARK    1  A    between atoms: N_1  and  C_2
REMARK    2  A    between atoms: C_5  and  N_6
REMARK    3  A    between atoms: N_6  and  C_7
REMARK    4  A    between atoms: C_9  and  C_10
REMARK                            x       y       z     vdW  Elec       q    Type
REMARK                         _______ _______ _______ _____ _____    ______ ____
ROOT
ATOM      1  C   UNL     1       2.920   6.205  19.764  0.00  0.00    +0.000 A 
ATOM      2  N   UNL     1       3.859   5.741  18.889  0.00  0.00    +0.000 NA
ATOM      3  C   UNL     1       4.202   6.382  17.734  0.00  0.00    +0.000 A 
ATOM      4  C   UNL     1       3.572   7.601  17.437  0.00  0.00    +0.000 A 
ATOM      5  C   UNL     1       2.608   8.123  18.301  0.00  0.00    +0.000 A 
ATOM      6  C   UNL     1       2.002   9.355  18.000  0.00  0.00    +0.000 A 
ATOM      7  C   UNL     1       1.049   9.898  18.858  0.00  0.00    +0.000 A 
ATOM      8  C   UNL     1       0.690   9.221  20.021  0.00  0.00    +0.000 A 
ATOM      9  C   UNL     1       1.284   7.998  20.336  0.00  0.00    +0.000 A 
ATOM     10  C   UNL     1       2.252   7.425  19.482  0.00  0.00    +0.000 A 
ENDROOT
BRANCH   3  11
ATOM     11  C   UNL     1       5.230   5.769  16.827  0.00  0.00    +0.000 A 
ATOM     12  C   UNL     1       6.325   5.070  17.379  0.00  0.00    +0.000 A 
ATOM     13  C   UNL     1       7.292   4.483  16.552  0.00  0.00    +0.000 A 
ATOM     14  C   UNL     1       7.190   4.587  15.167  0.00  0.00    +0.000 A 
ATOM     15  C   UNL     1       6.116   5.275  14.600  0.00  0.00    +0.000 A 
ATOM     16  C   UNL     1       5.144   5.858  15.417  0.00  0.00    +0.000 A 
ENDBRANCH   3  11
BRANCH   1  17
ATOM     17  N   UNL     1       2.652   5.465  20.958  0.00  0.00    +0.000 N 
ATOM     18  H   UNL     1       3.227   5.621  21.794  0.00  0.00    +0.000 HD
BRANCH  17  22
ATOM     19  C   UNL     1       2.596   2.365  19.048  0.00  0.00    +0.000 C 
ATOM     20  C   UNL     1       2.036   3.727  18.592  0.00  0.00    +0.000 C 
ATOM     21  C   UNL     1       0.994   4.252  19.602  0.00  0.00    +0.000 C 
ATOM     22  C   UNL     1       1.628   4.431  21.005  0.00  0.00    +0.000 C 
ATOM     23  C   UNL     1       2.218   3.072  21.463  0.00  0.00    +0.000 C 
ATOM     24  C   UNL     1       3.230   2.507  20.447  0.00  0.00    +0.000 C 
BRANCH  19  25
ATOM     25  N   UNL     1       1.528   1.361  19.062  0.00  0.00    +0.000 NA
ATOM     26  H   UNL     1       1.230   1.202  20.053  0.00  0.00    +0.000 HD
ATOM     27  H   UNL     1       0.697   1.725  18.542  0.00  0.00    +0.000 HD
ENDBRANCH  19  25
ENDBRANCH  17  22
ENDBRANCH   1  17
TORSDOF 4
ENDMDL
