MODEL 1
REMARK VINA RESULT:      -7.6      0.000      0.000
REMARK  Name = 
REMARK  9 active torsions:
REMARK  status: ('A' for Active; 'I' for Inactive)
REMARK    1  A    between atoms: C_1  and  C_2
REMARK    2  A    between atoms: C_4  and  N_5
REMARK    3  A    between atoms: C_6  and  C_8
REMARK    4  A    between atoms: C_13  and  C_14
REMARK    5  A    between atoms: C_14  and  C_15
REMARK    6  A    between atoms: C_14  and  N_21
REMARK    7  A    between atoms: C_24  and  C_25
REMARK    8  A    between atoms: C_25  and  C_26
REMARK    9  A    between atoms: C_34  and  C_35
REMARK                            x       y       z     vdW  Elec       q    Type
REMARK                         _______ _______ _______ _____ _____    ______ ____
ROOT
ATOM      1  C   UNL     1      -0.442  11.537  18.996  0.00  0.00    +0.000 C 
ENDROOT
BRANCH   1   6
ATOM      2  C   UNL     1       0.260   9.272  23.622  0.00  0.00    +0.000 C 
ATOM      3  C   UNL     1       0.356   9.502  22.149  0.00  0.00    +0.000 A 
ATOM      4  S   UNL     1       1.373   8.550  21.224  0.00  0.00    +0.000 S 
ATOM      5  C   UNL     1       1.115   9.406  19.795  0.00  0.00    +0.000 A 
ATOM      6  C   UNL     1       0.160  10.448  19.967  0.00  0.00    +0.000 A 
ATOM      7  C   UNL     1      -0.324  10.420  21.376  0.00  0.00    +0.000 A 
ATOM      8  C   UNL     1      -1.391  11.286  21.984  0.00  0.00    +0.000 C 
BRANCH   5   9
ATOM      9  N   UNL     1       1.841   9.009  18.673  0.00  0.00    +0.000 N 
ATOM     10  C   UNL     1       2.409   7.827  18.161  0.00  0.00    +0.000 C 
ATOM     11  O   UNL     1       2.930   8.029  17.049  0.00  0.00    +0.000 OA
ATOM     12  H   UNL     1       2.043   9.750  18.013  0.00  0.00    +0.000 HD
BRANCH  10  13
ATOM     13  C   UNL     1       2.491   6.454  18.698  0.00  0.00    +0.000 A 
ATOM     14  C   UNL     1       1.901   5.293  18.180  0.00  0.00    +0.000 A 
ATOM     15  C   UNL     1       2.256   4.206  19.024  0.00  0.00    +0.000 A 
ATOM     16  C   UNL     1       3.061   4.743  19.999  0.00  0.00    +0.000 A 
ATOM     17  O   UNL     1       3.215   6.080  19.791  0.00  0.00    +0.000 OA
ENDBRANCH  10  13
ENDBRANCH   5   9
ENDBRANCH   1   6
BRANCH   1  18
ATOM     18  C   UNL     1       0.484  12.744  18.748  0.00  0.00    +0.000 A 
ATOM     19  C   UNL     1       0.098  14.057  19.128  0.00  0.00    +0.000 A 
ATOM     20  C   UNL     1       0.882  15.182  18.892  0.00  0.00    +0.000 A 
ATOM     21  C   UNL     1       2.149  14.969  18.400  0.00  0.00    +0.000 A 
ATOM     22  N   UNL     1       2.637  13.741  18.161  0.00  0.00    +0.000 NA
ATOM     23  C   UNL     1       1.811  12.673  18.352  0.00  0.00    +0.000 A 
ENDBRANCH   1  18
BRANCH   1  24
ATOM     24  N   UNL     1      -1.291  10.951  17.895  0.00  0.00    +0.000 NA
ATOM     25  C   UNL     1      -2.277   9.971  18.368  0.00  0.00    +0.000 C 
ATOM     26  C   UNL     1      -3.341   9.469  17.407  0.00  0.00    +0.000 C 
ATOM     27  C   UNL     1      -4.057  10.664  16.782  0.00  0.00    +0.000 C 
ATOM     28  C   UNL     1      -2.935  11.381  15.985  0.00  0.00    +0.000 C 
ATOM     29  C   UNL     1      -1.773  11.885  16.881  0.00  0.00    +0.000 C 
BRANCH  27  30
ATOM     30  C   UNL     1      -4.732  11.694  17.742  0.00  0.00    +0.000 C 
BRANCH  30  31
ATOM     31  C   UNL     1      -5.792  11.399  18.785  0.00  0.00    +0.000 A 
ATOM     32  C   UNL     1      -6.516  10.214  18.929  0.00  0.00    +0.000 A 
ATOM     33  C   UNL     1      -7.397  10.044  20.014  0.00  0.00    +0.000 A 
ATOM     34  C   UNL     1      -7.587  11.071  20.945  0.00  0.00    +0.000 A 
ATOM     35  C   UNL     1      -6.936  12.284  20.771  0.00  0.00    +0.000 A 
ATOM     36  C   UNL     1      -6.062  12.445  19.697  0.00  0.00    +0.000 A 
ENDBRANCH  30  31
ENDBRANCH  27  30
ENDBRANCH   1  24
TORSDOF 7
ENDMDL
MODEL 2
REMARK VINA RESULT:      -7.5      2.651      4.839
REMARK  Name = 
REMARK  9 active torsions:
REMARK  status: ('A' for Active; 'I' for Inactive)
REMARK    1  A    between atoms: C_1  and  C_2
REMARK    2  A    between atoms: C_4  and  N_5
REMARK    3  A    between atoms: C_6  and  C_8
REMARK    4  A    between atoms: C_13  and  C_14
REMARK    5  A    between atoms: C_14  and  C_15
REMARK    6  A    between atoms: C_14  and  N_21
REMARK    7  A    between atoms: C_24  and  C_25
REMARK    8  A    between atoms: C_25  and  C_26
REMARK    9  A    between atoms: C_34  and  C_35
REMARK                            x       y       z     vdW  Elec       q    Type
REMARK                         _______ _______ _______ _____ _____    ______ ____
ROOT
ATOM      1  C   UNL     1      -0.734  11.748  19.158  0.00  0.00    +0.000 C 
ENDROOT
BRANCH   1   6
ATOM      2  C   UNL     1       1.705   7.521  20.949  0.00  0.00    +0.000 C 
ATOM      3  C   UNL     1       0.953   8.811  20.962  0.00  0.00    +0.000 A 
ATOM      4  S   UNL     1       0.354   9.410  22.404  0.00  0.00    +0.000 S 
ATOM      5  C   UNL     1      -0.453  10.711  21.698  0.00  0.00    +0.000 A 
ATOM      6  C   UNL     1      -0.232  10.771  20.292  0.00  0.00    +0.000 A 
ATOM      7  C   UNL     1       0.678   9.657  19.906  0.00  0.00    +0.000 A 
ATOM      8  C   UNL     1       1.243   9.380  18.542  0.00  0.00    +0.000 C 
BRANCH   5   9
ATOM      9  N   UNL     1      -1.208  11.527  22.540  0.00  0.00    +0.000 N 
ATOM     10  C   UNL     1      -1.242  12.879  22.928  0.00  0.00    +0.000 C 
ATOM     11  O   UNL     1      -2.190  13.095  23.705  0.00  0.00    +0.000 OA
ATOM     12  H   UNL     1      -1.953  11.052  23.035  0.00  0.00    +0.000 HD
BRANCH  10  13
ATOM     13  C   UNL     1      -0.379  14.029  22.590  0.00  0.00    +0.000 A 
ATOM     14  C   UNL     1      -0.734  15.383  22.543  0.00  0.00    +0.000 A 
ATOM     15  C   UNL     1       0.421  16.128  22.177  0.00  0.00    +0.000 A 
ATOM     16  C   UNL     1       1.428  15.202  22.041  0.00  0.00    +0.000 A 
ATOM     17  O   UNL     1       0.953  13.954  22.308  0.00  0.00    +0.000 OA
ENDBRANCH  10  13
ENDBRANCH   5   9
ENDBRANCH   1   6
BRANCH   1  18
ATOM     18  C   UNL     1       0.202  12.943  18.893  0.00  0.00    +0.000 A 
ATOM     19  C   UNL     1      -0.298  14.272  18.846  0.00  0.00    +0.000 A 
ATOM     20  C   UNL     1       0.500  15.378  18.574  0.00  0.00    +0.000 A 
ATOM     21  C   UNL     1       1.857  15.167  18.496  0.00  0.00    +0.000 A 
ATOM     22  N   UNL     1       2.415  13.959  18.683  0.00  0.00    +0.000 NA
ATOM     23  C   UNL     1       1.588  12.895  18.888  0.00  0.00    +0.000 A 
ENDBRANCH   1  18
BRANCH   1  24
ATOM     24  N   UNL     1      -1.450  11.039  18.035  0.00  0.00    +0.000 NA
ATOM     25  C   UNL     1      -2.496  10.114  18.492  0.00  0.00    +0.000 C 
ATOM     26  C   UNL     1      -3.442   9.505  17.471  0.00  0.00    +0.000 C 
ATOM     27  C   UNL     1      -4.065  10.620  16.635  0.00  0.00    +0.000 C 
ATOM     28  C   UNL     1      -2.849  11.247  15.905  0.00  0.00    +0.000 C 
ATOM     29  C   UNL     1      -1.798  11.852  16.872  0.00  0.00    +0.000 C 
BRANCH  27  30
ATOM     30  C   UNL     1      -4.841  11.749  17.386  0.00  0.00    +0.000 C 
BRANCH  30  31
ATOM     31  C   UNL     1      -5.669  11.594  18.646  0.00  0.00    +0.000 A 
ATOM     32  C   UNL     1      -5.770  12.506  19.697  0.00  0.00    +0.000 A 
ATOM     33  C   UNL     1      -6.665  12.273  20.760  0.00  0.00    +0.000 A 
ATOM     34  C   UNL     1      -7.440  11.110  20.796  0.00  0.00    +0.000 A 
ATOM     35  C   UNL     1      -7.292  10.154  19.800  0.00  0.00    +0.000 A 
ATOM     36  C   UNL     1      -6.409  10.393  18.749  0.00  0.00    +0.000 A 
ENDBRANCH  30  31
ENDBRANCH  27  30
ENDBRANCH   1  24
TORSDOF 7
ENDMDL
MODEL 3
REMARK VINA RESULT:      -7.3      3.587      6.226
REMARK  Name = 
REMARK  9 active torsions:
REMARK  status: ('A' for Active; 'I' for Inactive)
REMARK    1  A    between atoms: C_1  and  C_2
REMARK    2  A    between atoms: C_4  and  N_5
REMARK    3  A    between atoms: C_6  and  C_8
REMARK    4  A    between atoms: C_13  and  C_14
REMARK    5  A    between atoms: C_14  and  C_15
REMARK    6  A    between atoms: C_14  and  N_21
REMARK    7  A    between atoms: C_24  and  C_25
REMARK    8  A    between atoms: C_25  and  C_26
REMARK    9  A    between atoms: C_34  and  C_35
REMARK                            x       y       z     vdW  Elec       q    Type
REMARK                         _______ _______ _______ _____ _____    ______ ____
ROOT
ATOM      1  C   UNL     1      -0.242  11.325  19.168  0.00  0.00    +0.000 C 
ENDROOT
BRANCH   1   6
ATOM      2  C   UNL     1       2.974  15.317  18.301  0.00  0.00    +0.000 C 
ATOM      3  C   UNL     1       1.710  14.580  18.600  0.00  0.00    +0.000 A 
ATOM      4  S   UNL     1       0.339  15.428  19.047  0.00  0.00    +0.000 S 
ATOM      5  C   UNL     1      -0.587  14.055  19.360  0.00  0.00    +0.000 A 
ATOM      6  C   UNL     1       0.124  12.858  19.062  0.00  0.00    +0.000 A 
ATOM      7  C   UNL     1       1.470  13.223  18.538  0.00  0.00    +0.000 A 
ATOM      8  C   UNL     1       2.527  12.286  18.025  0.00  0.00    +0.000 C 
BRANCH   5   9
ATOM      9  N   UNL     1      -1.876  14.253  19.854  0.00  0.00    +0.000 N 
ATOM     10  C   UNL     1      -2.482  14.649  21.061  0.00  0.00    +0.000 C 
ATOM     11  O   UNL     1      -3.719  14.705  20.940  0.00  0.00    +0.000 OA
ATOM     12  H   UNL     1      -2.618  14.067  19.191  0.00  0.00    +0.000 HD
BRANCH  10  13
ATOM     13  C   UNL     1      -1.923  14.989  22.385  0.00  0.00    +0.000 A 
ATOM     14  C   UNL     1      -0.983  15.983  22.691  0.00  0.00    +0.000 A 
ATOM     15  C   UNL     1      -0.748  15.948  24.092  0.00  0.00    +0.000 A 
ATOM     16  C   UNL     1      -1.566  14.957  24.580  0.00  0.00    +0.000 A 
ATOM     17  O   UNL     1      -2.280  14.400  23.562  0.00  0.00    +0.000 OA
ENDBRANCH  10  13
ENDBRANCH   5   9
ENDBRANCH   1   6
BRANCH   1  18
ATOM     18  C   UNL     1      -0.341  10.797  20.611  0.00  0.00    +0.000 A 
ATOM     19  C   UNL     1       0.045   9.469  20.937  0.00  0.00    +0.000 A 
ATOM     20  C   UNL     1      -0.060   8.936  22.217  0.00  0.00    +0.000 A 
ATOM     21  C   UNL     1      -0.420   9.798  23.227  0.00  0.00    +0.000 A 
ATOM     22  N   UNL     1      -0.651  11.104  23.017  0.00  0.00    +0.000 NA
ATOM     23  C   UNL     1      -0.593  11.569  21.735  0.00  0.00    +0.000 A 
ENDBRANCH   1  18
BRANCH   1  24
ATOM     24  N   UNL     1      -1.189  10.862  18.088  0.00  0.00    +0.000 NA
ATOM     25  C   UNL     1      -2.175   9.877  18.550  0.00  0.00    +0.000 C 
ATOM     26  C   UNL     1      -3.323   9.494  17.632  0.00  0.00    +0.000 C 
ATOM     27  C   UNL     1      -4.036  10.760  17.162  0.00  0.00    +0.000 C 
ATOM     28  C   UNL     1      -2.947  11.505  16.347  0.00  0.00    +0.000 C 
ATOM     29  C   UNL     1      -1.706  11.894  17.193  0.00  0.00    +0.000 C 
BRANCH  27  30
ATOM     30  C   UNL     1      -4.602  11.726  18.251  0.00  0.00    +0.000 C 
BRANCH  30  31
ATOM     31  C   UNL     1      -5.761  11.452  19.188  0.00  0.00    +0.000 A 
ATOM     32  C   UNL     1      -6.611  10.345  19.166  0.00  0.00    +0.000 A 
ATOM     33  C   UNL     1      -7.584  10.173  20.170  0.00  0.00    +0.000 A 
ATOM     34  C   UNL     1      -7.737  11.124  21.183  0.00  0.00    +0.000 A 
ATOM     35  C   UNL     1      -6.956  12.271  21.174  0.00  0.00    +0.000 A 
ATOM     36  C   UNL     1      -5.991  12.433  20.180  0.00  0.00    +0.000 A 
ENDBRANCH  30  31
ENDBRANCH  27  30
ENDBRANCH   1  24
TORSDOF 7
ENDMDL
MODEL 4
REMARK VINA RESULT:      -7.3      0.796      1.305
REMARK  Name = 
REMARK  9 active torsions:
REMARK  status: ('A' for Active; 'I' for Inactive)
REMARK    1  A    between atoms: C_1  and  C_2
REMARK    2  A    between atoms: C_4  and  N_5
REMARK    3  A    between atoms: C_6  and  C_8
REMARK    4  A    between atoms: C_13  and  C_14
REMARK    5  A    between atoms: C_14  and  C_15
REMARK    6  A    between atoms: C_14  and  N_21
REMARK    7  A    between atoms: C_24  and  C_25
REMARK    8  A    between atoms: C_25  and  C_26
REMARK    9  A    between atoms: C_34  and  C_35
REMARK                            x       y       z     vdW  Elec       q    Type
REMARK                         _______ _______ _______ _____ _____    ______ ____
ROOT
ATOM      1  C   UNL     1      -0.688  11.571  19.162  0.00  0.00    +0.000 C 
ENDROOT
BRANCH   1   6
ATOM      2  C   UNL     1       0.237   9.414  23.800  0.00  0.00    +0.000 C 
ATOM      3  C   UNL     1       0.273   9.616  22.321  0.00  0.00    +0.000 A 
ATOM      4  S   UNL     1       1.275   8.667  21.376  0.00  0.00    +0.000 S 
ATOM      5  C   UNL     1       0.945   9.489  19.942  0.00  0.00    +0.000 A 
ATOM      6  C   UNL     1      -0.026  10.514  20.130  0.00  0.00    +0.000 A 
ATOM      7  C   UNL     1      -0.456  10.504  21.557  0.00  0.00    +0.000 A 
ATOM      8  C   UNL     1      -1.519  11.358  22.188  0.00  0.00    +0.000 C 
BRANCH   5   9
ATOM      9  N   UNL     1       1.637   9.085  18.801  0.00  0.00    +0.000 N 
ATOM     10  C   UNL     1       2.325   7.945  18.346  0.00  0.00    +0.000 C 
ATOM     11  O   UNL     1       2.732   8.107  17.181  0.00  0.00    +0.000 OA
ATOM     12  H   UNL     1       1.686   9.780  18.066  0.00  0.00    +0.000 HD
BRANCH  10  13
ATOM     13  C   UNL     1       2.635   6.653  18.990  0.00  0.00    +0.000 A 
ATOM     14  C   UNL     1       3.879   6.014  19.075  0.00  0.00    +0.000 A 
ATOM     15  C   UNL     1       3.700   4.797  19.788  0.00  0.00    +0.000 A 
ATOM     16  C   UNL     1       2.368   4.759  20.124  0.00  0.00    +0.000 A 
ATOM     17  O   UNL     1       1.740   5.877  19.664  0.00  0.00    +0.000 OA
ENDBRANCH  10  13
ENDBRANCH   5   9
ENDBRANCH   1   6
BRANCH   1  18
ATOM     18  C   UNL     1       0.129  12.865  18.985  0.00  0.00    +0.000 A 
ATOM     19  C   UNL     1       1.452  12.836  18.469  0.00  0.00    +0.000 A 
ATOM     20  C   UNL     1       2.240  13.973  18.325  0.00  0.00    +0.000 A 
ATOM     21  C   UNL     1       1.639  15.186  18.563  0.00  0.00    +0.000 A 
ATOM     22  N   UNL     1       0.345  15.299  18.907  0.00  0.00    +0.000 NA
ATOM     23  C   UNL     1      -0.372  14.154  19.093  0.00  0.00    +0.000 A 
ENDBRANCH   1  18
BRANCH   1  24
ATOM     24  N   UNL     1      -1.432  10.940  18.011  0.00  0.00    +0.000 NA
ATOM     25  C   UNL     1      -2.544  10.077  18.428  0.00  0.00    +0.000 C 
ATOM     26  C   UNL     1      -3.513   9.558  17.379  0.00  0.00    +0.000 C 
ATOM     27  C   UNL     1      -4.046  10.734  16.563  0.00  0.00    +0.000 C 
ATOM     28  C   UNL     1      -2.779  11.295  15.867  0.00  0.00    +0.000 C 
ATOM     29  C   UNL     1      -1.706  11.803  16.865  0.00  0.00    +0.000 C 
BRANCH  27  30
ATOM     30  C   UNL     1      -4.757  11.893  17.332  0.00  0.00    +0.000 C 
BRANCH  30  31
ATOM     31  C   UNL     1      -5.448  11.796  18.677  0.00  0.00    +0.000 A 
ATOM     32  C   UNL     1      -5.065  12.426  19.862  0.00  0.00    +0.000 A 
ATOM     33  C   UNL     1      -5.868  12.327  21.014  0.00  0.00    +0.000 A 
ATOM     34  C   UNL     1      -7.043  11.570  21.000  0.00  0.00    +0.000 A 
ATOM     35  C   UNL     1      -7.397  10.871  19.855  0.00  0.00    +0.000 A 
ATOM     36  C   UNL     1      -6.600  10.977  18.715  0.00  0.00    +0.000 A 
ENDBRANCH  30  31
ENDBRANCH  27  30
ENDBRANCH   1  24
TORSDOF 7
ENDMDL
MODEL 5
REMARK VINA RESULT:      -7.3      3.531      8.203
REMARK  Name = 
REMARK  9 active torsions:
REMARK  status: ('A' for Active; 'I' for Inactive)
REMARK    1  A    between atoms: C_1  and  C_2
REMARK    2  A    between atoms: C_4  and  N_5
REMARK    3  A    between atoms: C_6  and  C_8
REMARK    4  A    between atoms: C_13  and  C_14
REMARK    5  A    between atoms: C_14  and  C_15
REMARK    6  A    between atoms: C_14  and  N_21
REMARK    7  A    between atoms: C_24  and  C_25
REMARK    8  A    between atoms: C_25  and  C_26
REMARK    9  A    between atoms: C_34  and  C_35
REMARK                            x       y       z     vdW  Elec       q    Type
REMARK                         _______ _______ _______ _____ _____    ______ ____
ROOT
ATOM      1  C   UNL     1      -0.663  11.741  19.767  0.00  0.00    +0.000 C 
ENDROOT
BRANCH   1   6
ATOM      2  C   UNL     1      -5.218  11.703  17.264  0.00  0.00    +0.000 C 
ATOM      3  C   UNL     1      -4.233  11.896  18.369  0.00  0.00    +0.000 A 
ATOM      4  S   UNL     1      -4.706  12.655  19.782  0.00  0.00    +0.000 S 
ATOM      5  C   UNL     1      -3.165  12.668  20.464  0.00  0.00    +0.000 A 
ATOM      6  C   UNL     1      -2.212  12.013  19.633  0.00  0.00    +0.000 A 
ATOM      7  C   UNL     1      -2.912  11.499  18.422  0.00  0.00    +0.000 A 
ATOM      8  C   UNL     1      -2.319  10.678  17.313  0.00  0.00    +0.000 C 
BRANCH   5   9
ATOM      9  N   UNL     1      -3.019  13.296  21.701  0.00  0.00    +0.000 N 
ATOM     10  C   UNL     1      -3.824  13.622  22.808  0.00  0.00    +0.000 C 
ATOM     11  O   UNL     1      -3.152  14.164  23.704  0.00  0.00    +0.000 OA
ATOM     12  H   UNL     1      -2.084  13.632  21.899  0.00  0.00    +0.000 HD
BRANCH  10  13
ATOM     13  C   UNL     1      -5.267  13.441  23.071  0.00  0.00    +0.000 A 
ATOM     14  C   UNL     1      -6.298  14.368  22.868  0.00  0.00    +0.000 A 
ATOM     15  C   UNL     1      -7.521  13.755  23.255  0.00  0.00    +0.000 A 
ATOM     16  C   UNL     1      -7.187  12.483  23.653  0.00  0.00    +0.000 A 
ATOM     17  O   UNL     1      -5.844  12.292  23.523  0.00  0.00    +0.000 OA
ENDBRANCH  10  13
ENDBRANCH   5   9
ENDBRANCH   1   6
BRANCH   1  18
ATOM     18  C   UNL     1       0.223  12.957  19.435  0.00  0.00    +0.000 A 
ATOM     19  C   UNL     1       1.311  12.849  18.528  0.00  0.00    +0.000 A 
ATOM     20  C   UNL     1       2.160  13.908  18.224  0.00  0.00    +0.000 A 
ATOM     21  C   UNL     1       1.823  15.144  18.725  0.00  0.00    +0.000 A 
ATOM     22  N   UNL     1       0.721  15.350  19.465  0.00  0.00    +0.000 NA
ATOM     23  C   UNL     1      -0.049  14.271  19.785  0.00  0.00    +0.000 A 
ENDBRANCH   1  18
BRANCH   1  24
ATOM     24  N   UNL     1      -0.318  10.793  20.888  0.00  0.00    +0.000 NA
ATOM     25  C   UNL     1      -0.898   9.453  20.729  0.00  0.00    +0.000 C 
ATOM     26  C   UNL     1      -0.454   8.339  21.661  0.00  0.00    +0.000 C 
ATOM     27  C   UNL     1       1.070   8.249  21.647  0.00  0.00    +0.000 C 
ATOM     28  C   UNL     1       1.518   9.617  22.224  0.00  0.00    +0.000 C 
ATOM     29  C   UNL     1       1.063  10.824  21.363  0.00  0.00    +0.000 C 
BRANCH  27  30
ATOM     30  C   UNL     1       1.775   8.025  20.272  0.00  0.00    +0.000 C 
BRANCH  30  31
ATOM     31  C   UNL     1       2.129   6.692  19.643  0.00  0.00    +0.000 A 
ATOM     32  C   UNL     1       2.637   6.482  18.359  0.00  0.00    +0.000 A 
ATOM     33  C   UNL     1       3.020   5.191  17.947  0.00  0.00    +0.000 A 
ATOM     34  C   UNL     1       2.867   4.095  18.803  0.00  0.00    +0.000 A 
ATOM     35  C   UNL     1       2.289   4.274  20.052  0.00  0.00    +0.000 A 
ATOM     36  C   UNL     1       1.916   5.555  20.456  0.00  0.00    +0.000 A 
ENDBRANCH  30  31
ENDBRANCH  27  30
ENDBRANCH   1  24
TORSDOF 7
ENDMDL
MODEL 6
REMARK VINA RESULT:      -7.3      3.334      6.693
REMARK  Name = 
REMARK  9 active torsions:
REMARK  status: ('A' for Active; 'I' for Inactive)
REMARK    1  A    between atoms: C_1  and  C_2
REMARK    2  A    between atoms: C_4  and  N_5
REMARK    3  A    between atoms: C_6  and  C_8
REMARK    4  A    between atoms: C_13  and  C_14
REMARK    5  A    between atoms: C_14  and  C_15
REMARK    6  A    between atoms: C_14  and  N_21
REMARK    7  A    between atoms: C_24  and  C_25
REMARK    8  A    between atoms: C_25  and  C_26
REMARK    9  A    between atoms: C_34  and  C_35
REMARK                            x       y       z     vdW  Elec       q    Type
REMARK                         _______ _______ _______ _____ _____    ______ ____
ROOT
ATOM      1  C   UNL     1      -1.476  12.556  21.153  0.00  0.00    +0.000 C 
ENDROOT
BRANCH   1   6
ATOM      2  C   UNL     1      -4.929  11.250  17.494  0.00  0.00    +0.000 C 
ATOM      3  C   UNL     1      -3.629  11.650  18.108  0.00  0.00    +0.000 A 
ATOM      4  S   UNL     1      -2.242  11.680  17.174  0.00  0.00    +0.000 S 
ATOM      5  C   UNL     1      -1.209  12.040  18.457  0.00  0.00    +0.000 A 
ATOM      6  C   UNL     1      -1.922  12.220  19.676  0.00  0.00    +0.000 A 
ATOM      7  C   UNL     1      -3.377  12.051  19.405  0.00  0.00    +0.000 A 
ATOM      8  C   UNL     1      -4.507  12.229  20.379  0.00  0.00    +0.000 C 
BRANCH   5   9
ATOM      9  N   UNL     1       0.156  12.109  18.178  0.00  0.00    +0.000 N 
ATOM     10  C   UNL     1       1.208  13.030  18.334  0.00  0.00    +0.000 C 
ATOM     11  O   UNL     1       2.285  12.547  17.938  0.00  0.00    +0.000 OA
ATOM     12  H   UNL     1       0.540  11.285  17.733  0.00  0.00    +0.000 HD
BRANCH  10  13
ATOM     13  C   UNL     1       1.247  14.410  18.859  0.00  0.00    +0.000 A 
ATOM     14  C   UNL     1       0.301  15.427  18.669  0.00  0.00    +0.000 A 
ATOM     15  C   UNL     1       0.754  16.582  19.363  0.00  0.00    +0.000 A 
ATOM     16  C   UNL     1       1.935  16.214  19.961  0.00  0.00    +0.000 A 
ATOM     17  O   UNL     1       2.217  14.913  19.675  0.00  0.00    +0.000 OA
ENDBRANCH  10  13
ENDBRANCH   5   9
ENDBRANCH   1   6
BRANCH   1  18
ATOM     18  C   UNL     1      -0.638  11.452  21.827  0.00  0.00    +0.000 A 
ATOM     19  C   UNL     1      -1.167  10.675  22.892  0.00  0.00    +0.000 A 
ATOM     20  C   UNL     1      -0.438   9.693  23.556  0.00  0.00    +0.000 A 
ATOM     21  C   UNL     1       0.799   9.379  23.044  0.00  0.00    +0.000 A 
ATOM     22  N   UNL     1       1.300   9.967  21.944  0.00  0.00    +0.000 NA
ATOM     23  C   UNL     1       0.574  10.964  21.363  0.00  0.00    +0.000 A 
ENDBRANCH   1  18
BRANCH   1  24
ATOM     24  N   UNL     1      -1.177  14.019  21.367  0.00  0.00    +0.000 NA
ATOM     25  C   UNL     1      -2.363  14.882  21.291  0.00  0.00    +0.000 C 
ATOM     26  C   UNL     1      -2.246  16.339  21.705  0.00  0.00    +0.000 C 
ATOM     27  C   UNL     1      -1.637  16.417  23.103  0.00  0.00    +0.000 C 
ATOM     28  C   UNL     1      -0.220  15.816  22.914  0.00  0.00    +0.000 C 
ATOM     29  C   UNL     1      -0.238  14.339  22.439  0.00  0.00    +0.000 C 
BRANCH  27  30
ATOM     30  C   UNL     1      -2.360  15.652  24.257  0.00  0.00    +0.000 C 
BRANCH  30  31
ATOM     31  C   UNL     1      -3.642  14.851  24.148  0.00  0.00    +0.000 A 
ATOM     32  C   UNL     1      -4.920  15.349  23.892  0.00  0.00    +0.000 A 
ATOM     33  C   UNL     1      -6.005  14.470  23.713  0.00  0.00    +0.000 A 
ATOM     34  C   UNL     1      -5.827  13.087  23.821  0.00  0.00    +0.000 A 
ATOM     35  C   UNL     1      -4.580  12.579  24.155  0.00  0.00    +0.000 A 
ATOM     36  C   UNL     1      -3.508  13.454  24.326  0.00  0.00    +0.000 A 
ENDBRANCH  30  31
ENDBRANCH  27  30
ENDBRANCH   1  24
TORSDOF 7
ENDMDL
MODEL 7
REMARK VINA RESULT:      -7.2      3.460      8.141
REMARK  Name = 
REMARK  9 active torsions:
REMARK  status: ('A' for Active; 'I' for Inactive)
REMARK    1  A    between atoms: C_1  and  C_2
REMARK    2  A    between atoms: C_4  and  N_5
REMARK    3  A    between atoms: C_6  and  C_8
REMARK    4  A    between atoms: C_13  and  C_14
REMARK    5  A    between atoms: C_14  and  C_15
REMARK    6  A    between atoms: C_14  and  N_21
REMARK    7  A    between atoms: C_24  and  C_25
REMARK    8  A    between atoms: C_25  and  C_26
REMARK    9  A    between atoms: C_34  and  C_35
REMARK                            x       y       z     vdW  Elec       q    Type
REMARK                         _______ _______ _______ _____ _____    ______ ____
ROOT
ATOM      1  C   UNL     1      -0.666  11.664  19.639  0.00  0.00    +0.000 C 
ENDROOT
BRANCH   1   6
ATOM      2  C   UNL     1      -5.230  11.641  17.151  0.00  0.00    +0.000 C 
ATOM      3  C   UNL     1      -4.240  11.833  18.252  0.00  0.00    +0.000 A 
ATOM      4  S   UNL     1      -4.704  12.599  19.664  0.00  0.00    +0.000 S 
ATOM      5  C   UNL     1      -3.161  12.607  20.341  0.00  0.00    +0.000 A 
ATOM      6  C   UNL     1      -2.214  11.943  19.510  0.00  0.00    +0.000 A 
ATOM      7  C   UNL     1      -2.921  11.429  18.303  0.00  0.00    +0.000 A 
ATOM      8  C   UNL     1      -2.336  10.600  17.195  0.00  0.00    +0.000 C 
BRANCH   5   9
ATOM      9  N   UNL     1      -3.008  13.239  21.575  0.00  0.00    +0.000 N 
ATOM     10  C   UNL     1      -3.802  13.554  22.693  0.00  0.00    +0.000 C 
ATOM     11  O   UNL     1      -3.126  14.108  23.578  0.00  0.00    +0.000 OA
ATOM     12  H   UNL     1      -2.076  13.590  21.759  0.00  0.00    +0.000 HD
BRANCH  10  13
ATOM     13  C   UNL     1      -5.238  13.351  22.976  0.00  0.00    +0.000 A 
ATOM     14  C   UNL     1      -6.316  14.140  22.553  0.00  0.00    +0.000 A 
ATOM     15  C   UNL     1      -7.510  13.560  23.060  0.00  0.00    +0.000 A 
ATOM     16  C   UNL     1      -7.113  12.437  23.746  0.00  0.00    +0.000 A 
ATOM     17  O   UNL     1      -5.759  12.304  23.677  0.00  0.00    +0.000 OA
ENDBRANCH  10  13
ENDBRANCH   5   9
ENDBRANCH   1   6
BRANCH   1  18
ATOM     18  C   UNL     1       0.227  12.859  19.254  0.00  0.00    +0.000 A 
ATOM     19  C   UNL     1       0.019  14.145  19.820  0.00  0.00    +0.000 A 
ATOM     20  C   UNL     1       0.775  15.262  19.477  0.00  0.00    +0.000 A 
ATOM     21  C   UNL     1       1.861  15.055  18.659  0.00  0.00    +0.000 A 
ATOM     22  N   UNL     1       2.208  13.838  18.208  0.00  0.00    +0.000 NA
ATOM     23  C   UNL     1       1.403  12.783  18.523  0.00  0.00    +0.000 A 
ENDBRANCH   1  18
BRANCH   1  24
ATOM     24  N   UNL     1      -0.318  10.755  20.792  0.00  0.00    +0.000 NA
ATOM     25  C   UNL     1      -0.887   9.407  20.674  0.00  0.00    +0.000 C 
ATOM     26  C   UNL     1      -0.438   8.327  21.644  0.00  0.00    +0.000 C 
ATOM     27  C   UNL     1       1.087   8.249  21.639  0.00  0.00    +0.000 C 
ATOM     28  C   UNL     1       1.521   9.638  22.173  0.00  0.00    +0.000 C 
ATOM     29  C   UNL     1       1.061  10.814  21.271  0.00  0.00    +0.000 C 
BRANCH  27  30
ATOM     30  C   UNL     1       1.799   7.986  20.274  0.00  0.00    +0.000 C 
BRANCH  30  31
ATOM     31  C   UNL     1       2.216   6.640  19.715  0.00  0.00    +0.000 A 
ATOM     32  C   UNL     1       1.948   5.386  20.268  0.00  0.00    +0.000 A 
ATOM     33  C   UNL     1       2.308   4.212  19.578  0.00  0.00    +0.000 A 
ATOM     34  C   UNL     1       2.968   4.283  18.347  0.00  0.00    +0.000 A 
ATOM     35  C   UNL     1       3.313   5.520  17.822  0.00  0.00    +0.000 A 
ATOM     36  C   UNL     1       2.950   6.679  18.507  0.00  0.00    +0.000 A 
ENDBRANCH  30  31
ENDBRANCH  27  30
ENDBRANCH   1  24
TORSDOF 7
ENDMDL
MODEL 8
REMARK VINA RESULT:      -7.2      3.631      8.228
REMARK  Name = 
REMARK  9 active torsions:
REMARK  status: ('A' for Active; 'I' for Inactive)
REMARK    1  A    between atoms: C_1  and  C_2
REMARK    2  A    between atoms: C_4  and  N_5
REMARK    3  A    between atoms: C_6  and  C_8
REMARK    4  A    between atoms: C_13  and  C_14
REMARK    5  A    between atoms: C_14  and  C_15
REMARK    6  A    between atoms: C_14  and  N_21
REMARK    7  A    between atoms: C_24  and  C_25
REMARK    8  A    between atoms: C_25  and  C_26
REMARK    9  A    between atoms: C_34  and  C_35
REMARK                            x       y       z     vdW  Elec       q    Type
REMARK                         _______ _______ _______ _____ _____    ______ ____
ROOT
ATOM      1  C   UNL     1      -1.666  12.086  20.596  0.00  0.00    +0.000 C 
ENDROOT
BRANCH   1   6
ATOM      2  C   UNL     1      -0.174  16.893  19.297  0.00  0.00    +0.000 C 
ATOM      3  C   UNL     1      -0.988  15.800  19.906  0.00  0.00    +0.000 A 
ATOM      4  S   UNL     1      -2.239  16.177  20.949  0.00  0.00    +0.000 S 
ATOM      5  C   UNL     1      -2.588  14.575  21.345  0.00  0.00    +0.000 A 
ATOM      6  C   UNL     1      -1.773  13.661  20.619  0.00  0.00    +0.000 A 
ATOM      7  C   UNL     1      -0.880  14.438  19.712  0.00  0.00    +0.000 A 
ATOM      8  C   UNL     1       0.090  13.886  18.707  0.00  0.00    +0.000 C 
BRANCH   5   9
ATOM      9  N   UNL     1      -3.584  14.355  22.296  0.00  0.00    +0.000 N 
ATOM     10  C   UNL     1      -4.829  13.704  22.372  0.00  0.00    +0.000 C 
ATOM     11  O   UNL     1      -5.300  13.777  23.522  0.00  0.00    +0.000 OA
ATOM     12  H   UNL     1      -3.402  14.764  23.204  0.00  0.00    +0.000 HD
BRANCH  10  13
ATOM     13  C   UNL     1      -5.636  12.988  21.363  0.00  0.00    +0.000 A 
ATOM     14  C   UNL     1      -5.905  13.379  20.044  0.00  0.00    +0.000 A 
ATOM     15  C   UNL     1      -6.718  12.377  19.447  0.00  0.00    +0.000 A 
ATOM     16  C   UNL     1      -6.888  11.415  20.413  0.00  0.00    +0.000 A 
ATOM     17  O   UNL     1      -6.225  11.772  21.548  0.00  0.00    +0.000 OA
ENDBRANCH  10  13
ENDBRANCH   5   9
ENDBRANCH   1   6
BRANCH   1  18
ATOM     18  C   UNL     1      -1.971  11.451  19.226  0.00  0.00    +0.000 A 
ATOM     19  C   UNL     1      -1.155  10.416  18.697  0.00  0.00    +0.000 A 
ATOM     20  C   UNL     1      -1.368   9.838  17.450  0.00  0.00    +0.000 A 
ATOM     21  C   UNL     1      -2.513  10.199  16.780  0.00  0.00    +0.000 A 
ATOM     22  N   UNL     1      -3.411  11.059  17.290  0.00  0.00    +0.000 NA
ATOM     23  C   UNL     1      -3.130  11.645  18.489  0.00  0.00    +0.000 A 
ENDBRANCH   1  18
BRANCH   1  24
ATOM     24  N   UNL     1      -0.579  11.549  21.493  0.00  0.00    +0.000 NA
ATOM     25  C   UNL     1      -1.009  10.426  22.336  0.00  0.00    +0.000 C 
ATOM     26  C   UNL     1       0.033   9.648  23.121  0.00  0.00    +0.000 C 
ATOM     27  C   UNL     1       1.138   9.190  22.172  0.00  0.00    +0.000 C 
ATOM     28  C   UNL     1       1.755  10.520  21.668  0.00  0.00    +0.000 C 
ATOM     29  C   UNL     1       0.746  11.411  20.896  0.00  0.00    +0.000 C 
BRANCH  27  30
ATOM     30  C   UNL     1       0.728   8.324  20.939  0.00  0.00    +0.000 C 
BRANCH  30  31
ATOM     31  C   UNL     1       1.638   7.848  19.824  0.00  0.00    +0.000 A 
ATOM     32  C   UNL     1       1.945   8.532  18.646  0.00  0.00    +0.000 A 
ATOM     33  C   UNL     1       2.894   8.010  17.746  0.00  0.00    +0.000 A 
ATOM     34  C   UNL     1       3.518   6.785  18.000  0.00  0.00    +0.000 A 
ATOM     35  C   UNL     1       3.166   6.054  19.126  0.00  0.00    +0.000 A 
ATOM     36  C   UNL     1       2.229   6.578  20.016  0.00  0.00    +0.000 A 
ENDBRANCH  30  31
ENDBRANCH  27  30
ENDBRANCH   1  24
TORSDOF 7
ENDMDL
MODEL 9
REMARK VINA RESULT:      -7.2      3.592      8.167
REMARK  Name = 
REMARK  9 active torsions:
REMARK  status: ('A' for Active; 'I' for Inactive)
REMARK    1  A    between atoms: C_1  and  C_2
REMARK    2  A    between atoms: C_4  and  N_5
REMARK    3  A    between atoms: C_6  and  C_8
REMARK    4  A    between atoms: C_13  and  C_14
REMARK    5  A    between atoms: C_14  and  C_15
REMARK    6  A    between atoms: C_14  and  N_21
REMARK    7  A    between atoms: C_24  and  C_25
REMARK    8  A    between atoms: C_25  and  C_26
REMARK    9  A    between atoms: C_34  and  C_35
REMARK                            x       y       z     vdW  Elec       q    Type
REMARK                         _______ _______ _______ _____ _____    ______ ____
ROOT
ATOM      1  C   UNL     1      -1.853  11.828  20.627  0.00  0.00    +0.000 C 
ENDROOT
BRANCH   1   6
ATOM      2  C   UNL     1      -1.113  16.973  20.617  0.00  0.00    +0.000 C 
ATOM      3  C   UNL     1      -1.811  15.662  20.772  0.00  0.00    +0.000 A 
ATOM      4  S   UNL     1      -3.344  15.610  21.438  0.00  0.00    +0.000 S 
ATOM      5  C   UNL     1      -3.441  13.927  21.451  0.00  0.00    +0.000 A 
ATOM      6  C   UNL     1      -2.290  13.326  20.867  0.00  0.00    +0.000 A 
ATOM      7  C   UNL     1      -1.373  14.406  20.406  0.00  0.00    +0.000 A 
ATOM      8  C   UNL     1      -0.078  14.238  19.663  0.00  0.00    +0.000 C 
BRANCH   5   9
ATOM      9  N   UNL     1      -4.584  13.357  22.012  0.00  0.00    +0.000 N 
ATOM     10  C   UNL     1      -5.706  12.626  21.580  0.00  0.00    +0.000 C 
ATOM     11  O   UNL     1      -6.430  12.313  22.543  0.00  0.00    +0.000 OA
ATOM     12  H   UNL     1      -4.673  13.484  23.013  0.00  0.00    +0.000 HD
BRANCH  10  13
ATOM     13  C   UNL     1      -6.150  12.194  20.240  0.00  0.00    +0.000 A 
ATOM     14  C   UNL     1      -6.669  10.946  19.869  0.00  0.00    +0.000 A 
ATOM     15  C   UNL     1      -6.964  10.989  18.479  0.00  0.00    +0.000 A 
ATOM     16  C   UNL     1      -6.636  12.260  18.071  0.00  0.00    +0.000 A 
ATOM     17  O   UNL     1      -6.170  12.982  19.127  0.00  0.00    +0.000 OA
ENDBRANCH  10  13
ENDBRANCH   5   9
ENDBRANCH   1   6
BRANCH   1  18
ATOM     18  C   UNL     1      -2.018  11.346  19.173  0.00  0.00    +0.000 A 
ATOM     19  C   UNL     1      -1.305  10.217  18.687  0.00  0.00    +0.000 A 
ATOM     20  C   UNL     1      -1.393   9.766  17.374  0.00  0.00    +0.000 A 
ATOM     21  C   UNL     1      -2.330  10.368  16.567  0.00  0.00    +0.000 A 
ATOM     22  N   UNL     1      -3.147  11.341  17.005  0.00  0.00    +0.000 NA
ATOM     23  C   UNL     1      -2.984  11.789  18.283  0.00  0.00    +0.000 A 
ENDBRANCH   1  18
BRANCH   1  24
ATOM     24  N   UNL     1      -0.676  11.407  21.473  0.00  0.00    +0.000 NA
ATOM     25  C   UNL     1      -0.970  10.291  22.382  0.00  0.00    +0.000 C 
ATOM     26  C   UNL     1       0.173   9.622  23.126  0.00  0.00    +0.000 C 
ATOM     27  C   UNL     1       1.249   9.207  22.126  0.00  0.00    +0.000 C 
ATOM     28  C   UNL     1       1.734  10.556  21.535  0.00  0.00    +0.000 C 
ATOM     29  C   UNL     1       0.617  11.340  20.797  0.00  0.00    +0.000 C 
BRANCH  27  30
ATOM     30  C   UNL     1       0.830   8.263  20.953  0.00  0.00    +0.000 C 
BRANCH  30  31
ATOM     31  C   UNL     1       1.720   7.761  19.834  0.00  0.00    +0.000 A 
ATOM     32  C   UNL     1       1.998   8.411  18.631  0.00  0.00    +0.000 A 
ATOM     33  C   UNL     1       2.932   7.868  17.727  0.00  0.00    +0.000 A 
ATOM     34  C   UNL     1       3.569   6.655  18.004  0.00  0.00    +0.000 A 
ATOM     35  C   UNL     1       3.245   5.956  19.157  0.00  0.00    +0.000 A 
ATOM     36  C   UNL     1       2.323   6.500  20.051  0.00  0.00    +0.000 A 
ENDBRANCH  30  31
ENDBRANCH  27  30
ENDBRANCH   1  24
TORSDOF 7
ENDMDL
