MODEL 1
REMARK VINA RESULT:      -8.3      0.000      0.000
REMARK  Name = 
REMARK  9 active torsions:
REMARK  status: ('A' for Active; 'I' for Inactive)
REMARK    1  A    between atoms: C_1  and  C_2
REMARK    2  A    between atoms: C_2  and  C_3
REMARK    3  A    between atoms: C_7  and  C_8
REMARK    4  A    between atoms: C_8  and  C_9
REMARK    5  A    between atoms: C_10  and  N_11
REMARK    6  A    between atoms: C_14  and  C_15
REMARK    7  A    between atoms: N_18  and  C_19
REMARK    8  A    between atoms: C_19  and  C_20
REMARK    9  A    between atoms: C_23  and  C_24
REMARK                            x       y       z     vdW  Elec       q    Type
REMARK                         _______ _______ _______ _____ _____    ______ ____
ROOT
ATOM      1  N   UNL     1       3.598   6.240  17.586  0.00  0.00    +0.000 N 
ATOM      2  C   UNL     1       3.007   6.040  18.844  0.00  0.00    +0.000 A 
ATOM      3  N   UNL     1       3.087   4.863  19.452  0.00  0.00    +0.000 NA
ATOM      4  C   UNL     1       2.458   4.774  20.621  0.00  0.00    +0.000 A 
ATOM      5  C   UNL     1       2.467   3.448  21.315  0.00  0.00    +0.000 C 
ATOM      6  N   UNL     1       1.778   5.765  21.196  0.00  0.00    +0.000 NA
ATOM      7  C   UNL     1       1.715   6.889  20.498  0.00  0.00    +0.000 A 
ATOM      8  N   UNL     1       0.919   7.881  21.037  0.00  0.00    +0.000 N 
ATOM      9  N   UNL     1       2.291   7.060  19.315  0.00  0.00    +0.000 NA
ATOM     10  H   UNL     1       2.805   6.404  16.983  0.00  0.00    +0.000 HD
ATOM     11  H   UNL     1       0.719   7.653  22.003  0.00  0.00    +0.000 HD
ENDROOT
BRANCH   1  17
ATOM     12  C   UNL     1       4.533   4.214  16.483  0.00  0.00    +0.000 A 
ATOM     13  C   UNL     1       5.643   3.570  15.890  0.00  0.00    +0.000 A 
ATOM     14  C   UNL     1       6.873   4.200  15.782  0.00  0.00    +0.000 A 
ATOM     15  C   UNL     1       7.027   5.478  16.294  0.00  0.00    +0.000 A 
ATOM     16  C   UNL     1       5.953   6.154  16.907  0.00  0.00    +0.000 A 
ATOM     17  C   UNL     1       4.660   5.551  16.951  0.00  0.00    +0.000 A 
BRANCH  12  19
ATOM     18  C   UNL     1       3.612   2.212  17.696  0.00  0.00    +0.000 C 
ATOM     19  C   UNL     1       3.318   3.336  16.712  0.00  0.00    +0.000 C 
ENDBRANCH  12  19
BRANCH  16  20
ATOM     20  C   UNL     1       6.287   7.494  17.540  0.00  0.00    +0.000 C 
ATOM     21  C   UNL     1       7.778   7.739  17.690  0.00  0.00    +0.000 C 
ENDBRANCH  16  20
ENDBRANCH   1  17
BRANCH   8  22
ATOM     22  C   UNL     1       1.294   9.257  20.790  0.00  0.00    +0.000 C 
BRANCH  22  23
ATOM     23  C   UNL     1       0.265  10.169  21.426  0.00  0.00    +0.000 A 
ATOM     24  C   UNL     1      -0.206  11.314  20.769  0.00  0.00    +0.000 A 
ATOM     25  C   UNL     1      -1.185  12.118  21.362  0.00  0.00    +0.000 A 
ATOM     26  C   UNL     1      -1.713  11.797  22.620  0.00  0.00    +0.000 A 
ATOM     27  C   UNL     1      -1.236  10.652  23.278  0.00  0.00    +0.000 A 
ATOM     28  C   UNL     1      -0.261   9.850  22.688  0.00  0.00    +0.000 A 
BRANCH  26  29
ATOM     29  C   UNL     1      -2.779  12.643  23.271  0.00  0.00    +0.000 C 
ATOM     30  F   UNL     1      -2.282  13.716  23.950  0.00  0.00    +0.000 F 
ATOM     31  F   UNL     1      -3.664  13.152  22.370  0.00  0.00    +0.000 F 
ATOM     32  F   UNL     1      -3.524  11.945  24.172  0.00  0.00    +0.000 F 
ENDBRANCH  26  29
ENDBRANCH  22  23
ENDBRANCH   8  22
TORSDOF 6
ENDMDL
MODEL 2
REMARK VINA RESULT:      -8.1      0.153      1.106
REMARK  Name = 
REMARK  9 active torsions:
REMARK  status: ('A' for Active; 'I' for Inactive)
REMARK    1  A    between atoms: C_1  and  C_2
REMARK    2  A    between atoms: C_2  and  C_3
REMARK    3  A    between atoms: C_7  and  C_8
REMARK    4  A    between atoms: C_8  and  C_9
REMARK    5  A    between atoms: C_10  and  N_11
REMARK    6  A    between atoms: C_14  and  C_15
REMARK    7  A    between atoms: N_18  and  C_19
REMARK    8  A    between atoms: C_19  and  C_20
REMARK    9  A    between atoms: C_23  and  C_24
REMARK                            x       y       z     vdW  Elec       q    Type
REMARK                         _______ _______ _______ _____ _____    ______ ____
ROOT
ATOM      1  N   UNL     1       3.608   6.234  17.618  0.00  0.00    +0.000 N 
ATOM      2  C   UNL     1       3.012   5.996  18.867  0.00  0.00    +0.000 A 
ATOM      3  N   UNL     1       3.074   4.796  19.431  0.00  0.00    +0.000 NA
ATOM      4  C   UNL     1       2.442   4.673  20.595  0.00  0.00    +0.000 A 
ATOM      5  C   UNL     1       2.432   3.323  21.239  0.00  0.00    +0.000 C 
ATOM      6  N   UNL     1       1.775   5.652  21.206  0.00  0.00    +0.000 NA
ATOM      7  C   UNL     1       1.729   6.801  20.549  0.00  0.00    +0.000 A 
ATOM      8  N   UNL     1       0.946   7.784  21.123  0.00  0.00    +0.000 N 
ATOM      9  N   UNL     1       2.310   7.008  19.374  0.00  0.00    +0.000 NA
ATOM     10  H   UNL     1       2.819   6.432  17.020  0.00  0.00    +0.000 HD
ATOM     11  H   UNL     1       0.741   7.523  22.080  0.00  0.00    +0.000 HD
ENDROOT
BRANCH   1  17
ATOM     12  C   UNL     1       4.549   4.205  16.527  0.00  0.00    +0.000 A 
ATOM     13  C   UNL     1       5.651   3.572  15.908  0.00  0.00    +0.000 A 
ATOM     14  C   UNL     1       6.861   4.226  15.739  0.00  0.00    +0.000 A 
ATOM     15  C   UNL     1       7.004   5.519  16.217  0.00  0.00    +0.000 A 
ATOM     16  C   UNL     1       5.938   6.184  16.854  0.00  0.00    +0.000 A 
ATOM     17  C   UNL     1       4.662   5.555  16.960  0.00  0.00    +0.000 A 
BRANCH  12  19
ATOM     18  C   UNL     1       3.755   2.127  17.702  0.00  0.00    +0.000 C 
ATOM     19  C   UNL     1       3.363   3.305  16.821  0.00  0.00    +0.000 C 
ENDBRANCH  12  19
BRANCH  16  20
ATOM     20  C   UNL     1       6.264   7.546  17.443  0.00  0.00    +0.000 C 
ATOM     21  C   UNL     1       7.741   7.742  17.737  0.00  0.00    +0.000 C 
ENDBRANCH  16  20
ENDBRANCH   1  17
BRANCH   8  22
ATOM     22  C   UNL     1       1.340   9.163  20.928  0.00  0.00    +0.000 C 
BRANCH  22  23
ATOM     23  C   UNL     1       0.269  10.067  21.502  0.00  0.00    +0.000 A 
ATOM     24  C   UNL     1      -0.295   9.828  22.762  0.00  0.00    +0.000 A 
ATOM     25  C   UNL     1      -1.253  10.701  23.287  0.00  0.00    +0.000 A 
ATOM     26  C   UNL     1      -1.670  11.829  22.565  0.00  0.00    +0.000 A 
ATOM     27  C   UNL     1      -1.106  12.064  21.301  0.00  0.00    +0.000 A 
ATOM     28  C   UNL     1      -0.150  11.194  20.778  0.00  0.00    +0.000 A 
BRANCH  26  29
ATOM     29  C   UNL     1      -2.692  12.789  23.118  0.00  0.00    +0.000 C 
ATOM     30  F   UNL     1      -3.398  12.286  24.171  0.00  0.00    +0.000 F 
ATOM     31  F   UNL     1      -2.133  13.946  23.567  0.00  0.00    +0.000 F 
ATOM     32  F   UNL     1      -3.619  13.157  22.191  0.00  0.00    +0.000 F 
ENDBRANCH  26  29
ENDBRANCH  22  23
ENDBRANCH   8  22
TORSDOF 6
ENDMDL
MODEL 3
REMARK VINA RESULT:      -8.1      0.427      2.469
REMARK  Name = 
REMARK  9 active torsions:
REMARK  status: ('A' for Active; 'I' for Inactive)
REMARK    1  A    between atoms: C_1  and  C_2
REMARK    2  A    between atoms: C_2  and  C_3
REMARK    3  A    between atoms: C_7  and  C_8
REMARK    4  A    between atoms: C_8  and  C_9
REMARK    5  A    between atoms: C_10  and  N_11
REMARK    6  A    between atoms: C_14  and  C_15
REMARK    7  A    between atoms: N_18  and  C_19
REMARK    8  A    between atoms: C_19  and  C_20
REMARK    9  A    between atoms: C_23  and  C_24
REMARK                            x       y       z     vdW  Elec       q    Type
REMARK                         _______ _______ _______ _____ _____    ______ ____
ROOT
ATOM      1  N   UNL     1       3.692   6.389  17.841  0.00  0.00    +0.000 N 
ATOM      2  C   UNL     1       3.006   6.178  19.047  0.00  0.00    +0.000 A 
ATOM      3  N   UNL     1       3.029   4.991  19.642  0.00  0.00    +0.000 NA
ATOM      4  C   UNL     1       2.312   4.893  20.759  0.00  0.00    +0.000 A 
ATOM      5  C   UNL     1       2.256   3.558  21.431  0.00  0.00    +0.000 C 
ATOM      6  N   UNL     1       1.601   5.883  21.296  0.00  0.00    +0.000 NA
ATOM      7  C   UNL     1       1.602   7.017  20.612  0.00  0.00    +0.000 A 
ATOM      8  N   UNL     1       0.778   8.011  21.104  0.00  0.00    +0.000 N 
ATOM      9  N   UNL     1       2.267   7.198  19.478  0.00  0.00    +0.000 NA
ATOM     10  H   UNL     1       2.949   6.570  17.181  0.00  0.00    +0.000 HD
ATOM     11  H   UNL     1       0.503   7.771  22.048  0.00  0.00    +0.000 HD
ENDROOT
BRANCH   1  17
ATOM     12  C   UNL     1       6.064   6.307  17.089  0.00  0.00    +0.000 A 
ATOM     13  C   UNL     1       7.111   5.574  16.486  0.00  0.00    +0.000 A 
ATOM     14  C   UNL     1       6.923   4.275  16.041  0.00  0.00    +0.000 A 
ATOM     15  C   UNL     1       5.672   3.694  16.159  0.00  0.00    +0.000 A 
ATOM     16  C   UNL     1       4.593   4.391  16.738  0.00  0.00    +0.000 A 
ATOM     17  C   UNL     1       4.792   5.698  17.277  0.00  0.00    +0.000 A 
BRANCH  12  19
ATOM     18  C   UNL     1       7.832   8.010  17.638  0.00  0.00    +0.000 C 
ATOM     19  C   UNL     1       6.358   7.774  17.342  0.00  0.00    +0.000 C 
ENDBRANCH  12  19
BRANCH  16  20
ATOM     20  C   UNL     1       3.247   3.690  16.691  0.00  0.00    +0.000 C 
ATOM     21  C   UNL     1       3.211   2.392  17.481  0.00  0.00    +0.000 C 
ENDBRANCH  16  20
ENDBRANCH   1  17
BRANCH   8  22
ATOM     22  C   UNL     1       1.183   9.386  20.906  0.00  0.00    +0.000 C 
BRANCH  22  23
ATOM     23  C   UNL     1       0.080  10.300  21.398  0.00  0.00    +0.000 A 
ATOM     24  C   UNL     1      -0.551  11.214  20.544  0.00  0.00    +0.000 A 
ATOM     25  C   UNL     1      -1.593  12.019  21.014  0.00  0.00    +0.000 A 
ATOM     26  C   UNL     1      -2.027  11.930  22.344  0.00  0.00    +0.000 A 
ATOM     27  C   UNL     1      -1.390  11.016  23.199  0.00  0.00    +0.000 A 
ATOM     28  C   UNL     1      -0.351  10.213  22.731  0.00  0.00    +0.000 A 
BRANCH  26  29
ATOM     29  C   UNL     1      -3.158  12.779  22.867  0.00  0.00    +0.000 C 
ATOM     30  F   UNL     1      -2.860  14.109  22.920  0.00  0.00    +0.000 F 
ATOM     31  F   UNL     1      -4.281  12.681  22.103  0.00  0.00    +0.000 F 
ATOM     32  F   UNL     1      -3.533  12.431  24.129  0.00  0.00    +0.000 F 
ENDBRANCH  26  29
ENDBRANCH  22  23
ENDBRANCH   8  22
TORSDOF 6
ENDMDL
MODEL 4
REMARK VINA RESULT:      -8.0      5.237      9.683
REMARK  Name = 
REMARK  9 active torsions:
REMARK  status: ('A' for Active; 'I' for Inactive)
REMARK    1  A    between atoms: C_1  and  C_2
REMARK    2  A    between atoms: C_2  and  C_3
REMARK    3  A    between atoms: C_7  and  C_8
REMARK    4  A    between atoms: C_8  and  C_9
REMARK    5  A    between atoms: C_10  and  N_11
REMARK    6  A    between atoms: C_14  and  C_15
REMARK    7  A    between atoms: N_18  and  C_19
REMARK    8  A    between atoms: C_19  and  C_20
REMARK    9  A    between atoms: C_23  and  C_24
REMARK                            x       y       z     vdW  Elec       q    Type
REMARK                         _______ _______ _______ _____ _____    ______ ____
ROOT
ATOM      1  N   UNL     1      -1.273  10.755  18.439  0.00  0.00    +0.000 N 
ATOM      2  C   UNL     1      -0.485  10.067  19.376  0.00  0.00    +0.000 A 
ATOM      3  N   UNL     1      -0.796  10.084  20.666  0.00  0.00    +0.000 NA
ATOM      4  C   UNL     1       0.041   9.432  21.469  0.00  0.00    +0.000 A 
ATOM      5  C   UNL     1      -0.234   9.474  22.939  0.00  0.00    +0.000 C 
ATOM      6  N   UNL     1       1.133   8.784  21.065  0.00  0.00    +0.000 NA
ATOM      7  C   UNL     1       1.388   8.858  19.767  0.00  0.00    +0.000 A 
ATOM      8  N   UNL     1       2.577   8.284  19.360  0.00  0.00    +0.000 N 
ATOM      9  N   UNL     1       0.623   9.504  18.897  0.00  0.00    +0.000 NA
ATOM     10  H   UNL     1      -0.650  11.472  18.096  0.00  0.00    +0.000 HD
ATOM     11  H   UNL     1       2.926   7.691  20.103  0.00  0.00    +0.000 HD
ENDROOT
BRANCH   1  17
ATOM     12  C   UNL     1      -3.618  10.671  17.609  0.00  0.00    +0.000 A 
ATOM     13  C   UNL     1      -4.945  11.147  17.701  0.00  0.00    +0.000 A 
ATOM     14  C   UNL     1      -5.305  12.115  18.626  0.00  0.00    +0.000 A 
ATOM     15  C   UNL     1      -4.335  12.651  19.457  0.00  0.00    +0.000 A 
ATOM     16  C   UNL     1      -2.996  12.218  19.391  0.00  0.00    +0.000 A 
ATOM     17  C   UNL     1      -2.627  11.164  18.502  0.00  0.00    +0.000 A 
BRANCH  12  19
ATOM     18  C   UNL     1      -2.968  10.564  15.181  0.00  0.00    +0.000 C 
ATOM     19  C   UNL     1      -3.332   9.766  16.425  0.00  0.00    +0.000 C 
ENDBRANCH  12  19
BRANCH  16  20
ATOM     20  C   UNL     1      -2.011  12.975  20.265  0.00  0.00    +0.000 C 
ATOM     21  C   UNL     1      -2.581  13.375  21.615  0.00  0.00    +0.000 C 
ENDBRANCH  16  20
ENDBRANCH   1  17
BRANCH   8  22
ATOM     22  C   UNL     1       2.632   7.711  18.032  0.00  0.00    +0.000 C 
BRANCH  22  23
ATOM     23  C   UNL     1       2.876   6.221  18.148  0.00  0.00    +0.000 A 
ATOM     24  C   UNL     1       4.156   5.704  18.388  0.00  0.00    +0.000 A 
ATOM     25  C   UNL     1       4.348   4.326  18.531  0.00  0.00    +0.000 A 
ATOM     26  C   UNL     1       3.268   3.436  18.436  0.00  0.00    +0.000 A 
ATOM     27  C   UNL     1       1.987   3.957  18.191  0.00  0.00    +0.000 A 
ATOM     28  C   UNL     1       1.795   5.331  18.050  0.00  0.00    +0.000 A 
BRANCH  26  29
ATOM     29  C   UNL     1       3.451   1.949  18.600  0.00  0.00    +0.000 C 
ATOM     30  F   UNL     1       4.360   1.615  19.560  0.00  0.00    +0.000 F 
ATOM     31  F   UNL     1       2.297   1.315  18.946  0.00  0.00    +0.000 F 
ATOM     32  F   UNL     1       3.880   1.345  17.456  0.00  0.00    +0.000 F 
ENDBRANCH  26  29
ENDBRANCH  22  23
ENDBRANCH   8  22
TORSDOF 6
ENDMDL
MODEL 5
REMARK VINA RESULT:      -8.0      0.454      2.724
REMARK  Name = 
REMARK  9 active torsions:
REMARK  status: ('A' for Active; 'I' for Inactive)
REMARK    1  A    between atoms: C_1  and  C_2
REMARK    2  A    between atoms: C_2  and  C_3
REMARK    3  A    between atoms: C_7  and  C_8
REMARK    4  A    between atoms: C_8  and  C_9
REMARK    5  A    between atoms: C_10  and  N_11
REMARK    6  A    between atoms: C_14  and  C_15
REMARK    7  A    between atoms: N_18  and  C_19
REMARK    8  A    between atoms: C_19  and  C_20
REMARK    9  A    between atoms: C_23  and  C_24
REMARK                            x       y       z     vdW  Elec       q    Type
REMARK                         _______ _______ _______ _____ _____    ______ ____
ROOT
ATOM      1  N   UNL     1       3.695   6.376  17.826  0.00  0.00    +0.000 N 
ATOM      2  C   UNL     1       3.010   6.167  19.034  0.00  0.00    +0.000 A 
ATOM      3  N   UNL     1       3.041   4.985  19.637  0.00  0.00    +0.000 NA
ATOM      4  C   UNL     1       2.325   4.889  20.753  0.00  0.00    +0.000 A 
ATOM      5  C   UNL     1       2.278   3.557  21.435  0.00  0.00    +0.000 C 
ATOM      6  N   UNL     1       1.606   5.877  21.284  0.00  0.00    +0.000 NA
ATOM      7  C   UNL     1       1.599   7.007  20.593  0.00  0.00    +0.000 A 
ATOM      8  N   UNL     1       0.767   7.998  21.078  0.00  0.00    +0.000 N 
ATOM      9  N   UNL     1       2.264   7.186  19.458  0.00  0.00    +0.000 NA
ATOM     10  H   UNL     1       2.950   6.548  17.166  0.00  0.00    +0.000 HD
ATOM     11  H   UNL     1       0.494   7.762  22.024  0.00  0.00    +0.000 HD
ENDROOT
BRANCH   1  17
ATOM     12  C   UNL     1       6.075   6.298  17.100  0.00  0.00    +0.000 A 
ATOM     13  C   UNL     1       7.128   5.570  16.502  0.00  0.00    +0.000 A 
ATOM     14  C   UNL     1       6.943   4.277  16.040  0.00  0.00    +0.000 A 
ATOM     15  C   UNL     1       5.689   3.696  16.138  0.00  0.00    +0.000 A 
ATOM     16  C   UNL     1       4.605   4.389  16.712  0.00  0.00    +0.000 A 
ATOM     17  C   UNL     1       4.800   5.689  17.268  0.00  0.00    +0.000 A 
BRANCH  12  19
ATOM     18  C   UNL     1       7.840   7.993  17.684  0.00  0.00    +0.000 C 
ATOM     19  C   UNL     1       6.368   7.762  17.373  0.00  0.00    +0.000 C 
ENDBRANCH  12  19
BRANCH  16  20
ATOM     20  C   UNL     1       3.258   3.690  16.642  0.00  0.00    +0.000 C 
ATOM     21  C   UNL     1       3.194   2.415  17.465  0.00  0.00    +0.000 C 
ENDBRANCH  16  20
ENDBRANCH   1  17
BRANCH   8  22
ATOM     22  C   UNL     1       1.163   9.374  20.872  0.00  0.00    +0.000 C 
BRANCH  22  23
ATOM     23  C   UNL     1       0.074  10.284  21.402  0.00  0.00    +0.000 A 
ATOM     24  C   UNL     1      -0.404  10.169  22.714  0.00  0.00    +0.000 A 
ATOM     25  C   UNL     1      -1.381  11.048  23.191  0.00  0.00    +0.000 A 
ATOM     26  C   UNL     1      -1.903  12.057  22.369  0.00  0.00    +0.000 A 
ATOM     27  C   UNL     1      -1.426  12.167  21.053  0.00  0.00    +0.000 A 
ATOM     28  C   UNL     1      -0.451  11.292  20.578  0.00  0.00    +0.000 A 
BRANCH  26  29
ATOM     29  C   UNL     1      -2.948  13.023  22.868  0.00  0.00    +0.000 C 
ATOM     30  F   UNL     1      -4.192  12.473  22.973  0.00  0.00    +0.000 F 
ATOM     31  F   UNL     1      -2.657  13.516  24.103  0.00  0.00    +0.000 F 
ATOM     32  F   UNL     1      -3.088  14.108  22.057  0.00  0.00    +0.000 F 
ENDBRANCH  26  29
ENDBRANCH  22  23
ENDBRANCH   8  22
TORSDOF 6
ENDMDL
MODEL 6
REMARK VINA RESULT:      -8.0      5.528      8.284
REMARK  Name = 
REMARK  9 active torsions:
REMARK  status: ('A' for Active; 'I' for Inactive)
REMARK    1  A    between atoms: C_1  and  C_2
REMARK    2  A    between atoms: C_2  and  C_3
REMARK    3  A    between atoms: C_7  and  C_8
REMARK    4  A    between atoms: C_8  and  C_9
REMARK    5  A    between atoms: C_10  and  N_11
REMARK    6  A    between atoms: C_14  and  C_15
REMARK    7  A    between atoms: N_18  and  C_19
REMARK    8  A    between atoms: C_19  and  C_20
REMARK    9  A    between atoms: C_23  and  C_24
REMARK                            x       y       z     vdW  Elec       q    Type
REMARK                         _______ _______ _______ _____ _____    ______ ____
ROOT
ATOM      1  N   UNL     1       4.848   4.944  19.660  0.00  0.00    +0.000 N 
ATOM      2  C   UNL     1       5.443   5.550  18.542  0.00  0.00    +0.000 A 
ATOM      3  N   UNL     1       4.963   5.343  17.322  0.00  0.00    +0.000 NA
ATOM      4  C   UNL     1       5.628   5.934  16.333  0.00  0.00    +0.000 A 
ATOM      5  C   UNL     1       5.162   5.679  14.934  0.00  0.00    +0.000 C 
ATOM      6  N   UNL     1       6.708   6.698  16.493  0.00  0.00    +0.000 NA
ATOM      7  C   UNL     1       7.141   6.813  17.739  0.00  0.00    +0.000 A 
ATOM      8  N   UNL     1       8.323   7.510  17.897  0.00  0.00    +0.000 N 
ATOM      9  N   UNL     1       6.556   6.241  18.783  0.00  0.00    +0.000 NA
ATOM     10  H   UNL     1       5.568   4.320  19.995  0.00  0.00    +0.000 HD
ATOM     11  H   UNL     1       8.520   8.020  17.044  0.00  0.00    +0.000 HD
ENDROOT
BRANCH   1  17
ATOM     12  C   UNL     1       3.231   3.057  19.797  0.00  0.00    +0.000 A 
ATOM     13  C   UNL     1       1.894   2.626  19.951  0.00  0.00    +0.000 A 
ATOM     14  C   UNL     1       0.856   3.529  20.116  0.00  0.00    +0.000 A 
ATOM     15  C   UNL     1       1.131   4.887  20.097  0.00  0.00    +0.000 A 
ATOM     16  C   UNL     1       2.446   5.364  19.930  0.00  0.00    +0.000 A 
ATOM     17  C   UNL     1       3.535   4.445  19.844  0.00  0.00    +0.000 A 
BRANCH  12  19
ATOM     18  C   UNL     1       3.806   1.229  18.166  0.00  0.00    +0.000 C 
ATOM     19  C   UNL     1       4.226   1.972  19.427  0.00  0.00    +0.000 C 
ENDBRANCH  12  19
BRANCH  16  20
ATOM     20  C   UNL     1       2.594   6.870  19.800  0.00  0.00    +0.000 C 
ATOM     21  C   UNL     1       2.272   7.393  18.410  0.00  0.00    +0.000 C 
ENDBRANCH  16  20
ENDBRANCH   1  17
BRANCH   8  22
ATOM     22  C   UNL     1       8.510   8.257  19.122  0.00  0.00    +0.000 C 
BRANCH  22  23
ATOM     23  C   UNL     1       8.856   9.691  18.778  0.00  0.00    +0.000 A 
ATOM     24  C   UNL     1       8.197  10.377  17.749  0.00  0.00    +0.000 A 
ATOM     25  C   UNL     1       8.507  11.714  17.478  0.00  0.00    +0.000 A 
ATOM     26  C   UNL     1       9.481  12.392  18.225  0.00  0.00    +0.000 A 
ATOM     27  C   UNL     1      10.144  11.700  19.252  0.00  0.00    +0.000 A 
ATOM     28  C   UNL     1       9.834  10.368  19.523  0.00  0.00    +0.000 A 
BRANCH  26  29
ATOM     29  C   UNL     1       9.822  13.836  17.956  0.00  0.00    +0.000 C 
ATOM     30  F   UNL     1      10.474  14.442  18.989  0.00  0.00    +0.000 F 
ATOM     31  F   UNL     1      10.626  13.990  16.869  0.00  0.00    +0.000 F 
ATOM     32  F   UNL     1       8.718  14.597  17.715  0.00  0.00    +0.000 F 
ENDBRANCH  26  29
ENDBRANCH  22  23
ENDBRANCH   8  22
TORSDOF 6
ENDMDL
MODEL 7
REMARK VINA RESULT:      -8.0      5.174      9.858
REMARK  Name = 
REMARK  9 active torsions:
REMARK  status: ('A' for Active; 'I' for Inactive)
REMARK    1  A    between atoms: C_1  and  C_2
REMARK    2  A    between atoms: C_2  and  C_3
REMARK    3  A    between atoms: C_7  and  C_8
REMARK    4  A    between atoms: C_8  and  C_9
REMARK    5  A    between atoms: C_10  and  N_11
REMARK    6  A    between atoms: C_14  and  C_15
REMARK    7  A    between atoms: N_18  and  C_19
REMARK    8  A    between atoms: C_19  and  C_20
REMARK    9  A    between atoms: C_23  and  C_24
REMARK                            x       y       z     vdW  Elec       q    Type
REMARK                         _______ _______ _______ _____ _____    ______ ____
ROOT
ATOM      1  N   UNL     1      -1.246  10.923  18.684  0.00  0.00    +0.000 N 
ATOM      2  C   UNL     1      -0.515  10.182  19.627  0.00  0.00    +0.000 A 
ATOM      3  N   UNL     1      -0.844  10.209  20.913  0.00  0.00    +0.000 NA
ATOM      4  C   UNL     1      -0.060   9.502  21.722  0.00  0.00    +0.000 A 
ATOM      5  C   UNL     1      -0.353   9.552  23.189  0.00  0.00    +0.000 C 
ATOM      6  N   UNL     1       0.997   8.792  21.329  0.00  0.00    +0.000 NA
ATOM      7  C   UNL     1       1.274   8.858  20.036  0.00  0.00    +0.000 A 
ATOM      8  N   UNL     1       2.433   8.216  19.642  0.00  0.00    +0.000 N 
ATOM      9  N   UNL     1       0.564   9.556  19.160  0.00  0.00    +0.000 NA
ATOM     10  H   UNL     1      -0.575  11.603  18.355  0.00  0.00    +0.000 HD
ATOM     11  H   UNL     1       2.734   7.598  20.385  0.00  0.00    +0.000 HD
ENDROOT
BRANCH   1  17
ATOM     12  C   UNL     1      -2.987  12.415  19.652  0.00  0.00    +0.000 A 
ATOM     13  C   UNL     1      -4.337  12.835  19.673  0.00  0.00    +0.000 A 
ATOM     14  C   UNL     1      -5.284  12.269  18.834  0.00  0.00    +0.000 A 
ATOM     15  C   UNL     1      -4.907  11.247  17.979  0.00  0.00    +0.000 A 
ATOM     16  C   UNL     1      -3.577  10.784  17.934  0.00  0.00    +0.000 A 
ATOM     17  C   UNL     1      -2.573  11.413  18.731  0.00  0.00    +0.000 A 
BRANCH  12  19
ATOM     18  C   UNL     1      -2.799  12.897  22.114  0.00  0.00    +0.000 C 
ATOM     19  C   UNL     1      -2.114  12.978  20.757  0.00  0.00    +0.000 C 
ENDBRANCH  12  19
BRANCH  16  20
ATOM     20  C   UNL     1      -3.324   9.577  17.049  0.00  0.00    +0.000 C 
ATOM     21  C   UNL     1      -2.947   9.939  15.622  0.00  0.00    +0.000 C 
ENDBRANCH  16  20
ENDBRANCH   1  17
BRANCH   8  22
ATOM     22  C   UNL     1       2.473   7.650  18.311  0.00  0.00    +0.000 C 
BRANCH  22  23
ATOM     23  C   UNL     1       2.683   6.154  18.418  0.00  0.00    +0.000 A 
ATOM     24  C   UNL     1       1.762   5.243  17.883  0.00  0.00    +0.000 A 
ATOM     25  C   UNL     1       2.000   3.867  17.960  0.00  0.00    +0.000 A 
ATOM     26  C   UNL     1       3.159   3.372  18.574  0.00  0.00    +0.000 A 
ATOM     27  C   UNL     1       4.078   4.286  19.113  0.00  0.00    +0.000 A 
ATOM     28  C   UNL     1       3.842   5.658  19.036  0.00  0.00    +0.000 A 
BRANCH  26  29
ATOM     29  C   UNL     1       3.441   1.893  18.656  0.00  0.00    +0.000 C 
ATOM     30  F   UNL     1       4.368   1.567  19.602  0.00  0.00    +0.000 F 
ATOM     31  F   UNL     1       2.330   1.166  18.961  0.00  0.00    +0.000 F 
ATOM     32  F   UNL     1       3.910   1.383  17.484  0.00  0.00    +0.000 F 
ENDBRANCH  26  29
ENDBRANCH  22  23
ENDBRANCH   8  22
TORSDOF 6
ENDMDL
MODEL 8
REMARK VINA RESULT:      -7.9      5.704      8.730
REMARK  Name = 
REMARK  9 active torsions:
REMARK  status: ('A' for Active; 'I' for Inactive)
REMARK    1  A    between atoms: C_1  and  C_2
REMARK    2  A    between atoms: C_2  and  C_3
REMARK    3  A    between atoms: C_7  and  C_8
REMARK    4  A    between atoms: C_8  and  C_9
REMARK    5  A    between atoms: C_10  and  N_11
REMARK    6  A    between atoms: C_14  and  C_15
REMARK    7  A    between atoms: N_18  and  C_19
REMARK    8  A    between atoms: C_19  and  C_20
REMARK    9  A    between atoms: C_23  and  C_24
REMARK                            x       y       z     vdW  Elec       q    Type
REMARK                         _______ _______ _______ _____ _____    ______ ____
ROOT
ATOM      1  N   UNL     1       4.797   4.979  19.431  0.00  0.00    +0.000 N 
ATOM      2  C   UNL     1       5.446   5.539  18.319  0.00  0.00    +0.000 A 
ATOM      3  N   UNL     1       5.097   5.196  17.086  0.00  0.00    +0.000 NA
ATOM      4  C   UNL     1       5.805   5.757  16.109  0.00  0.00    +0.000 A 
ATOM      5  C   UNL     1       5.489   5.353  14.703  0.00  0.00    +0.000 C 
ATOM      6  N   UNL     1       6.806   6.616  16.292  0.00  0.00    +0.000 NA
ATOM      7  C   UNL     1       7.113   6.867  17.556  0.00  0.00    +0.000 A 
ATOM      8  N   UNL     1       8.222   7.668  17.752  0.00  0.00    +0.000 N 
ATOM      9  N   UNL     1       6.479   6.335  18.593  0.00  0.00    +0.000 NA
ATOM     10  H   UNL     1       5.527   4.445  19.879  0.00  0.00    +0.000 HD
ATOM     11  H   UNL     1       8.458   8.121  16.879  0.00  0.00    +0.000 HD
ENDROOT
BRANCH   1  17
ATOM     12  C   UNL     1       2.338   5.161  19.768  0.00  0.00    +0.000 A 
ATOM     13  C   UNL     1       1.091   4.511  19.910  0.00  0.00    +0.000 A 
ATOM     14  C   UNL     1       0.985   3.130  19.869  0.00  0.00    +0.000 A 
ATOM     15  C   UNL     1       2.132   2.367  19.718  0.00  0.00    +0.000 A 
ATOM     16  C   UNL     1       3.399   2.970  19.589  0.00  0.00    +0.000 A 
ATOM     17  C   UNL     1       3.514   4.392  19.545  0.00  0.00    +0.000 A 
BRANCH  12  19
ATOM     18  C   UNL     1       2.330   7.457  18.740  0.00  0.00    +0.000 C 
ATOM     19  C   UNL     1       2.326   6.655  20.034  0.00  0.00    +0.000 C 
ENDBRANCH  12  19
BRANCH  16  20
ATOM     20  C   UNL     1       4.585   2.022  19.559  0.00  0.00    +0.000 C 
ATOM     21  C   UNL     1       4.980   1.501  20.930  0.00  0.00    +0.000 C 
ENDBRANCH  16  20
ENDBRANCH   1  17
BRANCH   8  22
ATOM     22  C   UNL     1       8.240   8.523  18.919  0.00  0.00    +0.000 C 
BRANCH  22  23
ATOM     23  C   UNL     1       8.804   9.875  18.530  0.00  0.00    +0.000 A 
ATOM     24  C   UNL     1       8.080  10.768  17.729  0.00  0.00    +0.000 A 
ATOM     25  C   UNL     1       8.607  12.025  17.417  0.00  0.00    +0.000 A 
ATOM     26  C   UNL     1       9.865  12.417  17.897  0.00  0.00    +0.000 A 
ATOM     27  C   UNL     1      10.590  11.518  18.696  0.00  0.00    +0.000 A 
ATOM     28  C   UNL     1      10.065  10.264  19.008  0.00  0.00    +0.000 A 
BRANCH  26  29
ATOM     29  C   UNL     1      10.445  13.773  17.583  0.00  0.00    +0.000 C 
ATOM     30  F   UNL     1       9.513  14.768  17.548  0.00  0.00    +0.000 F 
ATOM     31  F   UNL     1      11.374  14.168  18.497  0.00  0.00    +0.000 F 
ATOM     32  F   UNL     1      11.072  13.807  16.375  0.00  0.00    +0.000 F 
ENDBRANCH  26  29
ENDBRANCH  22  23
ENDBRANCH   8  22
TORSDOF 6
ENDMDL
MODEL 9
REMARK VINA RESULT:      -7.9      5.853      8.848
REMARK  Name = 
REMARK  9 active torsions:
REMARK  status: ('A' for Active; 'I' for Inactive)
REMARK    1  A    between atoms: C_1  and  C_2
REMARK    2  A    between atoms: C_2  and  C_3
REMARK    3  A    between atoms: C_7  and  C_8
REMARK    4  A    between atoms: C_8  and  C_9
REMARK    5  A    between atoms: C_10  and  N_11
REMARK    6  A    between atoms: C_14  and  C_15
REMARK    7  A    between atoms: N_18  and  C_19
REMARK    8  A    between atoms: C_19  and  C_20
REMARK    9  A    between atoms: C_23  and  C_24
REMARK                            x       y       z     vdW  Elec       q    Type
REMARK                         _______ _______ _______ _____ _____    ______ ____
ROOT
ATOM      1  N   UNL     1       4.869   4.888  18.878  0.00  0.00    +0.000 N 
ATOM      2  C   UNL     1       5.753   5.397  17.912  0.00  0.00    +0.000 A 
ATOM      3  N   UNL     1       5.798   4.875  16.693  0.00  0.00    +0.000 NA
ATOM      4  C   UNL     1       6.699   5.408  15.872  0.00  0.00    +0.000 A 
ATOM      5  C   UNL     1       6.831   4.812  14.506  0.00  0.00    +0.000 C 
ATOM      6  N   UNL     1       7.526   6.403  16.192  0.00  0.00    +0.000 NA
ATOM      7  C   UNL     1       7.439   6.831  17.442  0.00  0.00    +0.000 A 
ATOM      8  N   UNL     1       8.370   7.784  17.811  0.00  0.00    +0.000 N 
ATOM      9  N   UNL     1       6.589   6.343  18.335  0.00  0.00    +0.000 NA
ATOM     10  H   UNL     1       5.489   4.505  19.578  0.00  0.00    +0.000 HD
ATOM     11  H   UNL     1       8.801   8.162  16.977  0.00  0.00    +0.000 HD
ENDROOT
BRANCH   1  17
ATOM     12  C   UNL     1       2.440   4.776  18.347  0.00  0.00    +0.000 A 
ATOM     13  C   UNL     1       1.264   3.998  18.250  0.00  0.00    +0.000 A 
ATOM     14  C   UNL     1       1.264   2.645  18.548  0.00  0.00    +0.000 A 
ATOM     15  C   UNL     1       2.435   2.047  18.983  0.00  0.00    +0.000 A 
ATOM     16  C   UNL     1       3.629   2.785  19.110  0.00  0.00    +0.000 A 
ATOM     17  C   UNL     1       3.665   4.160  18.727  0.00  0.00    +0.000 A 
BRANCH  12  19
ATOM     18  C   UNL     1       2.289   6.994  19.525  0.00  0.00    +0.000 C 
ATOM     19  C   UNL     1       2.246   6.272  18.185  0.00  0.00    +0.000 C 
ENDBRANCH  12  19
BRANCH  16  20
ATOM     20  C   UNL     1       4.807   2.043  19.717  0.00  0.00    +0.000 C 
ATOM     21  C   UNL     1       4.576   1.610  21.155  0.00  0.00    +0.000 C 
ENDBRANCH  16  20
ENDBRANCH   1  17
BRANCH   8  22
ATOM     22  C   UNL     1       7.980   8.761  18.805  0.00  0.00    +0.000 C 
BRANCH  22  23
ATOM     23  C   UNL     1       8.755  10.041  18.568  0.00  0.00    +0.000 A 
ATOM     24  C   UNL     1       9.995  10.271  19.178  0.00  0.00    +0.000 A 
ATOM     25  C   UNL     1      10.708  11.444  18.911  0.00  0.00    +0.000 A 
ATOM     26  C   UNL     1      10.200  12.410  18.031  0.00  0.00    +0.000 A 
ATOM     27  C   UNL     1       8.955  12.178  17.424  0.00  0.00    +0.000 A 
ATOM     28  C   UNL     1       8.244  11.009  17.690  0.00  0.00    +0.000 A 
BRANCH  26  29
ATOM     29  C   UNL     1      10.959  13.675  17.720  0.00  0.00    +0.000 C 
ATOM     30  F   UNL     1      11.165  13.872  16.386  0.00  0.00    +0.000 F 
ATOM     31  F   UNL     1      10.318  14.792  18.164  0.00  0.00    +0.000 F 
ATOM     32  F   UNL     1      12.193  13.699  18.294  0.00  0.00    +0.000 F 
ENDBRANCH  26  29
ENDBRANCH  22  23
ENDBRANCH   8  22
TORSDOF 6
ENDMDL
