MODEL 1
REMARK VINA RESULT:      -6.7      0.000      0.000
REMARK  Name = 
REMARK  4 active torsions:
REMARK  status: ('A' for Active; 'I' for Inactive)
REMARK    1  A    between atoms: C_1  and  N_2
REMARK    2  A    between atoms: N_6  and  C_7
REMARK    3  A    between atoms: N_6  and  C_8
REMARK    4  A    between atoms: C_12  and  N_13
REMARK                            x       y       z     vdW  Elec       q    Type
REMARK                         _______ _______ _______ _____ _____    ______ ____
ROOT
ATOM      1  C   UNL     1       4.336   2.147  20.187  0.00  0.00    +0.000 C 
ATOM      2  N   UNL     1       3.819   3.504  20.026  0.00  0.00    +0.000 N 
ATOM      3  C   UNL     1       2.631   3.819  20.664  0.00  0.00    +0.000 C 
ATOM      4  O   UNL     1       2.063   3.077  21.470  0.00  0.00    +0.000 OA
ATOM      5  C   UNL     1       2.078   5.209  20.438  0.00  0.00    +0.000 C 
ATOM      6  N   UNL     1       2.398   5.901  19.113  0.00  0.00    +0.000 NA
ATOM      7  C   UNL     1       1.536   5.299  17.992  0.00  0.00    +0.000 C 
ATOM      8  C   UNL     1       2.106   7.375  19.273  0.00  0.00    +0.000 C 
ATOM      9  C   UNL     1       3.835   5.625  18.735  0.00  0.00    +0.000 A 
ATOM     10  C   UNL     1       4.492   6.504  17.848  0.00  0.00    +0.000 A 
ATOM     11  C   UNL     1       5.735   6.176  17.303  0.00  0.00    +0.000 A 
ATOM     12  C   UNL     1       6.328   4.958  17.633  0.00  0.00    +0.000 A 
ATOM     13  C   UNL     1       5.715   4.090  18.553  0.00  0.00    +0.000 A 
ATOM     14  C   UNL     1       4.461   4.411  19.120  0.00  0.00    +0.000 A 
ENDROOT
BRANCH  12  15
ATOM     15  N   UNL     1       7.601   4.576  17.004  0.00  0.00    +0.000 N 
ATOM     16  O   UNL     1       8.460   4.052  17.729  0.00  0.00    +0.000 OA
ATOM     17  O   UNL     1       7.720   4.750  15.785  0.00  0.00    +0.000 OA
ENDBRANCH  12  15
TORSDOF 1
ENDMDL
MODEL 2
REMARK VINA RESULT:      -6.2      2.839      4.724
REMARK  Name = 
REMARK  4 active torsions:
REMARK  status: ('A' for Active; 'I' for Inactive)
REMARK    1  A    between atoms: C_1  and  N_2
REMARK    2  A    between atoms: N_6  and  C_7
REMARK    3  A    between atoms: N_6  and  C_8
REMARK    4  A    between atoms: C_12  and  N_13
REMARK                            x       y       z     vdW  Elec       q    Type
REMARK                         _______ _______ _______ _____ _____    ______ ____
ROOT
ATOM      1  C   UNL     1       2.206   4.484  21.231  0.00  0.00    +0.000 C 
ATOM      2  N   UNL     1       3.025   4.491  20.022  0.00  0.00    +0.000 N 
ATOM      3  C   UNL     1       3.825   3.387  19.779  0.00  0.00    +0.000 C 
ATOM      4  O   UNL     1       3.779   2.345  20.439  0.00  0.00    +0.000 OA
ATOM      5  C   UNL     1       4.712   3.436  18.555  0.00  0.00    +0.000 C 
ATOM      6  N   UNL     1       5.198   4.805  18.077  0.00  0.00    +0.000 NA
ATOM      7  C   UNL     1       6.320   5.308  18.999  0.00  0.00    +0.000 C 
ATOM      8  C   UNL     1       5.702   4.653  16.661  0.00  0.00    +0.000 C 
ATOM      9  C   UNL     1       4.074   5.808  18.196  0.00  0.00    +0.000 A 
ATOM     10  C   UNL     1       4.110   6.976  17.405  0.00  0.00    +0.000 A 
ATOM     11  C   UNL     1       3.218   8.025  17.634  0.00  0.00    +0.000 A 
ATOM     12  C   UNL     1       2.287   7.919  18.666  0.00  0.00    +0.000 A 
ATOM     13  C   UNL     1       2.200   6.745  19.434  0.00  0.00    +0.000 A 
ATOM     14  C   UNL     1       3.089   5.671  19.209  0.00  0.00    +0.000 A 
ENDROOT
BRANCH  12  15
ATOM     15  N   UNL     1       1.395   9.052  18.958  0.00  0.00    +0.000 N 
ATOM     16  O   UNL     1       1.024   9.196  20.133  0.00  0.00    +0.000 OA
ATOM     17  O   UNL     1       1.113   9.822  18.032  0.00  0.00    +0.000 OA
ENDBRANCH  12  15
TORSDOF 1
ENDMDL
MODEL 3
REMARK VINA RESULT:      -6.2      1.545      1.711
REMARK  Name = 
REMARK  4 active torsions:
REMARK  status: ('A' for Active; 'I' for Inactive)
REMARK    1  A    between atoms: C_1  and  N_2
REMARK    2  A    between atoms: N_6  and  C_7
REMARK    3  A    between atoms: N_6  and  C_8
REMARK    4  A    between atoms: C_12  and  N_13
REMARK                            x       y       z     vdW  Elec       q    Type
REMARK                         _______ _______ _______ _____ _____    ______ ____
ROOT
ATOM      1  C   UNL     1       3.862   1.605  18.044  0.00  0.00    +0.000 C 
ATOM      2  N   UNL     1       3.617   2.983  18.462  0.00  0.00    +0.000 N 
ATOM      3  C   UNL     1       2.723   3.191  19.498  0.00  0.00    +0.000 C 
ATOM      4  O   UNL     1       2.237   2.286  20.182  0.00  0.00    +0.000 OA
ATOM      5  C   UNL     1       2.434   4.626  19.879  0.00  0.00    +0.000 C 
ATOM      6  N   UNL     1       2.544   5.693  18.788  0.00  0.00    +0.000 NA
ATOM      7  C   UNL     1       1.320   5.617  17.863  0.00  0.00    +0.000 C 
ATOM      8  C   UNL     1       2.617   7.043  19.461  0.00  0.00    +0.000 C 
ATOM      9  C   UNL     1       3.748   5.403  17.921  0.00  0.00    +0.000 A 
ATOM     10  C   UNL     1       4.326   6.454  17.178  0.00  0.00    +0.000 A 
ATOM     11  C   UNL     1       5.293   6.196  16.204  0.00  0.00    +0.000 A 
ATOM     12  C   UNL     1       5.682   4.880  15.958  0.00  0.00    +0.000 A 
ATOM     13  C   UNL     1       5.156   3.823  16.720  0.00  0.00    +0.000 A 
ATOM     14  C   UNL     1       4.183   4.069  17.715  0.00  0.00    +0.000 A 
ENDROOT
BRANCH  12  15
ATOM     15  N   UNL     1       6.645   4.598  14.882  0.00  0.00    +0.000 N 
ATOM     16  O   UNL     1       6.357   3.693  14.084  0.00  0.00    +0.000 OA
ATOM     17  O   UNL     1       7.654   5.310  14.805  0.00  0.00    +0.000 OA
ENDBRANCH  12  15
TORSDOF 1
ENDMDL
MODEL 4
REMARK VINA RESULT:      -6.2      3.006      4.652
REMARK  Name = 
REMARK  4 active torsions:
REMARK  status: ('A' for Active; 'I' for Inactive)
REMARK    1  A    between atoms: C_1  and  N_2
REMARK    2  A    between atoms: N_6  and  C_7
REMARK    3  A    between atoms: N_6  and  C_8
REMARK    4  A    between atoms: C_12  and  N_13
REMARK                            x       y       z     vdW  Elec       q    Type
REMARK                         _______ _______ _______ _____ _____    ______ ____
ROOT
ATOM      1  C   UNL     1       1.091   4.183  20.079  0.00  0.00    +0.000 C 
ATOM      2  N   UNL     1       2.123   4.102  19.049  0.00  0.00    +0.000 N 
ATOM      3  C   UNL     1       2.665   2.857  18.777  0.00  0.00    +0.000 C 
ATOM      4  O   UNL     1       2.231   1.800  19.244  0.00  0.00    +0.000 OA
ATOM      5  C   UNL     1       3.775   2.799  17.751  0.00  0.00    +0.000 C 
ATOM      6  N   UNL     1       4.667   4.031  17.590  0.00  0.00    +0.000 NA
ATOM      7  C   UNL     1       5.658   4.111  18.762  0.00  0.00    +0.000 C 
ATOM      8  C   UNL     1       5.406   3.904  16.279  0.00  0.00    +0.000 C 
ATOM      9  C   UNL     1       3.819   5.279  17.668  0.00  0.00    +0.000 A 
ATOM     10  C   UNL     1       4.303   6.473  17.093  0.00  0.00    +0.000 A 
ATOM     11  C   UNL     1       3.663   7.692  17.326  0.00  0.00    +0.000 A 
ATOM     12  C   UNL     1       2.537   7.729  18.148  0.00  0.00    +0.000 A 
ATOM     13  C   UNL     1       2.010   6.545  18.692  0.00  0.00    +0.000 A 
ATOM     14  C   UNL     1       2.640   5.302  18.458  0.00  0.00    +0.000 A 
ENDROOT
BRANCH  12  15
ATOM     15  N   UNL     1       1.905   9.020  18.456  0.00  0.00    +0.000 N 
ATOM     16  O   UNL     1       1.974   9.909  17.594  0.00  0.00    +0.000 OA
ATOM     17  O   UNL     1       1.298   9.127  19.530  0.00  0.00    +0.000 OA
ENDBRANCH  12  15
TORSDOF 1
ENDMDL
MODEL 5
REMARK VINA RESULT:      -6.2      2.606      4.727
REMARK  Name = 
REMARK  4 active torsions:
REMARK  status: ('A' for Active; 'I' for Inactive)
REMARK    1  A    between atoms: C_1  and  N_2
REMARK    2  A    between atoms: N_6  and  C_7
REMARK    3  A    between atoms: N_6  and  C_8
REMARK    4  A    between atoms: C_12  and  N_13
REMARK                            x       y       z     vdW  Elec       q    Type
REMARK                         _______ _______ _______ _____ _____    ______ ____
ROOT
ATOM      1  C   UNL     1       2.414   3.312  20.723  0.00  0.00    +0.000 C 
ATOM      2  N   UNL     1       3.010   3.693  19.445  0.00  0.00    +0.000 N 
ATOM      3  C   UNL     1       3.689   2.717  18.735  0.00  0.00    +0.000 C 
ATOM      4  O   UNL     1       3.697   1.522  19.042  0.00  0.00    +0.000 OA
ATOM      5  C   UNL     1       4.352   3.142  17.444  0.00  0.00    +0.000 C 
ATOM      6  N   UNL     1       4.827   4.591  17.326  0.00  0.00    +0.000 NA
ATOM      7  C   UNL     1       6.120   4.780  18.134  0.00  0.00    +0.000 C 
ATOM      8  C   UNL     1       5.068   4.885  15.864  0.00  0.00    +0.000 C 
ATOM      9  C   UNL     1       3.802   5.510  17.948  0.00  0.00    +0.000 A 
ATOM     10  C   UNL     1       3.770   6.865  17.559  0.00  0.00    +0.000 A 
ATOM     11  C   UNL     1       2.994   7.794  18.256  0.00  0.00    +0.000 A 
ATOM     12  C   UNL     1       2.251   7.374  19.359  0.00  0.00    +0.000 A 
ATOM     13  C   UNL     1       2.229   6.020  19.734  0.00  0.00    +0.000 A 
ATOM     14  C   UNL     1       3.002   5.067  19.033  0.00  0.00    +0.000 A 
ENDROOT
BRANCH  12  15
ATOM     15  N   UNL     1       1.492   8.362  20.141  0.00  0.00    +0.000 N 
ATOM     16  O   UNL     1       1.298   8.112  21.340  0.00  0.00    +0.000 OA
ATOM     17  O   UNL     1       1.139   9.403  19.574  0.00  0.00    +0.000 OA
ENDBRANCH  12  15
TORSDOF 1
ENDMDL
MODEL 6
REMARK VINA RESULT:      -6.0      2.835      3.962
REMARK  Name = 
REMARK  4 active torsions:
REMARK  status: ('A' for Active; 'I' for Inactive)
REMARK    1  A    between atoms: C_1  and  N_2
REMARK    2  A    between atoms: N_6  and  C_7
REMARK    3  A    between atoms: N_6  and  C_8
REMARK    4  A    between atoms: C_12  and  N_13
REMARK                            x       y       z     vdW  Elec       q    Type
REMARK                         _______ _______ _______ _____ _____    ______ ____
ROOT
ATOM      1  C   UNL     1       2.944   3.243  17.021  0.00  0.00    +0.000 C 
ATOM      2  N   UNL     1       4.191   3.895  17.410  0.00  0.00    +0.000 N 
ATOM      3  C   UNL     1       4.318   4.309  18.725  0.00  0.00    +0.000 C 
ATOM      4  O   UNL     1       3.510   4.032  19.616  0.00  0.00    +0.000 OA
ATOM      5  C   UNL     1       5.591   5.036  19.097  0.00  0.00    +0.000 C 
ATOM      6  N   UNL     1       6.297   5.846  18.009  0.00  0.00    +0.000 NA
ATOM      7  C   UNL     1       5.536   7.157  17.761  0.00  0.00    +0.000 C 
ATOM      8  C   UNL     1       7.705   6.131  18.478  0.00  0.00    +0.000 C 
ATOM      9  C   UNL     1       6.257   5.081  16.706  0.00  0.00    +0.000 A 
ATOM     10  C   UNL     1       7.213   5.372  15.711  0.00  0.00    +0.000 A 
ATOM     11  C   UNL     1       7.085   4.853  14.420  0.00  0.00    +0.000 A 
ATOM     12  C   UNL     1       5.991   4.046  14.112  0.00  0.00    +0.000 A 
ATOM     13  C   UNL     1       5.053   3.703  15.101  0.00  0.00    +0.000 A 
ATOM     14  C   UNL     1       5.173   4.213  16.414  0.00  0.00    +0.000 A 
ENDROOT
BRANCH  12  15
ATOM     15  N   UNL     1       5.813   3.558  12.736  0.00  0.00    +0.000 N 
ATOM     16  O   UNL     1       6.834   3.236  12.109  0.00  0.00    +0.000 OA
ATOM     17  O   UNL     1       4.659   3.448  12.305  0.00  0.00    +0.000 OA
ENDBRANCH  12  15
TORSDOF 1
ENDMDL
MODEL 7
REMARK VINA RESULT:      -6.0      2.978      5.184
REMARK  Name = 
REMARK  4 active torsions:
REMARK  status: ('A' for Active; 'I' for Inactive)
REMARK    1  A    between atoms: C_1  and  N_2
REMARK    2  A    between atoms: N_6  and  C_7
REMARK    3  A    between atoms: N_6  and  C_8
REMARK    4  A    between atoms: C_12  and  N_13
REMARK                            x       y       z     vdW  Elec       q    Type
REMARK                         _______ _______ _______ _____ _____    ______ ____
ROOT
ATOM      1  C   UNL     1       5.202   6.481  15.757  0.00  0.00    +0.000 C 
ATOM      2  N   UNL     1       4.862   5.646  16.906  0.00  0.00    +0.000 N 
ATOM      3  C   UNL     1       5.432   4.387  16.979  0.00  0.00    +0.000 C 
ATOM      4  O   UNL     1       6.316   3.986  16.216  0.00  0.00    +0.000 OA
ATOM      5  C   UNL     1       5.023   3.512  18.143  0.00  0.00    +0.000 C 
ATOM      6  N   UNL     1       3.626   3.713  18.732  0.00  0.00    +0.000 NA
ATOM      7  C   UNL     1       2.575   3.088  17.801  0.00  0.00    +0.000 C 
ATOM      8  C   UNL     1       3.593   3.050  20.090  0.00  0.00    +0.000 C 
ATOM      9  C   UNL     1       3.312   5.190  18.793  0.00  0.00    +0.000 A 
ATOM     10  C   UNL     1       2.333   5.646  19.699  0.00  0.00    +0.000 A 
ATOM     11  C   UNL     1       1.856   6.957  19.640  0.00  0.00    +0.000 A 
ATOM     12  C   UNL     1       2.349   7.822  18.664  0.00  0.00    +0.000 A 
ATOM     13  C   UNL     1       3.360   7.403  17.782  0.00  0.00    +0.000 A 
ATOM     14  C   UNL     1       3.860   6.082  17.835  0.00  0.00    +0.000 A 
ENDROOT
BRANCH  12  15
ATOM     15  N   UNL     1       1.796   9.180  18.550  0.00  0.00    +0.000 N 
ATOM     16  O   UNL     1       1.188   9.631  19.532  0.00  0.00    +0.000 OA
ATOM     17  O   UNL     1       2.016   9.810  17.508  0.00  0.00    +0.000 OA
ENDBRANCH  12  15
TORSDOF 1
ENDMDL
MODEL 8
REMARK VINA RESULT:      -5.9      1.859      3.331
REMARK  Name = 
REMARK  4 active torsions:
REMARK  status: ('A' for Active; 'I' for Inactive)
REMARK    1  A    between atoms: C_1  and  N_2
REMARK    2  A    between atoms: N_6  and  C_7
REMARK    3  A    between atoms: N_6  and  C_8
REMARK    4  A    between atoms: C_12  and  N_13
REMARK                            x       y       z     vdW  Elec       q    Type
REMARK                         _______ _______ _______ _____ _____    ______ ____
ROOT
ATOM      1  C   UNL     1       2.181   6.410  19.894  0.00  0.00    +0.000 C 
ATOM      2  N   UNL     1       2.437   5.046  19.436  0.00  0.00    +0.000 N 
ATOM      3  C   UNL     1       1.803   4.014  20.106  0.00  0.00    +0.000 C 
ATOM      4  O   UNL     1       0.930   4.180  20.962  0.00  0.00    +0.000 OA
ATOM      5  C   UNL     1       2.125   2.605  19.660  0.00  0.00    +0.000 C 
ATOM      6  N   UNL     1       3.507   2.342  19.059  0.00  0.00    +0.000 NA
ATOM      7  C   UNL     1       4.560   2.305  20.178  0.00  0.00    +0.000 C 
ATOM      8  C   UNL     1       3.457   1.018  18.334  0.00  0.00    +0.000 C 
ATOM      9  C   UNL     1       3.890   3.492  18.156  0.00  0.00    +0.000 A 
ATOM     10  C   UNL     1       4.856   3.281  17.150  0.00  0.00    +0.000 A 
ATOM     11  C   UNL     1       5.399   4.354  16.440  0.00  0.00    +0.000 A 
ATOM     12  C   UNL     1       4.985   5.652  16.739  0.00  0.00    +0.000 A 
ATOM     13  C   UNL     1       3.989   5.881  17.703  0.00  0.00    +0.000 A 
ATOM     14  C   UNL     1       3.424   4.805  18.424  0.00  0.00    +0.000 A 
ENDROOT
BRANCH  12  15
ATOM     15  N   UNL     1       5.608   6.789  16.046  0.00  0.00    +0.000 N 
ATOM     16  O   UNL     1       6.574   7.335  16.600  0.00  0.00    +0.000 OA
ATOM     17  O   UNL     1       5.168   7.101  14.932  0.00  0.00    +0.000 OA
ENDBRANCH  12  15
TORSDOF 1
ENDMDL
MODEL 9
REMARK VINA RESULT:      -5.9      2.749      5.350
REMARK  Name = 
REMARK  4 active torsions:
REMARK  status: ('A' for Active; 'I' for Inactive)
REMARK    1  A    between atoms: C_1  and  N_2
REMARK    2  A    between atoms: N_6  and  C_7
REMARK    3  A    between atoms: N_6  and  C_8
REMARK    4  A    between atoms: C_12  and  N_13
REMARK                            x       y       z     vdW  Elec       q    Type
REMARK                         _______ _______ _______ _____ _____    ______ ____
ROOT
ATOM      1  C   UNL     1       4.505   6.660  16.704  0.00  0.00    +0.000 C 
ATOM      2  N   UNL     1       4.233   5.655  17.727  0.00  0.00    +0.000 N 
ATOM      3  C   UNL     1       4.792   4.399  17.561  0.00  0.00    +0.000 C 
ATOM      4  O   UNL     1       5.618   4.123  16.686  0.00  0.00    +0.000 OA
ATOM      5  C   UNL     1       4.451   3.351  18.597  0.00  0.00    +0.000 C 
ATOM      6  N   UNL     1       3.100   3.457  19.305  0.00  0.00    +0.000 NA
ATOM      7  C   UNL     1       1.981   2.989  18.361  0.00  0.00    +0.000 C 
ATOM      8  C   UNL     1       3.150   2.588  20.539  0.00  0.00    +0.000 C 
ATOM      9  C   UNL     1       2.808   4.906  19.619  0.00  0.00    +0.000 A 
ATOM     10  C   UNL     1       1.898   5.214  20.651  0.00  0.00    +0.000 A 
ATOM     11  C   UNL     1       1.433   6.518  20.833  0.00  0.00    +0.000 A 
ATOM     12  C   UNL     1       1.870   7.526  19.974  0.00  0.00    +0.000 A 
ATOM     13  C   UNL     1       2.815   7.252  18.970  0.00  0.00    +0.000 A 
ATOM     14  C   UNL     1       3.301   5.939  18.779  0.00  0.00    +0.000 A 
ENDROOT
BRANCH  12  15
ATOM     15  N   UNL     1       1.327   8.886  20.115  0.00  0.00    +0.000 N 
ATOM     16  O   UNL     1       1.162   9.317  21.266  0.00  0.00    +0.000 OA
ATOM     17  O   UNL     1       1.118   9.536  19.083  0.00  0.00    +0.000 OA
ENDBRANCH  12  15
TORSDOF 1
ENDMDL
