MODEL 1
REMARK VINA RESULT:      -7.4      0.000      0.000
REMARK  Name = 
REMARK  4 active torsions:
REMARK  status: ('A' for Active; 'I' for Inactive)
REMARK    1  A    between atoms: C_1  and  C_2
REMARK    2  A    between atoms: C_2  and  O_3
REMARK    3  A    between atoms: O_3  and  C_4
REMARK    4  A    between atoms: C_9  and  C_10
REMARK                            x       y       z     vdW  Elec       q    Type
REMARK                         _______ _______ _______ _____ _____    ______ ____
ROOT
ATOM      1  C   UNL     1       6.537   4.697  17.661  0.00  0.00    +0.000 A 
ATOM      2  C   UNL     1       7.232   4.347  16.475  0.00  0.00    +0.000 A 
ATOM      3  C   UNL     1       6.566   4.217  15.260  0.00  0.00    +0.000 A 
ATOM      4  C   UNL     1       5.196   4.426  15.192  0.00  0.00    +0.000 A 
ATOM      5  C   UNL     1       4.483   4.765  16.338  0.00  0.00    +0.000 A 
ATOM      6  C   UNL     1       5.124   4.906  17.585  0.00  0.00    +0.000 A 
ENDROOT
BRANCH   6   7
ATOM      7  C   UNL     1       4.243   5.315  18.765  0.00  0.00    +0.000 C 
ATOM      8  C   UNL     1       3.474   6.624  18.599  0.00  0.00    +0.000 C 
ATOM      9  C   UNL     1       2.350   6.519  19.645  0.00  0.00    +0.000 C 
ATOM     10  C   UNL     1       2.406   5.049  20.077  0.00  0.00    +0.000 C 
ATOM     11  C   UNL     1       1.086   4.313  20.312  0.00  0.00    +0.000 C 
ATOM     12  C   UNL     1       1.426   2.887  20.797  0.00  0.00    +0.000 C 
ATOM     13  C   UNL     1       2.390   2.179  19.820  0.00  0.00    +0.000 C 
ATOM     14  C   UNL     1       3.635   3.047  19.561  0.00  0.00    +0.000 C 
ATOM     15  N   UNL     1       3.184   4.351  19.046  0.00  0.00    +0.000 NA
ENDBRANCH   6   7
BRANCH   1  16
ATOM     16  O   UNL     1       7.213   4.829  18.842  0.00  0.00    +0.000 OA
BRANCH  16  18
ATOM     17  C   UNL     1       7.795   7.086  18.209  0.00  0.00    +0.000 C 
ATOM     18  C   UNL     1       8.003   5.927  19.170  0.00  0.00    +0.000 C 
ENDBRANCH  16  18
ENDBRANCH   1  16
TORSDOF 3
ENDMDL
MODEL 2
REMARK VINA RESULT:      -7.3      1.503      3.247
REMARK  Name = 
REMARK  4 active torsions:
REMARK  status: ('A' for Active; 'I' for Inactive)
REMARK    1  A    between atoms: C_1  and  C_2
REMARK    2  A    between atoms: C_2  and  O_3
REMARK    3  A    between atoms: O_3  and  C_4
REMARK    4  A    between atoms: C_9  and  C_10
REMARK                            x       y       z     vdW  Elec       q    Type
REMARK                         _______ _______ _______ _____ _____    ______ ____
ROOT
ATOM      1  C   UNL     1       6.084   6.166  17.006  0.00  0.00    +0.000 A 
ATOM      2  C   UNL     1       7.315   6.781  17.353  0.00  0.00    +0.000 A 
ATOM      3  C   UNL     1       7.909   6.558  18.591  0.00  0.00    +0.000 A 
ATOM      4  C   UNL     1       7.296   5.725  19.517  0.00  0.00    +0.000 A 
ATOM      5  C   UNL     1       6.086   5.111  19.211  0.00  0.00    +0.000 A 
ATOM      6  C   UNL     1       5.456   5.313  17.966  0.00  0.00    +0.000 A 
ENDROOT
BRANCH   6   7
ATOM      7  C   UNL     1       4.148   4.557  17.731  0.00  0.00    +0.000 C 
ATOM      8  C   UNL     1       4.290   3.115  17.249  0.00  0.00    +0.000 C 
ATOM      9  C   UNL     1       2.925   2.487  17.581  0.00  0.00    +0.000 C 
ATOM     10  C   UNL     1       2.265   3.533  18.488  0.00  0.00    +0.000 C 
ATOM     11  C   UNL     1       1.460   3.043  19.693  0.00  0.00    +0.000 C 
ATOM     12  C   UNL     1       0.857   4.283  20.387  0.00  0.00    +0.000 C 
ATOM     13  C   UNL     1       1.949   5.321  20.724  0.00  0.00    +0.000 C 
ATOM     14  C   UNL     1       2.776   5.667  19.473  0.00  0.00    +0.000 C 
ATOM     15  N   UNL     1       3.346   4.417  18.942  0.00  0.00    +0.000 NA
ENDBRANCH   6   7
BRANCH   1  16
ATOM     16  O   UNL     1       5.524   6.391  15.779  0.00  0.00    +0.000 OA
BRANCH  16  18
ATOM     17  C   UNL     1       6.824   4.785  14.528  0.00  0.00    +0.000 C 
ATOM     18  C   UNL     1       5.474   5.445  14.760  0.00  0.00    +0.000 C 
ENDBRANCH  16  18
ENDBRANCH   1  16
TORSDOF 3
ENDMDL
MODEL 3
REMARK VINA RESULT:      -7.0      1.148      1.200
REMARK  Name = 
REMARK  4 active torsions:
REMARK  status: ('A' for Active; 'I' for Inactive)
REMARK    1  A    between atoms: C_1  and  C_2
REMARK    2  A    between atoms: C_2  and  O_3
REMARK    3  A    between atoms: O_3  and  C_4
REMARK    4  A    between atoms: C_9  and  C_10
REMARK                            x       y       z     vdW  Elec       q    Type
REMARK                         _______ _______ _______ _____ _____    ______ ____
ROOT
ATOM      1  C   UNL     1       6.668   5.744  16.832  0.00  0.00    +0.000 A 
ATOM      2  C   UNL     1       7.321   5.221  15.686  0.00  0.00    +0.000 A 
ATOM      3  C   UNL     1       6.675   4.335  14.829  0.00  0.00    +0.000 A 
ATOM      4  C   UNL     1       5.371   3.941  15.090  0.00  0.00    +0.000 A 
ATOM      5  C   UNL     1       4.703   4.431  16.208  0.00  0.00    +0.000 A 
ATOM      6  C   UNL     1       5.324   5.330  17.097  0.00  0.00    +0.000 A 
ENDROOT
BRANCH   6   7
ATOM      7  C   UNL     1       4.480   5.826  18.271  0.00  0.00    +0.000 C 
ATOM      8  C   UNL     1       3.469   6.924  17.946  0.00  0.00    +0.000 C 
ATOM      9  C   UNL     1       2.473   6.855  19.117  0.00  0.00    +0.000 C 
ATOM     10  C   UNL     1       2.837   5.540  19.814  0.00  0.00    +0.000 C 
ATOM     11  C   UNL     1       1.701   4.660  20.340  0.00  0.00    +0.000 C 
ATOM     12  C   UNL     1       2.339   3.446  21.047  0.00  0.00    +0.000 C 
ATOM     13  C   UNL     1       3.337   2.719  20.119  0.00  0.00    +0.000 C 
ATOM     14  C   UNL     1       4.373   3.707  19.554  0.00  0.00    +0.000 C 
ATOM     15  N   UNL     1       3.646   4.780  18.853  0.00  0.00    +0.000 NA
ENDBRANCH   6   7
BRANCH   1  16
ATOM     16  O   UNL     1       7.317   6.622  17.654  0.00  0.00    +0.000 OA
BRANCH  16  18
ATOM     17  C   UNL     1       8.445   8.651  18.325  0.00  0.00    +0.000 C 
ATOM     18  C   UNL     1       7.439   7.985  17.400  0.00  0.00    +0.000 C 
ENDBRANCH  16  18
ENDBRANCH   1  16
TORSDOF 3
ENDMDL
MODEL 4
REMARK VINA RESULT:      -6.8      1.058      2.340
REMARK  Name = 
REMARK  4 active torsions:
REMARK  status: ('A' for Active; 'I' for Inactive)
REMARK    1  A    between atoms: C_1  and  C_2
REMARK    2  A    between atoms: C_2  and  O_3
REMARK    3  A    between atoms: O_3  and  C_4
REMARK    4  A    between atoms: C_9  and  C_10
REMARK                            x       y       z     vdW  Elec       q    Type
REMARK                         _______ _______ _______ _____ _____    ______ ____
ROOT
ATOM      1  C   UNL     1       6.125   4.322  17.221  0.00  0.00    +0.000 A 
ATOM      2  C   UNL     1       7.194   4.702  16.369  0.00  0.00    +0.000 A 
ATOM      3  C   UNL     1       7.030   4.760  14.989  0.00  0.00    +0.000 A 
ATOM      4  C   UNL     1       5.807   4.438  14.419  0.00  0.00    +0.000 A 
ATOM      5  C   UNL     1       4.739   4.056  15.226  0.00  0.00    +0.000 A 
ATOM      6  C   UNL     1       4.868   3.987  16.627  0.00  0.00    +0.000 A 
ENDROOT
BRANCH   6   7
ATOM      7  C   UNL     1       3.617   3.588  17.411  0.00  0.00    +0.000 C 
ATOM      8  C   UNL     1       3.639   2.195  18.035  0.00  0.00    +0.000 C 
ATOM      9  C   UNL     1       2.552   2.269  19.122  0.00  0.00    +0.000 C 
ATOM     10  C   UNL     1       2.244   3.768  19.213  0.00  0.00    +0.000 C 
ATOM     11  C   UNL     1       2.006   4.376  20.597  0.00  0.00    +0.000 C 
ATOM     12  C   UNL     1       1.656   5.866  20.398  0.00  0.00    +0.000 C 
ATOM     13  C   UNL     1       2.733   6.587  19.558  0.00  0.00    +0.000 C 
ATOM     14  C   UNL     1       2.980   5.839  18.235  0.00  0.00    +0.000 C 
ATOM     15  N   UNL     1       3.365   4.454  18.558  0.00  0.00    +0.000 NA
ENDBRANCH   6   7
BRANCH   1  16
ATOM     16  O   UNL     1       6.304   4.282  18.576  0.00  0.00    +0.000 OA
BRANCH  16  18
ATOM     17  C   UNL     1       7.969   5.813  19.425  0.00  0.00    +0.000 C 
ATOM     18  C   UNL     1       6.505   5.407  19.370  0.00  0.00    +0.000 C 
ENDBRANCH  16  18
ENDBRANCH   1  16
TORSDOF 3
ENDMDL
MODEL 5
REMARK VINA RESULT:      -6.7      1.759      3.336
REMARK  Name = 
REMARK  4 active torsions:
REMARK  status: ('A' for Active; 'I' for Inactive)
REMARK    1  A    between atoms: C_1  and  C_2
REMARK    2  A    between atoms: C_2  and  O_3
REMARK    3  A    between atoms: O_3  and  C_4
REMARK    4  A    between atoms: C_9  and  C_10
REMARK                            x       y       z     vdW  Elec       q    Type
REMARK                         _______ _______ _______ _____ _____    ______ ____
ROOT
ATOM      1  C   UNL     1       5.022   6.538  17.348  0.00  0.00    +0.000 A 
ATOM      2  C   UNL     1       6.265   7.222  17.356  0.00  0.00    +0.000 A 
ATOM      3  C   UNL     1       7.448   6.566  17.682  0.00  0.00    +0.000 A 
ATOM      4  C   UNL     1       7.427   5.219  18.013  0.00  0.00    +0.000 A 
ATOM      5  C   UNL     1       6.224   4.519  18.020  0.00  0.00    +0.000 A 
ATOM      6  C   UNL     1       5.007   5.150  17.694  0.00  0.00    +0.000 A 
ENDROOT
BRANCH   6   7
ATOM      7  C   UNL     1       3.756   4.272  17.702  0.00  0.00    +0.000 C 
ATOM      8  C   UNL     1       3.918   2.878  17.099  0.00  0.00    +0.000 C 
ATOM      9  C   UNL     1       2.730   2.092  17.682  0.00  0.00    +0.000 C 
ATOM     10  C   UNL     1       2.201   3.016  18.784  0.00  0.00    +0.000 C 
ATOM     11  C   UNL     1       1.742   2.385  20.100  0.00  0.00    +0.000 C 
ATOM     12  C   UNL     1       1.201   3.518  20.998  0.00  0.00    +0.000 C 
ATOM     13  C   UNL     1       2.239   4.650  21.157  0.00  0.00    +0.000 C 
ATOM     14  C   UNL     1       2.722   5.143  19.781  0.00  0.00    +0.000 C 
ATOM     15  N   UNL     1       3.270   3.988  19.049  0.00  0.00    +0.000 NA
ENDBRANCH   6   7
BRANCH   1  16
ATOM     16  O   UNL     1       3.873   7.200  17.014  0.00  0.00    +0.000 OA
BRANCH  16  18
ATOM     17  C   UNL     1       1.819   8.203  17.797  0.00  0.00    +0.000 C 
ATOM     18  C   UNL     1       3.339   8.253  17.749  0.00  0.00    +0.000 C 
ENDBRANCH  16  18
ENDBRANCH   1  16
TORSDOF 3
ENDMDL
MODEL 6
REMARK VINA RESULT:      -6.7      1.911      5.147
REMARK  Name = 
REMARK  4 active torsions:
REMARK  status: ('A' for Active; 'I' for Inactive)
REMARK    1  A    between atoms: C_1  and  C_2
REMARK    2  A    between atoms: C_2  and  O_3
REMARK    3  A    between atoms: O_3  and  C_4
REMARK    4  A    between atoms: C_9  and  C_10
REMARK                            x       y       z     vdW  Elec       q    Type
REMARK                         _______ _______ _______ _____ _____    ______ ____
ROOT
ATOM      1  C   UNL     1       2.517   4.506  17.921  0.00  0.00    +0.000 A 
ATOM      2  C   UNL     1       1.332   4.031  18.538  0.00  0.00    +0.000 A 
ATOM      3  C   UNL     1       1.137   2.674  18.778  0.00  0.00    +0.000 A 
ATOM      4  C   UNL     1       2.109   1.756  18.407  0.00  0.00    +0.000 A 
ATOM      5  C   UNL     1       3.281   2.188  17.795  0.00  0.00    +0.000 A 
ATOM      6  C   UNL     1       3.513   3.554  17.537  0.00  0.00    +0.000 A 
ENDROOT
BRANCH   6   7
ATOM      7  C   UNL     1       4.852   3.912  16.891  0.00  0.00    +0.000 C 
ATOM      8  C   UNL     1       4.777   4.481  15.477  0.00  0.00    +0.000 C 
ATOM      9  C   UNL     1       6.132   5.188  15.300  0.00  0.00    +0.000 C 
ATOM     10  C   UNL     1       6.705   5.216  16.721  0.00  0.00    +0.000 C 
ATOM     11  C   UNL     1       7.442   6.476  17.181  0.00  0.00    +0.000 C 
ATOM     12  C   UNL     1       7.967   6.215  18.609  0.00  0.00    +0.000 C 
ATOM     13  C   UNL     1       6.831   5.757  19.548  0.00  0.00    +0.000 C 
ATOM     14  C   UNL     1       6.079   4.555  18.948  0.00  0.00    +0.000 C 
ATOM     15  N   UNL     1       5.576   4.948  17.621  0.00  0.00    +0.000 NA
ENDBRANCH   6   7
BRANCH   1  16
ATOM     16  O   UNL     1       2.692   5.845  17.704  0.00  0.00    +0.000 OA
BRANCH  16  18
ATOM     17  C   UNL     1       2.205   8.178  18.096  0.00  0.00    +0.000 C 
ATOM     18  C   UNL     1       2.545   6.819  18.686  0.00  0.00    +0.000 C 
ENDBRANCH  16  18
ENDBRANCH   1  16
TORSDOF 3
ENDMDL
MODEL 7
REMARK VINA RESULT:      -6.7      1.713      5.381
REMARK  Name = 
REMARK  4 active torsions:
REMARK  status: ('A' for Active; 'I' for Inactive)
REMARK    1  A    between atoms: C_1  and  C_2
REMARK    2  A    between atoms: C_2  and  O_3
REMARK    3  A    between atoms: O_3  and  C_4
REMARK    4  A    between atoms: C_9  and  C_10
REMARK                            x       y       z     vdW  Elec       q    Type
REMARK                         _______ _______ _______ _____ _____    ______ ____
ROOT
ATOM      1  C   UNL     1       2.855   5.525  19.773  0.00  0.00    +0.000 A 
ATOM      2  C   UNL     1       1.821   4.809  20.430  0.00  0.00    +0.000 A 
ATOM      3  C   UNL     1       1.964   3.460  20.742  0.00  0.00    +0.000 A 
ATOM      4  C   UNL     1       3.130   2.788  20.406  0.00  0.00    +0.000 A 
ATOM      5  C   UNL     1       4.161   3.460  19.757  0.00  0.00    +0.000 A 
ATOM      6  C   UNL     1       4.053   4.825  19.426  0.00  0.00    +0.000 A 
ENDROOT
BRANCH   6   7
ATOM      7  C   UNL     1       5.263   5.464  18.745  0.00  0.00    +0.000 C 
ATOM      8  C   UNL     1       6.573   5.410  19.529  0.00  0.00    +0.000 C 
ATOM      9  C   UNL     1       7.648   5.639  18.452  0.00  0.00    +0.000 C 
ATOM     10  C   UNL     1       6.872   5.490  17.139  0.00  0.00    +0.000 C 
ATOM     11  C   UNL     1       7.546   4.757  15.978  0.00  0.00    +0.000 C 
ATOM     12  C   UNL     1       6.584   4.808  14.772  0.00  0.00    +0.000 C 
ATOM     13  C   UNL     1       5.187   4.267  15.147  0.00  0.00    +0.000 C 
ATOM     14  C   UNL     1       4.640   4.990  16.392  0.00  0.00    +0.000 C 
ATOM     15  N   UNL     1       5.613   4.816  17.485  0.00  0.00    +0.000 NA
ENDBRANCH   6   7
BRANCH   1  16
ATOM     16  O   UNL     1       2.698   6.853  19.486  0.00  0.00    +0.000 OA
BRANCH  16  18
ATOM     17  C   UNL     1       1.901   8.777  18.262  0.00  0.00    +0.000 C 
ATOM     18  C   UNL     1       2.418   7.348  18.216  0.00  0.00    +0.000 C 
ENDBRANCH  16  18
ENDBRANCH   1  16
TORSDOF 3
ENDMDL
MODEL 8
REMARK VINA RESULT:      -6.7      1.856      5.607
REMARK  Name = 
REMARK  4 active torsions:
REMARK  status: ('A' for Active; 'I' for Inactive)
REMARK    1  A    between atoms: C_1  and  C_2
REMARK    2  A    between atoms: C_2  and  O_3
REMARK    3  A    between atoms: O_3  and  C_4
REMARK    4  A    between atoms: C_9  and  C_10
REMARK                            x       y       z     vdW  Elec       q    Type
REMARK                         _______ _______ _______ _____ _____    ______ ____
ROOT
ATOM      1  C   UNL     1       2.178   6.044  20.330  0.00  0.00    +0.000 A 
ATOM      2  C   UNL     1       1.477   7.198  20.763  0.00  0.00    +0.000 A 
ATOM      3  C   UNL     1       1.452   8.358  19.995  0.00  0.00    +0.000 A 
ATOM      4  C   UNL     1       2.125   8.403  18.782  0.00  0.00    +0.000 A 
ATOM      5  C   UNL     1       2.827   7.290  18.330  0.00  0.00    +0.000 A 
ATOM      6  C   UNL     1       2.873   6.099  19.081  0.00  0.00    +0.000 A 
ENDROOT
BRANCH   6   7
ATOM      7  C   UNL     1       3.646   4.932  18.466  0.00  0.00    +0.000 C 
ATOM      8  C   UNL     1       3.093   4.386  17.152  0.00  0.00    +0.000 C 
ATOM      9  C   UNL     1       4.286   3.626  16.546  0.00  0.00    +0.000 C 
ATOM     10  C   UNL     1       5.468   4.073  17.413  0.00  0.00    +0.000 C 
ATOM     11  C   UNL     1       6.808   4.346  16.727  0.00  0.00    +0.000 C 
ATOM     12  C   UNL     1       7.830   4.711  17.825  0.00  0.00    +0.000 C 
ATOM     13  C   UNL     1       7.313   5.869  18.707  0.00  0.00    +0.000 C 
ATOM     14  C   UNL     1       5.913   5.548  19.261  0.00  0.00    +0.000 C 
ATOM     15  N   UNL     1       5.021   5.280  18.120  0.00  0.00    +0.000 NA
ENDBRANCH   6   7
BRANCH   1  16
ATOM     16  O   UNL     1       2.181   4.911  21.096  0.00  0.00    +0.000 OA
BRANCH  16  18
ATOM     17  C   UNL     1       1.737   2.619  21.718  0.00  0.00    +0.000 C 
ATOM     18  C   UNL     1       1.332   3.828  20.889  0.00  0.00    +0.000 C 
ENDBRANCH  16  18
ENDBRANCH   1  16
TORSDOF 3
ENDMDL
MODEL 9
REMARK VINA RESULT:      -6.6      1.404      1.695
REMARK  Name = 
REMARK  4 active torsions:
REMARK  status: ('A' for Active; 'I' for Inactive)
REMARK    1  A    between atoms: C_1  and  C_2
REMARK    2  A    between atoms: C_2  and  O_3
REMARK    3  A    between atoms: O_3  and  C_4
REMARK    4  A    between atoms: C_9  and  C_10
REMARK                            x       y       z     vdW  Elec       q    Type
REMARK                         _______ _______ _______ _____ _____    ______ ____
ROOT
ATOM      1  C   UNL     1       6.828   5.118  15.930  0.00  0.00    +0.000 A 
ATOM      2  C   UNL     1       7.485   4.844  14.703  0.00  0.00    +0.000 A 
ATOM      3  C   UNL     1       6.788   4.352  13.605  0.00  0.00    +0.000 A 
ATOM      4  C   UNL     1       5.423   4.115  13.697  0.00  0.00    +0.000 A 
ATOM      5  C   UNL     1       4.749   4.367  14.887  0.00  0.00    +0.000 A 
ATOM      6  C   UNL     1       5.422   4.866  16.020  0.00  0.00    +0.000 A 
ENDROOT
BRANCH   6   7
ATOM      7  C   UNL     1       4.570   5.138  17.259  0.00  0.00    +0.000 C 
ATOM      8  C   UNL     1       3.883   6.501  17.309  0.00  0.00    +0.000 C 
ATOM      9  C   UNL     1       2.757   6.300  18.338  0.00  0.00    +0.000 C 
ATOM     10  C   UNL     1       2.722   4.780  18.533  0.00  0.00    +0.000 C 
ATOM     11  C   UNL     1       1.360   4.097  18.665  0.00  0.00    +0.000 C 
ATOM     12  C   UNL     1       1.612   2.595  18.916  0.00  0.00    +0.000 C 
ATOM     13  C   UNL     1       2.529   1.993  17.829  0.00  0.00    +0.000 C 
ATOM     14  C   UNL     1       3.825   2.813  17.696  0.00  0.00    +0.000 C 
ATOM     15  N   UNL     1       3.454   4.207  17.397  0.00  0.00    +0.000 NA
ENDBRANCH   6   7
BRANCH   1  16
ATOM     16  O   UNL     1       7.531   5.611  16.994  0.00  0.00    +0.000 OA
BRANCH  16  18
ATOM     17  C   UNL     1       7.829   5.795  19.385  0.00  0.00    +0.000 C 
ATOM     18  C   UNL     1       7.786   4.895  18.160  0.00  0.00    +0.000 C 
ENDBRANCH  16  18
ENDBRANCH   1  16
TORSDOF 3
ENDMDL
