MODEL 1
REMARK VINA RESULT:      -8.3      0.000      0.000
REMARK  Name = 
REMARK  7 active torsions:
REMARK  status: ('A' for Active; 'I' for Inactive)
REMARK    1  A    between atoms: C_2  and  C_12
REMARK    2  A    between atoms: N_3  and  C_4
REMARK    3  A    between atoms: C_4  and  C_5
REMARK    4  A    between atoms: C_5  and  C_6
REMARK    5  A    between atoms: C_6  and  N_7
REMARK    6  A    between atoms: N_14  and  C_15
REMARK    7  A    between atoms: C_22  and  C_23
REMARK                            x       y       z     vdW  Elec       q    Type
REMARK                         _______ _______ _______ _____ _____    ______ ____
ROOT
ATOM      1  C   UNL     1       5.894   5.205  17.528  0.00  0.00    +0.000 A 
ATOM      2  C   UNL     1       4.941   5.009  18.508  0.00  0.00    +0.000 A 
ATOM      3  N   UNL     1       3.932   4.255  17.962  0.00  0.00    +0.000 N 
ATOM      4  N   UNL     1       4.207   3.917  16.685  0.00  0.00    +0.000 NA
ATOM      5  C   UNL     1       5.374   4.515  16.390  0.00  0.00    +0.000 A 
ENDROOT
BRANCH   3   6
ATOM      6  C   UNL     1       2.728   3.846  18.598  0.00  0.00    +0.000 A 
ATOM      7  C   UNL     1       2.250   4.526  19.728  0.00  0.00    +0.000 A 
ATOM      8  C   UNL     1       1.070   4.110  20.347  0.00  0.00    +0.000 A 
ATOM      9  C   UNL     1       0.368   3.014  19.851  0.00  0.00    +0.000 A 
ATOM     10  C   UNL     1       0.834   2.339  18.723  0.00  0.00    +0.000 A 
ATOM     11  C   UNL     1       2.007   2.757  18.090  0.00  0.00    +0.000 A 
ENDBRANCH   3   6
BRANCH   5  12
ATOM     12  C   UNL     1       5.939   4.407  15.041  0.00  0.00    +0.000 A 
ATOM     13  C   UNL     1       5.323   3.618  14.061  0.00  0.00    +0.000 A 
ATOM     14  C   UNL     1       5.832   3.568  12.761  0.00  0.00    +0.000 A 
ATOM     15  C   UNL     1       6.986   4.276  12.439  0.00  0.00    +0.000 A 
ATOM     16  C   UNL     1       7.635   5.029  13.415  0.00  0.00    +0.000 A 
ATOM     17  C   UNL     1       7.115   5.094  14.711  0.00  0.00    +0.000 A 
ENDBRANCH   5  12
BRANCH   1  19
ATOM     18  O   UNL     1       8.197   5.386  18.009  0.00  0.00    +0.000 OA
ATOM     19  C   UNL     1       7.146   5.922  17.685  0.00  0.00    +0.000 C 
ATOM     20  N   UNL     1       7.064   7.275  17.412  0.00  0.00    +0.000 N 
ATOM     21  H   UNL     1       6.196   7.648  17.056  0.00  0.00    +0.000 HD
BRANCH  20  22
ATOM     22  C   UNL     1       8.231   8.129  17.461  0.00  0.00    +0.000 C 
BRANCH  22  23
ATOM     23  C   UNL     1       7.902   9.543  17.933  0.00  0.00    +0.000 C 
BRANCH  23  24
ATOM     24  C   UNL     1       9.008  10.116  18.815  0.00  0.00    +0.000 C 
BRANCH  24  25
ATOM     25  N   UNL     1       9.542  11.355  18.292  0.00  0.00    +0.000 N 
ATOM     26  C   UNL     1      10.786  11.533  17.752  0.00  0.00    +0.000 A 
ATOM     27  C   UNL     1      10.819  12.855  17.377  0.00  0.00    +0.000 A 
ATOM     28  N   UNL     1       9.628  13.473  17.667  0.00  0.00    +0.000 NA
ATOM     29  C   UNL     1       8.879  12.544  18.215  0.00  0.00    +0.000 A 
ENDBRANCH  24  25
ENDBRANCH  23  24
ENDBRANCH  22  23
ENDBRANCH  20  22
ENDBRANCH   1  19
TORSDOF 7
ENDMDL
MODEL 2
REMARK VINA RESULT:      -8.0      7.200      9.702
REMARK  Name = 
REMARK  7 active torsions:
REMARK  status: ('A' for Active; 'I' for Inactive)
REMARK    1  A    between atoms: C_2  and  C_12
REMARK    2  A    between atoms: N_3  and  C_4
REMARK    3  A    between atoms: C_4  and  C_5
REMARK    4  A    between atoms: C_5  and  C_6
REMARK    5  A    between atoms: C_6  and  N_7
REMARK    6  A    between atoms: N_14  and  C_15
REMARK    7  A    between atoms: C_22  and  C_23
REMARK                            x       y       z     vdW  Elec       q    Type
REMARK                         _______ _______ _______ _____ _____    ______ ____
ROOT
ATOM      1  C   UNL     1       1.367   8.725  20.502  0.00  0.00    +0.000 A 
ATOM      2  C   UNL     1       2.019   7.530  20.273  0.00  0.00    +0.000 A 
ATOM      3  N   UNL     1       2.219   7.417  18.920  0.00  0.00    +0.000 N 
ATOM      4  N   UNL     1       1.764   8.504  18.264  0.00  0.00    +0.000 NA
ATOM      5  C   UNL     1       1.210   9.293  19.201  0.00  0.00    +0.000 A 
ENDROOT
BRANCH   3   6
ATOM      6  C   UNL     1       2.818   6.327  18.230  0.00  0.00    +0.000 A 
ATOM      7  C   UNL     1       2.190   5.073  18.191  0.00  0.00    +0.000 A 
ATOM      8  C   UNL     1       2.792   4.009  17.517  0.00  0.00    +0.000 A 
ATOM      9  C   UNL     1       4.022   4.187  16.889  0.00  0.00    +0.000 A 
ATOM     10  C   UNL     1       4.647   5.433  16.917  0.00  0.00    +0.000 A 
ATOM     11  C   UNL     1       4.045   6.506  17.578  0.00  0.00    +0.000 A 
ENDBRANCH   3   6
BRANCH   5  12
ATOM     12  C   UNL     1       0.553  10.546  18.816  0.00  0.00    +0.000 A 
ATOM     13  C   UNL     1      -0.750  10.550  18.301  0.00  0.00    +0.000 A 
ATOM     14  C   UNL     1      -1.392  11.752  17.993  0.00  0.00    +0.000 A 
ATOM     15  C   UNL     1      -0.724  12.960  18.162  0.00  0.00    +0.000 A 
ATOM     16  C   UNL     1       0.588  12.969  18.632  0.00  0.00    +0.000 A 
ATOM     17  C   UNL     1       1.225  11.768  18.956  0.00  0.00    +0.000 A 
ENDBRANCH   5  12
BRANCH   1  19
ATOM     18  O   UNL     1       1.784   9.446  22.710  0.00  0.00    +0.000 OA
ATOM     19  C   UNL     1       0.990   9.259  21.798  0.00  0.00    +0.000 C 
ATOM     20  N   UNL     1      -0.352   9.567  21.916  0.00  0.00    +0.000 N 
ATOM     21  H   UNL     1      -0.945   9.484  21.103  0.00  0.00    +0.000 HD
BRANCH  20  22
ATOM     22  C   UNL     1      -0.888  10.164  23.121  0.00  0.00    +0.000 C 
BRANCH  22  23
ATOM     23  C   UNL     1      -1.103  11.669  22.982  0.00  0.00    +0.000 C 
BRANCH  23  24
ATOM     24  C   UNL     1      -1.660  12.037  21.610  0.00  0.00    +0.000 C 
BRANCH  24  25
ATOM     25  N   UNL     1      -3.026  12.509  21.681  0.00  0.00    +0.000 N 
ATOM     26  C   UNL     1      -3.823  12.835  20.619  0.00  0.00    +0.000 A 
ATOM     27  C   UNL     1      -5.024  13.199  21.181  0.00  0.00    +0.000 A 
ATOM     28  N   UNL     1      -4.975  13.091  22.548  0.00  0.00    +0.000 NA
ATOM     29  C   UNL     1      -3.760  12.672  22.818  0.00  0.00    +0.000 A 
ENDBRANCH  24  25
ENDBRANCH  23  24
ENDBRANCH  22  23
ENDBRANCH  20  22
ENDBRANCH   1  19
TORSDOF 7
ENDMDL
MODEL 3
REMARK VINA RESULT:      -8.0      4.118      7.730
REMARK  Name = 
REMARK  7 active torsions:
REMARK  status: ('A' for Active; 'I' for Inactive)
REMARK    1  A    between atoms: C_2  and  C_12
REMARK    2  A    between atoms: N_3  and  C_4
REMARK    3  A    between atoms: C_4  and  C_5
REMARK    4  A    between atoms: C_5  and  C_6
REMARK    5  A    between atoms: C_6  and  N_7
REMARK    6  A    between atoms: N_14  and  C_15
REMARK    7  A    between atoms: C_22  and  C_23
REMARK                            x       y       z     vdW  Elec       q    Type
REMARK                         _______ _______ _______ _____ _____    ______ ____
ROOT
ATOM      1  C   UNL     1       3.326   6.475  17.972  0.00  0.00    +0.000 A 
ATOM      2  C   UNL     1       4.178   6.624  16.895  0.00  0.00    +0.000 A 
ATOM      3  N   UNL     1       4.587   5.371  16.512  0.00  0.00    +0.000 N 
ATOM      4  N   UNL     1       4.006   4.413  17.264  0.00  0.00    +0.000 NA
ATOM      5  C   UNL     1       3.266   5.063  18.179  0.00  0.00    +0.000 A 
ENDROOT
BRANCH   3   6
ATOM      6  C   UNL     1       5.500   5.049  15.471  0.00  0.00    +0.000 A 
ATOM      7  C   UNL     1       6.805   5.564  15.479  0.00  0.00    +0.000 A 
ATOM      8  C   UNL     1       7.689   5.246  14.447  0.00  0.00    +0.000 A 
ATOM      9  C   UNL     1       7.277   4.425  13.401  0.00  0.00    +0.000 A 
ATOM     10  C   UNL     1       5.983   3.903  13.391  0.00  0.00    +0.000 A 
ATOM     11  C   UNL     1       5.096   4.206  14.427  0.00  0.00    +0.000 A 
ENDBRANCH   3   6
BRANCH   5  12
ATOM     12  C   UNL     1       2.543   4.314  19.211  0.00  0.00    +0.000 A 
ATOM     13  C   UNL     1       3.024   4.243  20.524  0.00  0.00    +0.000 A 
ATOM     14  C   UNL     1       2.299   3.579  21.516  0.00  0.00    +0.000 A 
ATOM     15  C   UNL     1       1.103   2.944  21.195  0.00  0.00    +0.000 A 
ATOM     16  C   UNL     1       0.634   2.968  19.884  0.00  0.00    +0.000 A 
ATOM     17  C   UNL     1       1.351   3.648  18.895  0.00  0.00    +0.000 A 
ENDBRANCH   5  12
BRANCH   1  19
ATOM     18  O   UNL     1       2.368   7.511  19.864  0.00  0.00    +0.000 OA
ATOM     19  C   UNL     1       2.636   7.544  18.670  0.00  0.00    +0.000 C 
ATOM     20  N   UNL     1       2.321   8.631  17.876  0.00  0.00    +0.000 N 
ATOM     21  H   UNL     1       2.649   8.647  16.921  0.00  0.00    +0.000 HD
BRANCH  20  22
ATOM     22  C   UNL     1       1.685   9.810  18.423  0.00  0.00    +0.000 C 
BRANCH  22  23
ATOM     23  C   UNL     1       0.169   9.791  18.249  0.00  0.00    +0.000 C 
BRANCH  23  24
ATOM     24  C   UNL     1      -0.525  10.733  19.229  0.00  0.00    +0.000 C 
BRANCH  24  25
ATOM     25  N   UNL     1      -0.312  10.346  20.607  0.00  0.00    +0.000 N 
ATOM     26  C   UNL     1      -0.445   9.087  21.122  0.00  0.00    +0.000 A 
ATOM     27  C   UNL     1      -0.116   9.215  22.451  0.00  0.00    +0.000 A 
ATOM     28  N   UNL     1       0.219  10.512  22.747  0.00  0.00    +0.000 NA
ATOM     29  C   UNL     1       0.093  11.169  21.616  0.00  0.00    +0.000 A 
ENDBRANCH  24  25
ENDBRANCH  23  24
ENDBRANCH  22  23
ENDBRANCH  20  22
ENDBRANCH   1  19
TORSDOF 7
ENDMDL
MODEL 4
REMARK VINA RESULT:      -8.0      1.416      5.195
REMARK  Name = 
REMARK  7 active torsions:
REMARK  status: ('A' for Active; 'I' for Inactive)
REMARK    1  A    between atoms: C_2  and  C_12
REMARK    2  A    between atoms: N_3  and  C_4
REMARK    3  A    between atoms: C_4  and  C_5
REMARK    4  A    between atoms: C_5  and  C_6
REMARK    5  A    between atoms: C_6  and  N_7
REMARK    6  A    between atoms: N_14  and  C_15
REMARK    7  A    between atoms: C_22  and  C_23
REMARK                            x       y       z     vdW  Elec       q    Type
REMARK                         _______ _______ _______ _____ _____    ______ ____
ROOT
ATOM      1  C   UNL     1       6.482   5.479  17.233  0.00  0.00    +0.000 A 
ATOM      2  C   UNL     1       6.908   5.284  15.934  0.00  0.00    +0.000 A 
ATOM      3  N   UNL     1       5.931   4.577  15.278  0.00  0.00    +0.000 N 
ATOM      4  N   UNL     1       4.871   4.343  16.079  0.00  0.00    +0.000 NA
ATOM      5  C   UNL     1       5.201   4.849  17.281  0.00  0.00    +0.000 A 
ENDROOT
BRANCH   3   6
ATOM      6  C   UNL     1       5.963   4.119  13.932  0.00  0.00    +0.000 A 
ATOM      7  C   UNL     1       4.806   3.609  13.323  0.00  0.00    +0.000 A 
ATOM      8  C   UNL     1       4.853   3.156  12.003  0.00  0.00    +0.000 A 
ATOM      9  C   UNL     1       6.048   3.200  11.290  0.00  0.00    +0.000 A 
ATOM     10  C   UNL     1       7.199   3.714  11.888  0.00  0.00    +0.000 A 
ATOM     11  C   UNL     1       7.158   4.181  13.204  0.00  0.00    +0.000 A 
ENDBRANCH   3   6
BRANCH   5  12
ATOM     12  C   UNL     1       4.287   4.705  18.418  0.00  0.00    +0.000 A 
ATOM     13  C   UNL     1       3.503   5.781  18.854  0.00  0.00    +0.000 A 
ATOM     14  C   UNL     1       2.590   5.622  19.900  0.00  0.00    +0.000 A 
ATOM     15  C   UNL     1       2.480   4.394  20.545  0.00  0.00    +0.000 A 
ATOM     16  C   UNL     1       3.285   3.328  20.151  0.00  0.00    +0.000 A 
ATOM     17  C   UNL     1       4.186   3.482  19.094  0.00  0.00    +0.000 A 
ENDBRANCH   5  12
BRANCH   1  19
ATOM     18  O   UNL     1       7.330   5.803  19.412  0.00  0.00    +0.000 OA
ATOM     19  C   UNL     1       7.195   6.209  18.266  0.00  0.00    +0.000 C 
ATOM     20  N   UNL     1       7.739   7.407  17.841  0.00  0.00    +0.000 N 
ATOM     21  H   UNL     1       7.680   7.650  16.863  0.00  0.00    +0.000 HD
BRANCH  20  22
ATOM     22  C   UNL     1       8.532   8.233  18.726  0.00  0.00    +0.000 C 
BRANCH  22  23
ATOM     23  C   UNL     1       8.592   9.689  18.270  0.00  0.00    +0.000 C 
BRANCH  23  24
ATOM     24  C   UNL     1       9.420  10.546  19.224  0.00  0.00    +0.000 C 
BRANCH  24  25
ATOM     25  N   UNL     1      10.224  11.526  18.524  0.00  0.00    +0.000 N 
ATOM     26  C   UNL     1       9.757  12.513  17.701  0.00  0.00    +0.000 A 
ATOM     27  C   UNL     1      10.882  13.195  17.301  0.00  0.00    +0.000 A 
ATOM     28  N   UNL     1      12.008  12.652  17.867  0.00  0.00    +0.000 NA
ATOM     29  C   UNL     1      11.579  11.650  18.600  0.00  0.00    +0.000 A 
ENDBRANCH  24  25
ENDBRANCH  23  24
ENDBRANCH  22  23
ENDBRANCH  20  22
ENDBRANCH   1  19
TORSDOF 7
ENDMDL
MODEL 5
REMARK VINA RESULT:      -8.0      4.128      7.172
REMARK  Name = 
REMARK  7 active torsions:
REMARK  status: ('A' for Active; 'I' for Inactive)
REMARK    1  A    between atoms: C_2  and  C_12
REMARK    2  A    between atoms: N_3  and  C_4
REMARK    3  A    between atoms: C_4  and  C_5
REMARK    4  A    between atoms: C_5  and  C_6
REMARK    5  A    between atoms: C_6  and  N_7
REMARK    6  A    between atoms: N_14  and  C_15
REMARK    7  A    between atoms: C_22  and  C_23
REMARK                            x       y       z     vdW  Elec       q    Type
REMARK                         _______ _______ _______ _____ _____    ______ ____
ROOT
ATOM      1  C   UNL     1       3.867   6.672  17.513  0.00  0.00    +0.000 A 
ATOM      2  C   UNL     1       3.311   7.895  17.832  0.00  0.00    +0.000 A 
ATOM      3  N   UNL     1       2.358   7.680  18.796  0.00  0.00    +0.000 N 
ATOM      4  N   UNL     1       2.298   6.378  19.147  0.00  0.00    +0.000 NA
ATOM      5  C   UNL     1       3.179   5.744  18.353  0.00  0.00    +0.000 A 
ENDROOT
BRANCH   3   6
ATOM      6  C   UNL     1       1.507   8.651  19.391  0.00  0.00    +0.000 A 
ATOM      7  C   UNL     1       1.192   8.585  20.756  0.00  0.00    +0.000 A 
ATOM      8  C   UNL     1       0.349   9.541  21.327  0.00  0.00    +0.000 A 
ATOM      9  C   UNL     1      -0.189  10.557  20.541  0.00  0.00    +0.000 A 
ATOM     10  C   UNL     1       0.127  10.632  19.184  0.00  0.00    +0.000 A 
ATOM     11  C   UNL     1       0.980   9.688  18.609  0.00  0.00    +0.000 A 
ENDBRANCH   3   6
BRANCH   5  12
ATOM     12  C   UNL     1       3.324   4.287  18.428  0.00  0.00    +0.000 A 
ATOM     13  C   UNL     1       4.123   3.690  19.411  0.00  0.00    +0.000 A 
ATOM     14  C   UNL     1       4.208   2.299  19.514  0.00  0.00    +0.000 A 
ATOM     15  C   UNL     1       3.526   1.492  18.610  0.00  0.00    +0.000 A 
ATOM     16  C   UNL     1       2.763   2.072  17.599  0.00  0.00    +0.000 A 
ATOM     17  C   UNL     1       2.663   3.463  17.506  0.00  0.00    +0.000 A 
ENDBRANCH   5  12
BRANCH   1  19
ATOM     18  O   UNL     1       5.127   7.139  15.572  0.00  0.00    +0.000 OA
ATOM     19  C   UNL     1       4.939   6.443  16.561  0.00  0.00    +0.000 C 
ATOM     20  N   UNL     1       5.758   5.375  16.875  0.00  0.00    +0.000 N 
ATOM     21  H   UNL     1       5.617   4.894  17.751  0.00  0.00    +0.000 HD
BRANCH  20  22
ATOM     22  C   UNL     1       6.911   5.042  16.066  0.00  0.00    +0.000 C 
BRANCH  22  23
ATOM     23  C   UNL     1       6.609   3.958  15.035  0.00  0.00    +0.000 C 
BRANCH  23  24
ATOM     24  C   UNL     1       6.617   4.511  13.613  0.00  0.00    +0.000 C 
BRANCH  24  25
ATOM     25  N   UNL     1       5.964   3.624  12.674  0.00  0.00    +0.000 N 
ATOM     26  C   UNL     1       4.693   3.758  12.187  0.00  0.00    +0.000 A 
ATOM     27  C   UNL     1       4.538   2.703  11.321  0.00  0.00    +0.000 A 
ATOM     28  N   UNL     1       5.680   1.945  11.266  0.00  0.00    +0.000 NA
ATOM     29  C   UNL     1       6.521   2.526  12.091  0.00  0.00    +0.000 A 
ENDBRANCH  24  25
ENDBRANCH  23  24
ENDBRANCH  22  23
ENDBRANCH  20  22
ENDBRANCH   1  19
TORSDOF 7
ENDMDL
MODEL 6
REMARK VINA RESULT:      -8.0      3.782      6.810
REMARK  Name = 
REMARK  7 active torsions:
REMARK  status: ('A' for Active; 'I' for Inactive)
REMARK    1  A    between atoms: C_2  and  C_12
REMARK    2  A    between atoms: N_3  and  C_4
REMARK    3  A    between atoms: C_4  and  C_5
REMARK    4  A    between atoms: C_5  and  C_6
REMARK    5  A    between atoms: C_6  and  N_7
REMARK    6  A    between atoms: N_14  and  C_15
REMARK    7  A    between atoms: C_22  and  C_23
REMARK                            x       y       z     vdW  Elec       q    Type
REMARK                         _______ _______ _______ _____ _____    ______ ____
ROOT
ATOM      1  C   UNL     1       3.757   6.873  17.617  0.00  0.00    +0.000 A 
ATOM      2  C   UNL     1       3.201   8.103  17.905  0.00  0.00    +0.000 A 
ATOM      3  N   UNL     1       2.178   7.898  18.797  0.00  0.00    +0.000 N 
ATOM      4  N   UNL     1       2.072   6.596  19.134  0.00  0.00    +0.000 NA
ATOM      5  C   UNL     1       2.996   5.952  18.400  0.00  0.00    +0.000 A 
ENDROOT
BRANCH   3   6
ATOM      6  C   UNL     1       1.303   8.880  19.338  0.00  0.00    +0.000 A 
ATOM      7  C   UNL     1       0.963   8.863  20.699  0.00  0.00    +0.000 A 
ATOM      8  C   UNL     1       0.097   9.829  21.216  0.00  0.00    +0.000 A 
ATOM      9  C   UNL     1      -0.438  10.807  20.381  0.00  0.00    +0.000 A 
ATOM     10  C   UNL     1      -0.097  10.834  19.029  0.00  0.00    +0.000 A 
ATOM     11  C   UNL     1       0.778   9.879  18.507  0.00  0.00    +0.000 A 
ENDBRANCH   3   6
BRANCH   5  12
ATOM     12  C   UNL     1       3.111   4.492  18.473  0.00  0.00    +0.000 A 
ATOM     13  C   UNL     1       2.379   3.666  17.611  0.00  0.00    +0.000 A 
ATOM     14  C   UNL     1       2.538   2.278  17.644  0.00  0.00    +0.000 A 
ATOM     15  C   UNL     1       3.402   1.701  18.569  0.00  0.00    +0.000 A 
ATOM     16  C   UNL     1       4.103   2.507  19.463  0.00  0.00    +0.000 A 
ATOM     17  C   UNL     1       3.958   3.896  19.417  0.00  0.00    +0.000 A 
ENDBRANCH   5  12
BRANCH   1  19
ATOM     18  O   UNL     1       4.906   6.935  15.556  0.00  0.00    +0.000 OA
ATOM     19  C   UNL     1       4.889   6.631  16.741  0.00  0.00    +0.000 C 
ATOM     20  N   UNL     1       5.974   6.043  17.365  0.00  0.00    +0.000 N 
ATOM     21  H   UNL     1       5.943   5.901  18.364  0.00  0.00    +0.000 HD
BRANCH  20  22
ATOM     22  C   UNL     1       7.208   5.786  16.654  0.00  0.00    +0.000 C 
BRANCH  22  23
ATOM     23  C   UNL     1       7.137   4.526  15.796  0.00  0.00    +0.000 C 
BRANCH  23  24
ATOM     24  C   UNL     1       7.442   4.822  14.330  0.00  0.00    +0.000 C 
BRANCH  24  25
ATOM     25  N   UNL     1       6.530   4.146  13.432  0.00  0.00    +0.000 N 
ATOM     26  C   UNL     1       5.186   3.980  13.620  0.00  0.00    +0.000 A 
ATOM     27  C   UNL     1       4.756   3.309  12.500  0.00  0.00    +0.000 A 
ATOM     28  N   UNL     1       5.800   3.077  11.640  0.00  0.00    +0.000 NA
ATOM     29  C   UNL     1       6.855   3.594  12.228  0.00  0.00    +0.000 A 
ENDBRANCH  24  25
ENDBRANCH  23  24
ENDBRANCH  22  23
ENDBRANCH  20  22
ENDBRANCH   1  19
TORSDOF 7
ENDMDL
MODEL 7
REMARK VINA RESULT:      -8.0      0.696      1.516
REMARK  Name = 
REMARK  7 active torsions:
REMARK  status: ('A' for Active; 'I' for Inactive)
REMARK    1  A    between atoms: C_2  and  C_12
REMARK    2  A    between atoms: N_3  and  C_4
REMARK    3  A    between atoms: C_4  and  C_5
REMARK    4  A    between atoms: C_5  and  C_6
REMARK    5  A    between atoms: C_6  and  N_7
REMARK    6  A    between atoms: N_14  and  C_15
REMARK    7  A    between atoms: C_22  and  C_23
REMARK                            x       y       z     vdW  Elec       q    Type
REMARK                         _______ _______ _______ _____ _____    ______ ____
ROOT
ATOM      1  C   UNL     1       5.931   5.409  17.864  0.00  0.00    +0.000 A 
ATOM      2  C   UNL     1       5.020   5.169  18.873  0.00  0.00    +0.000 A 
ATOM      3  N   UNL     1       4.039   4.355  18.363  0.00  0.00    +0.000 N 
ATOM      4  N   UNL     1       4.295   4.021  17.081  0.00  0.00    +0.000 NA
ATOM      5  C   UNL     1       5.418   4.680  16.747  0.00  0.00    +0.000 A 
ENDROOT
BRANCH   3   6
ATOM      6  C   UNL     1       2.878   3.887  19.037  0.00  0.00    +0.000 A 
ATOM      7  C   UNL     1       1.896   3.160  18.348  0.00  0.00    +0.000 A 
ATOM      8  C   UNL     1       0.757   2.711  19.020  0.00  0.00    +0.000 A 
ATOM      9  C   UNL     1       0.589   2.992  20.374  0.00  0.00    +0.000 A 
ATOM     10  C   UNL     1       1.566   3.707  21.066  0.00  0.00    +0.000 A 
ATOM     11  C   UNL     1       2.714   4.148  20.404  0.00  0.00    +0.000 A 
ENDBRANCH   3   6
BRANCH   5  12
ATOM     12  C   UNL     1       5.949   4.591  15.384  0.00  0.00    +0.000 A 
ATOM     13  C   UNL     1       7.187   5.157  15.052  0.00  0.00    +0.000 A 
ATOM     14  C   UNL     1       7.716   5.016  13.767  0.00  0.00    +0.000 A 
ATOM     15  C   UNL     1       6.992   4.341  12.788  0.00  0.00    +0.000 A 
ATOM     16  C   UNL     1       5.740   3.812  13.091  0.00  0.00    +0.000 A 
ATOM     17  C   UNL     1       5.219   3.938  14.382  0.00  0.00    +0.000 A 
ENDBRANCH   5  12
BRANCH   1  19
ATOM     18  O   UNL     1       8.155   5.804  18.549  0.00  0.00    +0.000 OA
ATOM     19  C   UNL     1       7.146   6.196  17.978  0.00  0.00    +0.000 C 
ATOM     20  N   UNL     1       7.082   7.432  17.362  0.00  0.00    +0.000 N 
ATOM     21  H   UNL     1       6.260   7.666  16.825  0.00  0.00    +0.000 HD
BRANCH  20  22
ATOM     22  C   UNL     1       8.223   8.321  17.329  0.00  0.00    +0.000 C 
BRANCH  22  23
ATOM     23  C   UNL     1       7.962   9.637  18.056  0.00  0.00    +0.000 C 
BRANCH  23  24
ATOM     24  C   UNL     1       9.056   9.948  19.073  0.00  0.00    +0.000 C 
BRANCH  24  25
ATOM     25  N   UNL     1       9.694  11.223  18.821  0.00  0.00    +0.000 N 
ATOM     26  C   UNL     1       9.636  12.327  19.626  0.00  0.00    +0.000 A 
ATOM     27  C   UNL     1      10.410  13.266  18.986  0.00  0.00    +0.000 A 
ATOM     28  N   UNL     1      10.938  12.755  17.827  0.00  0.00    +0.000 NA
ATOM     29  C   UNL     1      10.491  11.523  17.756  0.00  0.00    +0.000 A 
ENDBRANCH  24  25
ENDBRANCH  23  24
ENDBRANCH  22  23
ENDBRANCH  20  22
ENDBRANCH   1  19
TORSDOF 7
ENDMDL
MODEL 8
REMARK VINA RESULT:      -8.0      4.924      8.415
REMARK  Name = 
REMARK  7 active torsions:
REMARK  status: ('A' for Active; 'I' for Inactive)
REMARK    1  A    between atoms: C_2  and  C_12
REMARK    2  A    between atoms: N_3  and  C_4
REMARK    3  A    between atoms: C_4  and  C_5
REMARK    4  A    between atoms: C_5  and  C_6
REMARK    5  A    between atoms: C_6  and  N_7
REMARK    6  A    between atoms: N_14  and  C_15
REMARK    7  A    between atoms: C_22  and  C_23
REMARK                            x       y       z     vdW  Elec       q    Type
REMARK                         _______ _______ _______ _____ _____    ______ ____
ROOT
ATOM      1  C   UNL     1       3.126   6.544  18.090  0.00  0.00    +0.000 A 
ATOM      2  C   UNL     1       4.001   6.706  17.034  0.00  0.00    +0.000 A 
ATOM      3  N   UNL     1       4.484   5.465  16.700  0.00  0.00    +0.000 N 
ATOM      4  N   UNL     1       3.929   4.501  17.463  0.00  0.00    +0.000 NA
ATOM      5  C   UNL     1       3.131   5.137  18.337  0.00  0.00    +0.000 A 
ENDROOT
BRANCH   3   6
ATOM      6  C   UNL     1       5.442   5.161  15.695  0.00  0.00    +0.000 A 
ATOM      7  C   UNL     1       6.772   5.590  15.821  0.00  0.00    +0.000 A 
ATOM      8  C   UNL     1       7.702   5.291  14.824  0.00  0.00    +0.000 A 
ATOM      9  C   UNL     1       7.311   4.574  13.695  0.00  0.00    +0.000 A 
ATOM     10  C   UNL     1       5.992   4.139  13.568  0.00  0.00    +0.000 A 
ATOM     11  C   UNL     1       5.059   4.422  14.567  0.00  0.00    +0.000 A 
ENDBRANCH   3   6
BRANCH   5  12
ATOM     12  C   UNL     1       2.416   4.382  19.370  0.00  0.00    +0.000 A 
ATOM     13  C   UNL     1       1.261   3.651  19.059  0.00  0.00    +0.000 A 
ATOM     14  C   UNL     1       0.618   2.884  20.034  0.00  0.00    +0.000 A 
ATOM     15  C   UNL     1       1.102   2.872  21.339  0.00  0.00    +0.000 A 
ATOM     16  C   UNL     1       2.222   3.629  21.672  0.00  0.00    +0.000 A 
ATOM     17  C   UNL     1       2.876   4.382  20.693  0.00  0.00    +0.000 A 
ENDBRANCH   5  12
BRANCH   1  19
ATOM     18  O   UNL     1       2.195   7.665  19.947  0.00  0.00    +0.000 OA
ATOM     19  C   UNL     1       2.363   7.597  18.736  0.00  0.00    +0.000 C 
ATOM     20  N   UNL     1       1.853   8.544  17.868  0.00  0.00    +0.000 N 
ATOM     21  H   UNL     1       2.101   8.492  16.891  0.00  0.00    +0.000 HD
BRANCH  20  22
ATOM     22  C   UNL     1       1.118   9.693  18.350  0.00  0.00    +0.000 C 
BRANCH  22  23
ATOM     23  C   UNL     1      -0.346   9.674  17.919  0.00  0.00    +0.000 C 
BRANCH  23  24
ATOM     24  C   UNL     1      -1.027  11.017  18.169  0.00  0.00    +0.000 C 
BRANCH  24  25
ATOM     25  N   UNL     1      -2.312  11.113  17.510  0.00  0.00    +0.000 N 
ATOM     26  C   UNL     1      -3.492  11.483  18.093  0.00  0.00    +0.000 A 
ATOM     27  C   UNL     1      -4.413  11.448  17.072  0.00  0.00    +0.000 A 
ATOM     28  N   UNL     1      -3.818  11.078  15.893  0.00  0.00    +0.000 NA
ATOM     29  C   UNL     1      -2.553  10.884  16.188  0.00  0.00    +0.000 A 
ENDBRANCH  24  25
ENDBRANCH  23  24
ENDBRANCH  22  23
ENDBRANCH  20  22
ENDBRANCH   1  19
TORSDOF 7
ENDMDL
MODEL 9
REMARK VINA RESULT:      -8.0      0.716      1.211
REMARK  Name = 
REMARK  7 active torsions:
REMARK  status: ('A' for Active; 'I' for Inactive)
REMARK    1  A    between atoms: C_2  and  C_12
REMARK    2  A    between atoms: N_3  and  C_4
REMARK    3  A    between atoms: C_4  and  C_5
REMARK    4  A    between atoms: C_5  and  C_6
REMARK    5  A    between atoms: C_6  and  N_7
REMARK    6  A    between atoms: N_14  and  C_15
REMARK    7  A    between atoms: C_22  and  C_23
REMARK                            x       y       z     vdW  Elec       q    Type
REMARK                         _______ _______ _______ _____ _____    ______ ____
ROOT
ATOM      1  C   UNL     1       5.893   5.377  17.485  0.00  0.00    +0.000 A 
ATOM      2  C   UNL     1       4.957   5.171  18.480  0.00  0.00    +0.000 A 
ATOM      3  N   UNL     1       3.965   4.377  17.959  0.00  0.00    +0.000 N 
ATOM      4  N   UNL     1       4.236   4.025  16.685  0.00  0.00    +0.000 NA
ATOM      5  C   UNL     1       5.382   4.652  16.366  0.00  0.00    +0.000 A 
ENDROOT
BRANCH   3   6
ATOM      6  C   UNL     1       2.781   3.945  18.616  0.00  0.00    +0.000 A 
ATOM      7  C   UNL     1       2.353   4.565  19.799  0.00  0.00    +0.000 A 
ATOM      8  C   UNL     1       1.191   4.126  20.439  0.00  0.00    +0.000 A 
ATOM      9  C   UNL     1       0.460   3.066  19.909  0.00  0.00    +0.000 A 
ATOM     10  C   UNL     1       0.876   2.452  18.728  0.00  0.00    +0.000 A 
ATOM     11  C   UNL     1       2.029   2.893  18.076  0.00  0.00    +0.000 A 
ENDBRANCH   3   6
BRANCH   5  12
ATOM     12  C   UNL     1       5.935   4.536  15.013  0.00  0.00    +0.000 A 
ATOM     13  C   UNL     1       7.121   5.192  14.660  0.00  0.00    +0.000 A 
ATOM     14  C   UNL     1       7.675   5.029  13.388  0.00  0.00    +0.000 A 
ATOM     15  C   UNL     1       7.026   4.240  12.443  0.00  0.00    +0.000 A 
ATOM     16  C   UNL     1       5.823   3.618  12.766  0.00  0.00    +0.000 A 
ATOM     17  C   UNL     1       5.277   3.766  14.044  0.00  0.00    +0.000 A 
ENDBRANCH   5  12
BRANCH   1  19
ATOM     18  O   UNL     1       8.195   5.635  17.939  0.00  0.00    +0.000 OA
ATOM     19  C   UNL     1       7.125   6.134  17.615  0.00  0.00    +0.000 C 
ATOM     20  N   UNL     1       7.001   7.478  17.316  0.00  0.00    +0.000 N 
ATOM     21  H   UNL     1       6.119   7.818  16.962  0.00  0.00    +0.000 HD
BRANCH  20  22
ATOM     22  C   UNL     1       8.143   8.366  17.337  0.00  0.00    +0.000 C 
BRANCH  22  23
ATOM     23  C   UNL     1       7.871   9.650  18.115  0.00  0.00    +0.000 C 
BRANCH  23  24
ATOM     24  C   UNL     1       9.160  10.274  18.645  0.00  0.00    +0.000 C 
BRANCH  24  25
ATOM     25  N   UNL     1       9.096  11.719  18.682  0.00  0.00    +0.000 N 
ATOM     26  C   UNL     1       8.801  12.542  17.630  0.00  0.00    +0.000 A 
ATOM     27  C   UNL     1       8.836  13.811  18.157  0.00  0.00    +0.000 A 
ATOM     28  N   UNL     1       9.133  13.774  19.497  0.00  0.00    +0.000 NA
ATOM     29  C   UNL     1       9.282  12.501  19.784  0.00  0.00    +0.000 A 
ENDBRANCH  24  25
ENDBRANCH  23  24
ENDBRANCH  22  23
ENDBRANCH  20  22
ENDBRANCH   1  19
TORSDOF 7
ENDMDL
