MODEL 1
REMARK VINA RESULT:      -8.6      0.000      0.000
REMARK  Name = 
REMARK  8 active torsions:
REMARK  status: ('A' for Active; 'I' for Inactive)
REMARK    1  A    between atoms: C_1  and  O_2
REMARK    2  A    between atoms: O_2  and  C_3
REMARK    3  A    between atoms: C_6  and  C_7
REMARK    4  A    between atoms: C_7  and  N_8
REMARK    5  A    between atoms: N_8  and  C_9
REMARK    6  A    between atoms: C_9  and  C_10
REMARK    7  A    between atoms: C_13  and  C_14
REMARK    8  A    between atoms: C_17  and  C_18
REMARK                            x       y       z     vdW  Elec       q    Type
REMARK                         _______ _______ _______ _____ _____    ______ ____
ROOT
ATOM      1  C   UNL     1       3.015   5.111  18.947  0.00  0.00    +0.000 A 
ATOM      2  C   UNL     1       3.002   6.326  18.247  0.00  0.00    +0.000 A 
ATOM      3  C   UNL     1       2.386   7.464  18.789  0.00  0.00    +0.000 A 
ATOM      4  C   UNL     1       1.744   7.428  20.036  0.00  0.00    +0.000 A 
ATOM      5  C   UNL     1       1.756   6.196  20.717  0.00  0.00    +0.000 A 
ATOM      6  C   UNL     1       2.387   5.063  20.192  0.00  0.00    +0.000 A 
ENDROOT
BRANCH   4   7
ATOM      7  C   UNL     1       1.095   8.625  20.633  0.00  0.00    +0.000 A 
ATOM      8  C   UNL     1       0.656   9.723  19.863  0.00  0.00    +0.000 A 
ATOM      9  C   UNL     1       0.010  10.829  20.453  0.00  0.00    +0.000 A 
ATOM     10  C   UNL     1      -0.223  10.858  21.830  0.00  0.00    +0.000 A 
ATOM     11  C   UNL     1       0.216   9.778  22.598  0.00  0.00    +0.000 A 
ATOM     12  C   UNL     1       0.873   8.693  22.016  0.00  0.00    +0.000 A 
BRANCH  10  13
ATOM     13  C   UNL     1      -0.978  11.906  22.513  0.00  0.00    +0.000 A 
ATOM     14  N   UNL     1      -2.168  11.712  23.058  0.00  0.00    +0.000 NA
ATOM     15  C   UNL     1      -2.561  12.918  23.557  0.00  0.00    +0.000 A 
ATOM     16  C   UNL     1      -3.760  13.257  24.196  0.00  0.00    +0.000 A 
ATOM     17  C   UNL     1      -3.952  14.580  24.596  0.00  0.00    +0.000 A 
ATOM     18  C   UNL     1      -2.962  15.541  24.371  0.00  0.00    +0.000 A 
ATOM     19  C   UNL     1      -1.747  15.213  23.751  0.00  0.00    +0.000 A 
ATOM     20  C   UNL     1      -1.586  13.883  23.355  0.00  0.00    +0.000 A 
ATOM     21  N   UNL     1      -0.565  13.201  22.732  0.00  0.00    +0.000 N 
ATOM     22  H   UNL     1       0.335  13.580  22.483  0.00  0.00    +0.000 HD
ENDBRANCH  10  13
ENDBRANCH   4   7
BRANCH   1  23
ATOM     23  C   UNL     1       3.642   3.863  18.366  0.00  0.00    +0.000 C 
BRANCH  23  24
ATOM     24  N   UNL     1       3.866   3.979  16.929  0.00  0.00    +0.000 NA
ATOM     25  H   UNL     1       3.311   3.283  16.435  0.00  0.00    +0.000 HD
BRANCH  24  26
ATOM     26  C   UNL     1       5.276   3.774  16.594  0.00  0.00    +0.000 C 
BRANCH  26  30
ATOM     27  C   UNL     1       7.708   7.033  18.074  0.00  0.00    +0.000 A 
ATOM     28  C   UNL     1       7.802   5.764  18.647  0.00  0.00    +0.000 A 
ATOM     29  C   UNL     1       7.022   4.713  18.163  0.00  0.00    +0.000 A 
ATOM     30  C   UNL     1       6.122   4.916  17.106  0.00  0.00    +0.000 A 
ATOM     31  C   UNL     1       6.025   6.196  16.546  0.00  0.00    +0.000 A 
ATOM     32  C   UNL     1       6.810   7.248  17.028  0.00  0.00    +0.000 A 
BRANCH  27  34
ATOM     33  C   UNL     1       8.344   9.306  18.109  0.00  0.00    +0.000 C 
ATOM     34  O   UNL     1       8.498   7.994  18.640  0.00  0.00    +0.000 OA
ENDBRANCH  27  34
ENDBRANCH  26  30
ENDBRANCH  24  26
ENDBRANCH  23  24
ENDBRANCH   1  23
TORSDOF 7
ENDMDL
MODEL 2
REMARK VINA RESULT:      -8.4      0.510      1.845
REMARK  Name = 
REMARK  8 active torsions:
REMARK  status: ('A' for Active; 'I' for Inactive)
REMARK    1  A    between atoms: C_1  and  O_2
REMARK    2  A    between atoms: O_2  and  C_3
REMARK    3  A    between atoms: C_6  and  C_7
REMARK    4  A    between atoms: C_7  and  N_8
REMARK    5  A    between atoms: N_8  and  C_9
REMARK    6  A    between atoms: C_9  and  C_10
REMARK    7  A    between atoms: C_13  and  C_14
REMARK    8  A    between atoms: C_17  and  C_18
REMARK                            x       y       z     vdW  Elec       q    Type
REMARK                         _______ _______ _______ _____ _____    ______ ____
ROOT
ATOM      1  C   UNL     1       3.108   5.283  18.833  0.00  0.00    +0.000 A 
ATOM      2  C   UNL     1       2.498   5.073  20.078  0.00  0.00    +0.000 A 
ATOM      3  C   UNL     1       1.794   6.104  20.719  0.00  0.00    +0.000 A 
ATOM      4  C   UNL     1       1.688   7.383  20.154  0.00  0.00    +0.000 A 
ATOM      5  C   UNL     1       2.318   7.578  18.910  0.00  0.00    +0.000 A 
ATOM      6  C   UNL     1       3.003   6.549  18.255  0.00  0.00    +0.000 A 
ENDROOT
BRANCH   4   7
ATOM      7  C   UNL     1       0.937   8.486  20.812  0.00  0.00    +0.000 A 
ATOM      8  C   UNL     1       0.492   8.418  22.148  0.00  0.00    +0.000 A 
ATOM      9  C   UNL     1      -0.187   9.494  22.757  0.00  0.00    +0.000 A 
ATOM     10  C   UNL     1      -0.425  10.672  22.045  0.00  0.00    +0.000 A 
ATOM     11  C   UNL     1       0.008  10.741  20.719  0.00  0.00    +0.000 A 
ATOM     12  C   UNL     1       0.661   9.668  20.111  0.00  0.00    +0.000 A 
BRANCH  10  13
ATOM     13  C   UNL     1      -1.020  11.874  22.622  0.00  0.00    +0.000 A 
ATOM     14  N   UNL     1      -0.334  12.975  22.885  0.00  0.00    +0.000 NA
ATOM     15  C   UNL     1      -1.215  13.850  23.446  0.00  0.00    +0.000 A 
ATOM     16  C   UNL     1      -0.982  15.140  23.938  0.00  0.00    +0.000 A 
ATOM     17  C   UNL     1      -2.047  15.842  24.503  0.00  0.00    +0.000 A 
ATOM     18  C   UNL     1      -3.322  15.269  24.566  0.00  0.00    +0.000 A 
ATOM     19  C   UNL     1      -3.576  13.987  24.059  0.00  0.00    +0.000 A 
ATOM     20  C   UNL     1      -2.489  13.305  23.506  0.00  0.00    +0.000 A 
ATOM     21  N   UNL     1      -2.349  12.064  22.928  0.00  0.00    +0.000 N 
ATOM     22  H   UNL     1      -3.091  11.405  22.751  0.00  0.00    +0.000 HD
ENDBRANCH  10  13
ENDBRANCH   4   7
BRANCH   1  23
ATOM     23  C   UNL     1       3.901   4.198  18.140  0.00  0.00    +0.000 C 
BRANCH  23  24
ATOM     24  N   UNL     1       4.229   4.550  16.763  0.00  0.00    +0.000 NA
ATOM     25  H   UNL     1       3.700   3.964  16.121  0.00  0.00    +0.000 HD
BRANCH  24  26
ATOM     26  C   UNL     1       5.655   4.368  16.492  0.00  0.00    +0.000 C 
BRANCH  26  30
ATOM     27  C   UNL     1       7.985   7.474  18.404  0.00  0.00    +0.000 A 
ATOM     28  C   UNL     1       7.082   7.792  17.388  0.00  0.00    +0.000 A 
ATOM     29  C   UNL     1       6.327   6.789  16.778  0.00  0.00    +0.000 A 
ATOM     30  C   UNL     1       6.472   5.448  17.163  0.00  0.00    +0.000 A 
ATOM     31  C   UNL     1       7.389   5.138  18.175  0.00  0.00    +0.000 A 
ATOM     32  C   UNL     1       8.143   6.143  18.789  0.00  0.00    +0.000 A 
BRANCH  27  34
ATOM     33  C   UNL     1       8.660   9.721  18.139  0.00  0.00    +0.000 C 
ATOM     34  O   UNL     1       8.691   8.528  18.914  0.00  0.00    +0.000 OA
ENDBRANCH  27  34
ENDBRANCH  26  30
ENDBRANCH  24  26
ENDBRANCH  23  24
ENDBRANCH   1  23
TORSDOF 7
ENDMDL
MODEL 3
REMARK VINA RESULT:      -8.1      0.981      1.930
REMARK  Name = 
REMARK  8 active torsions:
REMARK  status: ('A' for Active; 'I' for Inactive)
REMARK    1  A    between atoms: C_1  and  O_2
REMARK    2  A    between atoms: O_2  and  C_3
REMARK    3  A    between atoms: C_6  and  C_7
REMARK    4  A    between atoms: C_7  and  N_8
REMARK    5  A    between atoms: N_8  and  C_9
REMARK    6  A    between atoms: C_9  and  C_10
REMARK    7  A    between atoms: C_13  and  C_14
REMARK    8  A    between atoms: C_17  and  C_18
REMARK                            x       y       z     vdW  Elec       q    Type
REMARK                         _______ _______ _______ _____ _____    ______ ____
ROOT
ATOM      1  C   UNL     1       3.542   5.444  17.569  0.00  0.00    +0.000 A 
ATOM      2  C   UNL     1       2.697   5.152  18.649  0.00  0.00    +0.000 A 
ATOM      3  C   UNL     1       2.038   6.175  19.347  0.00  0.00    +0.000 A 
ATOM      4  C   UNL     1       2.212   7.525  19.009  0.00  0.00    +0.000 A 
ATOM      5  C   UNL     1       3.076   7.799  17.930  0.00  0.00    +0.000 A 
ATOM      6  C   UNL     1       3.719   6.783  17.216  0.00  0.00    +0.000 A 
ENDROOT
BRANCH   4   7
ATOM      7  C   UNL     1       1.515   8.625  19.728  0.00  0.00    +0.000 A 
ATOM      8  C   UNL     1       0.842   9.669  19.061  0.00  0.00    +0.000 A 
ATOM      9  C   UNL     1       0.158  10.679  19.769  0.00  0.00    +0.000 A 
ATOM     10  C   UNL     1       0.121  10.660  21.165  0.00  0.00    +0.000 A 
ATOM     11  C   UNL     1       0.792   9.632  21.831  0.00  0.00    +0.000 A 
ATOM     12  C   UNL     1       1.486   8.646  21.129  0.00  0.00    +0.000 A 
BRANCH  10  13
ATOM     13  C   UNL     1      -0.650  11.598  21.979  0.00  0.00    +0.000 A 
ATOM     14  N   UNL     1      -0.191  12.778  22.364  0.00  0.00    +0.000 NA
ATOM     15  C   UNL     1      -1.169  13.337  23.130  0.00  0.00    +0.000 A 
ATOM     16  C   UNL     1      -1.164  14.563  23.807  0.00  0.00    +0.000 A 
ATOM     17  C   UNL     1      -2.284  14.912  24.564  0.00  0.00    +0.000 A 
ATOM     18  C   UNL     1      -3.389  14.057  24.633  0.00  0.00    +0.000 A 
ATOM     19  C   UNL     1      -3.418  12.836  23.944  0.00  0.00    +0.000 A 
ATOM     20  C   UNL     1      -2.281  12.510  23.201  0.00  0.00    +0.000 A 
ATOM     21  N   UNL     1      -1.943  11.430  22.417  0.00  0.00    +0.000 N 
ATOM     22  H   UNL     1      -2.541  10.649  22.195  0.00  0.00    +0.000 HD
ENDBRANCH  10  13
ENDBRANCH   4   7
BRANCH   1  23
ATOM     23  C   UNL     1       4.290   4.360  16.826  0.00  0.00    +0.000 C 
BRANCH  23  24
ATOM     24  N   UNL     1       5.444   3.875  17.576  0.00  0.00    +0.000 NA
ATOM     25  H   UNL     1       5.438   4.270  18.513  0.00  0.00    +0.000 HD
BRANCH  24  26
ATOM     26  C   UNL     1       6.698   4.249  16.921  0.00  0.00    +0.000 C 
BRANCH  26  30
ATOM     27  C   UNL     1       8.318   7.875  18.639  0.00  0.00    +0.000 A 
ATOM     28  C   UNL     1       7.726   7.895  17.375  0.00  0.00    +0.000 A 
ATOM     29  C   UNL     1       7.199   6.725  16.826  0.00  0.00    +0.000 A 
ATOM     30  C   UNL     1       7.266   5.511  17.526  0.00  0.00    +0.000 A 
ATOM     31  C   UNL     1       7.872   5.499  18.789  0.00  0.00    +0.000 A 
ATOM     32  C   UNL     1       8.398   6.672  19.340  0.00  0.00    +0.000 A 
BRANCH  27  34
ATOM     33  C   UNL     1       8.717  10.150  18.149  0.00  0.00    +0.000 C 
ATOM     34  O   UNL     1       8.824   9.070  19.070  0.00  0.00    +0.000 OA
ENDBRANCH  27  34
ENDBRANCH  26  30
ENDBRANCH  24  26
ENDBRANCH  23  24
ENDBRANCH   1  23
TORSDOF 7
ENDMDL
MODEL 4
REMARK VINA RESULT:      -8.1      5.017      9.533
REMARK  Name = 
REMARK  8 active torsions:
REMARK  status: ('A' for Active; 'I' for Inactive)
REMARK    1  A    between atoms: C_1  and  O_2
REMARK    2  A    between atoms: O_2  and  C_3
REMARK    3  A    between atoms: C_6  and  C_7
REMARK    4  A    between atoms: C_7  and  N_8
REMARK    5  A    between atoms: N_8  and  C_9
REMARK    6  A    between atoms: C_9  and  C_10
REMARK    7  A    between atoms: C_13  and  C_14
REMARK    8  A    between atoms: C_17  and  C_18
REMARK                            x       y       z     vdW  Elec       q    Type
REMARK                         _______ _______ _______ _____ _____    ______ ____
ROOT
ATOM      1  C   UNL     1       7.152   5.651  17.927  0.00  0.00    +0.000 A 
ATOM      2  C   UNL     1       7.993   5.982  18.999  0.00  0.00    +0.000 A 
ATOM      3  C   UNL     1       8.475   7.290  19.160  0.00  0.00    +0.000 A 
ATOM      4  C   UNL     1       8.155   8.308  18.249  0.00  0.00    +0.000 A 
ATOM      5  C   UNL     1       7.321   7.952  17.172  0.00  0.00    +0.000 A 
ATOM      6  C   UNL     1       6.819   6.656  17.017  0.00  0.00    +0.000 A 
ENDROOT
BRANCH   4   7
ATOM      7  C   UNL     1       8.646   9.703  18.407  0.00  0.00    +0.000 A 
ATOM      8  C   UNL     1       9.608  10.071  19.371  0.00  0.00    +0.000 A 
ATOM      9  C   UNL     1      10.082  11.395  19.474  0.00  0.00    +0.000 A 
ATOM     10  C   UNL     1       9.613  12.382  18.603  0.00  0.00    +0.000 A 
ATOM     11  C   UNL     1       8.656  12.024  17.652  0.00  0.00    +0.000 A 
ATOM     12  C   UNL     1       8.172  10.718  17.565  0.00  0.00    +0.000 A 
BRANCH  10  13
ATOM     13  C   UNL     1      10.124  13.751  18.563  0.00  0.00    +0.000 A 
ATOM     14  N   UNL     1      10.992  14.180  17.660  0.00  0.00    +0.000 NA
ATOM     15  C   UNL     1      11.253  15.480  17.970  0.00  0.00    +0.000 A 
ATOM     16  C   UNL     1      12.134  16.373  17.347  0.00  0.00    +0.000 A 
ATOM     17  C   UNL     1      12.259  17.661  17.869  0.00  0.00    +0.000 A 
ATOM     18  C   UNL     1      11.510  18.052  18.984  0.00  0.00    +0.000 A 
ATOM     19  C   UNL     1      10.608  17.176  19.606  0.00  0.00    +0.000 A 
ATOM     20  C   UNL     1      10.510  15.891  19.067  0.00  0.00    +0.000 A 
ATOM     21  N   UNL     1       9.761  14.785  19.395  0.00  0.00    +0.000 N 
ATOM     22  H   UNL     1       9.059  14.737  20.117  0.00  0.00    +0.000 HD
ENDBRANCH  10  13
ENDBRANCH   4   7
BRANCH   1  23
ATOM     23  C   UNL     1       6.650   4.240  17.714  0.00  0.00    +0.000 C 
BRANCH  23  24
ATOM     24  N   UNL     1       5.411   4.208  16.943  0.00  0.00    +0.000 NA
ATOM     25  H   UNL     1       5.112   5.157  16.730  0.00  0.00    +0.000 HD
BRANCH  24  26
ATOM     26  C   UNL     1       4.342   3.537  17.683  0.00  0.00    +0.000 C 
BRANCH  26  30
ATOM     27  C   UNL     1       2.095   6.361  20.071  0.00  0.00    +0.000 A 
ATOM     28  C   UNL     1       2.335   5.070  20.543  0.00  0.00    +0.000 A 
ATOM     29  C   UNL     1       3.066   4.164  19.774  0.00  0.00    +0.000 A 
ATOM     30  C   UNL     1       3.558   4.528  18.512  0.00  0.00    +0.000 A 
ATOM     31  C   UNL     1       3.301   5.822  18.041  0.00  0.00    +0.000 A 
ATOM     32  C   UNL     1       2.572   6.732  18.814  0.00  0.00    +0.000 A 
BRANCH  27  34
ATOM     33  C   UNL     1       1.318   8.539  20.547  0.00  0.00    +0.000 C 
ATOM     34  O   UNL     1       1.348   7.159  20.893  0.00  0.00    +0.000 OA
ENDBRANCH  27  34
ENDBRANCH  26  30
ENDBRANCH  24  26
ENDBRANCH  23  24
ENDBRANCH   1  23
TORSDOF 7
ENDMDL
MODEL 5
REMARK VINA RESULT:      -8.0      1.091      1.756
REMARK  Name = 
REMARK  8 active torsions:
REMARK  status: ('A' for Active; 'I' for Inactive)
REMARK    1  A    between atoms: C_1  and  O_2
REMARK    2  A    between atoms: O_2  and  C_3
REMARK    3  A    between atoms: C_6  and  C_7
REMARK    4  A    between atoms: C_7  and  N_8
REMARK    5  A    between atoms: N_8  and  C_9
REMARK    6  A    between atoms: C_9  and  C_10
REMARK    7  A    between atoms: C_13  and  C_14
REMARK    8  A    between atoms: C_17  and  C_18
REMARK                            x       y       z     vdW  Elec       q    Type
REMARK                         _______ _______ _______ _____ _____    ______ ____
ROOT
ATOM      1  C   UNL     1       3.386   5.065  17.986  0.00  0.00    +0.000 A 
ATOM      2  C   UNL     1       2.637   4.901  19.160  0.00  0.00    +0.000 A 
ATOM      3  C   UNL     1       2.023   5.998  19.783  0.00  0.00    +0.000 A 
ATOM      4  C   UNL     1       2.151   7.299  19.273  0.00  0.00    +0.000 A 
ATOM      5  C   UNL     1       2.919   7.444  18.102  0.00  0.00    +0.000 A 
ATOM      6  C   UNL     1       3.515   6.352  17.463  0.00  0.00    +0.000 A 
ENDROOT
BRANCH   4   7
ATOM      7  C   UNL     1       1.500   8.474  19.912  0.00  0.00    +0.000 A 
ATOM      8  C   UNL     1       1.252   8.551  21.298  0.00  0.00    +0.000 A 
ATOM      9  C   UNL     1       0.666   9.694  21.882  0.00  0.00    +0.000 A 
ATOM     10  C   UNL     1       0.326  10.794  21.091  0.00  0.00    +0.000 A 
ATOM     11  C   UNL     1       0.562  10.719  19.717  0.00  0.00    +0.000 A 
ATOM     12  C   UNL     1       1.123   9.580  19.138  0.00  0.00    +0.000 A 
BRANCH  10  13
ATOM     13  C   UNL     1      -0.183  12.058  21.618  0.00  0.00    +0.000 A 
ATOM     14  N   UNL     1      -0.560  12.226  22.876  0.00  0.00    +0.000 NA
ATOM     15  C   UNL     1      -1.006  13.509  22.973  0.00  0.00    +0.000 A 
ATOM     16  C   UNL     1      -1.549  14.170  24.082  0.00  0.00    +0.000 A 
ATOM     17  C   UNL     1      -1.971  15.492  23.931  0.00  0.00    +0.000 A 
ATOM     18  C   UNL     1      -1.843  16.141  22.699  0.00  0.00    +0.000 A 
ATOM     19  C   UNL     1      -1.283  15.500  21.584  0.00  0.00    +0.000 A 
ATOM     20  C   UNL     1      -0.876  14.175  21.764  0.00  0.00    +0.000 A 
ATOM     21  N   UNL     1      -0.302  13.243  20.929  0.00  0.00    +0.000 N 
ATOM     22  H   UNL     1      -0.012  13.400  19.977  0.00  0.00    +0.000 HD
ENDBRANCH  10  13
ENDBRANCH   4   7
BRANCH   1  23
ATOM     23  C   UNL     1       4.085   3.902  17.318  0.00  0.00    +0.000 C 
BRANCH  23  24
ATOM     24  N   UNL     1       4.855   4.321  16.151  0.00  0.00    +0.000 NA
ATOM     25  H   UNL     1       4.557   3.794  15.333  0.00  0.00    +0.000 HD
BRANCH  24  26
ATOM     26  C   UNL     1       6.287   4.100  16.352  0.00  0.00    +0.000 C 
BRANCH  26  30
ATOM     27  C   UNL     1       8.118   7.494  18.316  0.00  0.00    +0.000 A 
ATOM     28  C   UNL     1       8.161   6.229  18.905  0.00  0.00    +0.000 A 
ATOM     29  C   UNL     1       7.576   5.135  18.266  0.00  0.00    +0.000 A 
ATOM     30  C   UNL     1       6.924   5.289  17.033  0.00  0.00    +0.000 A 
ATOM     31  C   UNL     1       6.875   6.565  16.457  0.00  0.00    +0.000 A 
ATOM     32  C   UNL     1       7.465   7.660  17.095  0.00  0.00    +0.000 A 
BRANCH  27  34
ATOM     33  C   UNL     1       8.775   9.760  18.384  0.00  0.00    +0.000 C 
ATOM     34  O   UNL     1       8.700   8.499  19.039  0.00  0.00    +0.000 OA
ENDBRANCH  27  34
ENDBRANCH  26  30
ENDBRANCH  24  26
ENDBRANCH  23  24
ENDBRANCH   1  23
TORSDOF 7
ENDMDL
MODEL 6
REMARK VINA RESULT:      -7.9      4.893      9.319
REMARK  Name = 
REMARK  8 active torsions:
REMARK  status: ('A' for Active; 'I' for Inactive)
REMARK    1  A    between atoms: C_1  and  O_2
REMARK    2  A    between atoms: O_2  and  C_3
REMARK    3  A    between atoms: C_6  and  C_7
REMARK    4  A    between atoms: C_7  and  N_8
REMARK    5  A    between atoms: N_8  and  C_9
REMARK    6  A    between atoms: C_9  and  C_10
REMARK    7  A    between atoms: C_13  and  C_14
REMARK    8  A    between atoms: C_17  and  C_18
REMARK                            x       y       z     vdW  Elec       q    Type
REMARK                         _______ _______ _______ _____ _____    ______ ____
ROOT
ATOM      1  C   UNL     1       7.071   5.480  17.724  0.00  0.00    +0.000 A 
ATOM      2  C   UNL     1       7.941   5.773  18.785  0.00  0.00    +0.000 A 
ATOM      3  C   UNL     1       8.407   7.080  18.996  0.00  0.00    +0.000 A 
ATOM      4  C   UNL     1       8.041   8.136  18.148  0.00  0.00    +0.000 A 
ATOM      5  C   UNL     1       7.178   7.819  17.081  0.00  0.00    +0.000 A 
ATOM      6  C   UNL     1       6.692   6.523  16.878  0.00  0.00    +0.000 A 
ENDROOT
BRANCH   4   7
ATOM      7  C   UNL     1       8.514   9.530  18.359  0.00  0.00    +0.000 A 
ATOM      8  C   UNL     1       9.454   9.876  19.352  0.00  0.00    +0.000 A 
ATOM      9  C   UNL     1       9.913  11.201  19.506  0.00  0.00    +0.000 A 
ATOM     10  C   UNL     1       9.449  12.211  18.660  0.00  0.00    +0.000 A 
ATOM     11  C   UNL     1       8.513  11.875  17.680  0.00  0.00    +0.000 A 
ATOM     12  C   UNL     1       8.044  10.567  17.542  0.00  0.00    +0.000 A 
BRANCH  10  13
ATOM     13  C   UNL     1       9.946  13.585  18.673  0.00  0.00    +0.000 A 
ATOM     14  N   UNL     1       9.194  14.636  18.385  0.00  0.00    +0.000 NA
ATOM     15  C   UNL     1      10.010  15.723  18.464  0.00  0.00    +0.000 A 
ATOM     16  C   UNL     1       9.711  17.068  18.213  0.00  0.00    +0.000 A 
ATOM     17  C   UNL     1      10.733  18.012  18.331  0.00  0.00    +0.000 A 
ATOM     18  C   UNL     1      12.023  17.620  18.703  0.00  0.00    +0.000 A 
ATOM     19  C   UNL     1      12.333  16.281  18.978  0.00  0.00    +0.000 A 
ATOM     20  C   UNL     1      11.293  15.357  18.845  0.00  0.00    +0.000 A 
ATOM     21  N   UNL     1      11.213  13.995  19.020  0.00  0.00    +0.000 N 
ATOM     22  H   UNL     1      11.952  13.395  19.353  0.00  0.00    +0.000 HD
ENDBRANCH  10  13
ENDBRANCH   4   7
BRANCH   1  23
ATOM     23  C   UNL     1       6.585   4.073  17.458  0.00  0.00    +0.000 C 
BRANCH  23  24
ATOM     24  N   UNL     1       5.161   4.035  17.141  0.00  0.00    +0.000 NA
ATOM     25  H   UNL     1       4.872   4.925  16.741  0.00  0.00    +0.000 HD
BRANCH  24  26
ATOM     26  C   UNL     1       4.358   3.779  18.337  0.00  0.00    +0.000 C 
BRANCH  26  30
ATOM     27  C   UNL     1       2.123   7.298  19.497  0.00  0.00    +0.000 A 
ATOM     28  C   UNL     1       2.204   6.199  20.353  0.00  0.00    +0.000 A 
ATOM     29  C   UNL     1       2.931   5.068  19.979  0.00  0.00    +0.000 A 
ATOM     30  C   UNL     1       3.579   5.010  18.736  0.00  0.00    +0.000 A 
ATOM     31  C   UNL     1       3.481   6.114  17.879  0.00  0.00    +0.000 A 
ATOM     32  C   UNL     1       2.756   7.249  18.255  0.00  0.00    +0.000 A 
BRANCH  27  34
ATOM     33  C   UNL     1       1.312   8.493  21.364  0.00  0.00    +0.000 C 
ATOM     34  O   UNL     1       1.365   8.342  19.950  0.00  0.00    +0.000 OA
ENDBRANCH  27  34
ENDBRANCH  26  30
ENDBRANCH  24  26
ENDBRANCH  23  24
ENDBRANCH   1  23
TORSDOF 7
ENDMDL
MODEL 7
REMARK VINA RESULT:      -7.9      3.803      9.845
REMARK  Name = 
REMARK  8 active torsions:
REMARK  status: ('A' for Active; 'I' for Inactive)
REMARK    1  A    between atoms: C_1  and  O_2
REMARK    2  A    between atoms: O_2  and  C_3
REMARK    3  A    between atoms: C_6  and  C_7
REMARK    4  A    between atoms: C_7  and  N_8
REMARK    5  A    between atoms: N_8  and  C_9
REMARK    6  A    between atoms: C_9  and  C_10
REMARK    7  A    between atoms: C_13  and  C_14
REMARK    8  A    between atoms: C_17  and  C_18
REMARK                            x       y       z     vdW  Elec       q    Type
REMARK                         _______ _______ _______ _____ _____    ______ ____
ROOT
ATOM      1  C   UNL     1      -0.647  14.334  19.874  0.00  0.00    +0.000 A 
ATOM      2  C   UNL     1      -0.403  13.732  18.631  0.00  0.00    +0.000 A 
ATOM      3  C   UNL     1       0.125  12.435  18.548  0.00  0.00    +0.000 A 
ATOM      4  C   UNL     1       0.448  11.699  19.699  0.00  0.00    +0.000 A 
ATOM      5  C   UNL     1       0.209  12.326  20.937  0.00  0.00    +0.000 A 
ATOM      6  C   UNL     1      -0.338  13.610  21.026  0.00  0.00    +0.000 A 
ENDROOT
BRANCH   4   7
ATOM      7  C   UNL     1       0.999  10.319  19.635  0.00  0.00    +0.000 A 
ATOM      8  C   UNL     1       0.976   9.435  20.733  0.00  0.00    +0.000 A 
ATOM      9  C   UNL     1       1.472   8.118  20.633  0.00  0.00    +0.000 A 
ATOM     10  C   UNL     1       1.993   7.651  19.423  0.00  0.00    +0.000 A 
ATOM     11  C   UNL     1       2.024   8.525  18.335  0.00  0.00    +0.000 A 
ATOM     12  C   UNL     1       1.552   9.834  18.442  0.00  0.00    +0.000 A 
BRANCH  10  13
ATOM     13  C   UNL     1       2.428   6.275  19.194  0.00  0.00    +0.000 A 
ATOM     14  N   UNL     1       2.144   5.592  18.096  0.00  0.00    +0.000 NA
ATOM     15  C   UNL     1       2.681   4.352  18.268  0.00  0.00    +0.000 A 
ATOM     16  C   UNL     1       2.626   3.244  17.414  0.00  0.00    +0.000 A 
ATOM     17  C   UNL     1       3.230   2.054  17.824  0.00  0.00    +0.000 A 
ATOM     18  C   UNL     1       3.885   1.979  19.057  0.00  0.00    +0.000 A 
ATOM     19  C   UNL     1       3.967   3.086  19.915  0.00  0.00    +0.000 A 
ATOM     20  C   UNL     1       3.347   4.260  19.481  0.00  0.00    +0.000 A 
ATOM     21  N   UNL     1       3.214   5.515  20.030  0.00  0.00    +0.000 N 
ATOM     22  H   UNL     1       3.626   5.830  20.895  0.00  0.00    +0.000 HD
ENDBRANCH  10  13
ENDBRANCH   4   7
BRANCH   1  23
ATOM     23  C   UNL     1      -1.182  15.744  19.985  0.00  0.00    +0.000 C 
BRANCH  23  24
ATOM     24  N   UNL     1      -0.466  16.674  19.118  0.00  0.00    +0.000 NA
ATOM     25  H   UNL     1      -0.233  16.217  18.239  0.00  0.00    +0.000 HD
BRANCH  24  26
ATOM     26  C   UNL     1       0.772  17.138  19.744  0.00  0.00    +0.000 C 
BRANCH  26  30
ATOM     27  C   UNL     1       4.190  14.982  18.198  0.00  0.00    +0.000 A 
ATOM     28  C   UNL     1       3.756  14.772  19.508  0.00  0.00    +0.000 A 
ATOM     29  C   UNL     1       2.649  15.464  20.001  0.00  0.00    +0.000 A 
ATOM     30  C   UNL     1       1.965  16.389  19.198  0.00  0.00    +0.000 A 
ATOM     31  C   UNL     1       2.416  16.601  17.889  0.00  0.00    +0.000 A 
ATOM     32  C   UNL     1       3.523  15.905  17.393  0.00  0.00    +0.000 A 
BRANCH  27  34
ATOM     33  C   UNL     1       6.533  14.974  17.904  0.00  0.00    +0.000 C 
ATOM     34  O   UNL     1       5.298  14.272  17.825  0.00  0.00    +0.000 OA
ENDBRANCH  27  34
ENDBRANCH  26  30
ENDBRANCH  24  26
ENDBRANCH  23  24
ENDBRANCH   1  23
TORSDOF 7
ENDMDL
MODEL 8
REMARK VINA RESULT:      -7.8      1.096      1.555
REMARK  Name = 
REMARK  8 active torsions:
REMARK  status: ('A' for Active; 'I' for Inactive)
REMARK    1  A    between atoms: C_1  and  O_2
REMARK    2  A    between atoms: O_2  and  C_3
REMARK    3  A    between atoms: C_6  and  C_7
REMARK    4  A    between atoms: C_7  and  N_8
REMARK    5  A    between atoms: N_8  and  C_9
REMARK    6  A    between atoms: C_9  and  C_10
REMARK    7  A    between atoms: C_13  and  C_14
REMARK    8  A    between atoms: C_17  and  C_18
REMARK                            x       y       z     vdW  Elec       q    Type
REMARK                         _______ _______ _______ _____ _____    ______ ____
ROOT
ATOM      1  C   UNL     1       3.155   5.512  18.935  0.00  0.00    +0.000 A 
ATOM      2  C   UNL     1       3.009   6.704  18.212  0.00  0.00    +0.000 A 
ATOM      3  C   UNL     1       2.305   7.793  18.750  0.00  0.00    +0.000 A 
ATOM      4  C   UNL     1       1.704   7.725  20.016  0.00  0.00    +0.000 A 
ATOM      5  C   UNL     1       1.850   6.514  20.720  0.00  0.00    +0.000 A 
ATOM      6  C   UNL     1       2.570   5.434  20.200  0.00  0.00    +0.000 A 
ENDROOT
BRANCH   4   7
ATOM      7  C   UNL     1       0.962   8.869  20.609  0.00  0.00    +0.000 A 
ATOM      8  C   UNL     1       0.584   8.915  21.967  0.00  0.00    +0.000 A 
ATOM      9  C   UNL     1      -0.087  10.030  22.511  0.00  0.00    +0.000 A 
ATOM     10  C   UNL     1      -0.385  11.134  21.708  0.00  0.00    +0.000 A 
ATOM     11  C   UNL     1      -0.020  11.090  20.361  0.00  0.00    +0.000 A 
ATOM     12  C   UNL     1       0.625   9.978  19.820  0.00  0.00    +0.000 A 
BRANCH  10  13
ATOM     13  C   UNL     1      -0.978  12.374  22.205  0.00  0.00    +0.000 A 
ATOM     14  N   UNL     1      -0.622  12.949  23.343  0.00  0.00    +0.000 NA
ATOM     15  C   UNL     1      -1.416  14.047  23.481  0.00  0.00    +0.000 A 
ATOM     16  C   UNL     1      -1.465  14.971  24.532  0.00  0.00    +0.000 A 
ATOM     17  C   UNL     1      -2.395  16.009  24.465  0.00  0.00    +0.000 A 
ATOM     18  C   UNL     1      -3.251  16.127  23.365  0.00  0.00    +0.000 A 
ATOM     19  C   UNL     1      -3.200  15.222  22.295  0.00  0.00    +0.000 A 
ATOM     20  C   UNL     1      -2.265  14.189  22.393  0.00  0.00    +0.000 A 
ATOM     21  N   UNL     1      -1.931  13.137  21.570  0.00  0.00    +0.000 N 
ATOM     22  H   UNL     1      -2.312  12.957  20.654  0.00  0.00    +0.000 HD
ENDBRANCH  10  13
ENDBRANCH   4   7
BRANCH   1  23
ATOM     23  C   UNL     1       3.880   4.315  18.361  0.00  0.00    +0.000 C 
BRANCH  23  24
ATOM     24  N   UNL     1       5.178   4.104  18.993  0.00  0.00    +0.000 NA
ATOM     25  H   UNL     1       5.335   4.812  19.706  0.00  0.00    +0.000 HD
BRANCH  24  26
ATOM     26  C   UNL     1       6.264   4.179  18.015  0.00  0.00    +0.000 C 
BRANCH  26  30
ATOM     27  C   UNL     1       7.939   8.166  17.877  0.00  0.00    +0.000 A 
ATOM     28  C   UNL     1       8.354   7.258  18.853  0.00  0.00    +0.000 A 
ATOM     29  C   UNL     1       7.818   5.971  18.890  0.00  0.00    +0.000 A 
ATOM     30  C   UNL     1       6.845   5.572  17.962  0.00  0.00    +0.000 A 
ATOM     31  C   UNL     1       6.425   6.495  16.994  0.00  0.00    +0.000 A 
ATOM     32  C   UNL     1       6.966   7.784  16.954  0.00  0.00    +0.000 A 
BRANCH  27  34
ATOM     33  C   UNL     1       9.026   9.774  19.221  0.00  0.00    +0.000 C 
ATOM     34  O   UNL     1       8.510   9.406  17.947  0.00  0.00    +0.000 OA
ENDBRANCH  27  34
ENDBRANCH  26  30
ENDBRANCH  24  26
ENDBRANCH  23  24
ENDBRANCH   1  23
TORSDOF 7
ENDMDL
MODEL 9
REMARK VINA RESULT:      -7.8      3.492      4.550
REMARK  Name = 
REMARK  8 active torsions:
REMARK  status: ('A' for Active; 'I' for Inactive)
REMARK    1  A    between atoms: C_1  and  O_2
REMARK    2  A    between atoms: O_2  and  C_3
REMARK    3  A    between atoms: C_6  and  C_7
REMARK    4  A    between atoms: C_7  and  N_8
REMARK    5  A    between atoms: N_8  and  C_9
REMARK    6  A    between atoms: C_9  and  C_10
REMARK    7  A    between atoms: C_13  and  C_14
REMARK    8  A    between atoms: C_17  and  C_18
REMARK                            x       y       z     vdW  Elec       q    Type
REMARK                         _______ _______ _______ _____ _____    ______ ____
ROOT
ATOM      1  C   UNL     1       1.858   4.042  19.498  0.00  0.00    +0.000 A 
ATOM      2  C   UNL     1       1.861   4.862  20.635  0.00  0.00    +0.000 A 
ATOM      3  C   UNL     1       1.808   6.259  20.518  0.00  0.00    +0.000 A 
ATOM      4  C   UNL     1       1.771   6.890  19.265  0.00  0.00    +0.000 A 
ATOM      5  C   UNL     1       1.783   6.050  18.135  0.00  0.00    +0.000 A 
ATOM      6  C   UNL     1       1.814   4.656  18.245  0.00  0.00    +0.000 A 
ENDROOT
BRANCH   4   7
ATOM      7  C   UNL     1       1.704   8.369  19.118  0.00  0.00    +0.000 A 
ATOM      8  C   UNL     1       1.125   9.209  20.092  0.00  0.00    +0.000 A 
ATOM      9  C   UNL     1       1.107  10.611  19.943  0.00  0.00    +0.000 A 
ATOM     10  C   UNL     1       1.682  11.208  18.818  0.00  0.00    +0.000 A 
ATOM     11  C   UNL     1       2.250  10.380  17.848  0.00  0.00    +0.000 A 
ATOM     12  C   UNL     1       2.248   8.992  17.987  0.00  0.00    +0.000 A 
BRANCH  10  13
ATOM     13  C   UNL     1       1.808  12.651  18.629  0.00  0.00    +0.000 A 
ATOM     14  N   UNL     1       0.900  13.523  19.038  0.00  0.00    +0.000 NA
ATOM     15  C   UNL     1       1.347  14.750  18.651  0.00  0.00    +0.000 A 
ATOM     16  C   UNL     1       0.734  16.000  18.808  0.00  0.00    +0.000 A 
ATOM     17  C   UNL     1       1.376  17.127  18.294  0.00  0.00    +0.000 A 
ATOM     18  C   UNL     1       2.610  17.009  17.646  0.00  0.00    +0.000 A 
ATOM     19  C   UNL     1       3.247  15.768  17.499  0.00  0.00    +0.000 A 
ATOM     20  C   UNL     1       2.577  14.656  18.016  0.00  0.00    +0.000 A 
ATOM     21  N   UNL     1       2.873  13.313  18.060  0.00  0.00    +0.000 N 
ATOM     22  H   UNL     1       3.726  12.883  17.738  0.00  0.00    +0.000 HD
ENDBRANCH  10  13
ENDBRANCH   4   7
BRANCH   1  23
ATOM     23  C   UNL     1       1.950   2.536  19.600  0.00  0.00    +0.000 C 
BRANCH  23  24
ATOM     24  N   UNL     1       3.228   2.029  19.111  0.00  0.00    +0.000 NA
ATOM     25  H   UNL     1       3.363   1.071  19.426  0.00  0.00    +0.000 HD
BRANCH  24  26
ATOM     26  C   UNL     1       4.343   2.842  19.597  0.00  0.00    +0.000 C 
BRANCH  26  30
ATOM     27  C   UNL     1       6.260   4.963  16.349  0.00  0.00    +0.000 A 
ATOM     28  C   UNL     1       6.541   5.297  17.674  0.00  0.00    +0.000 A 
ATOM     29  C   UNL     1       5.927   4.607  18.719  0.00  0.00    +0.000 A 
ATOM     30  C   UNL     1       5.009   3.579  18.458  0.00  0.00    +0.000 A 
ATOM     31  C   UNL     1       4.724   3.259  17.125  0.00  0.00    +0.000 A 
ATOM     32  C   UNL     1       5.342   3.949  16.077  0.00  0.00    +0.000 A 
BRANCH  27  34
ATOM     33  C   UNL     1       7.195   5.051  14.183  0.00  0.00    +0.000 C 
ATOM     34  O   UNL     1       6.897   5.719  15.403  0.00  0.00    +0.000 OA
ENDBRANCH  27  34
ENDBRANCH  26  30
ENDBRANCH  24  26
ENDBRANCH  23  24
ENDBRANCH   1  23
TORSDOF 7
ENDMDL
