MODEL 1
REMARK VINA RESULT:      -7.5      0.000      0.000
REMARK  Name = 
REMARK  7 active torsions:
REMARK  status: ('A' for Active; 'I' for Inactive)
REMARK    1  A    between atoms: C_1  and  C_2
REMARK    2  A    between atoms: N_9  and  C_10
REMARK    3  A    between atoms: C_10  and  C_11
REMARK    4  A    between atoms: C_11  and  C_12
REMARK    5  A    between atoms: N_20  and  C_21
REMARK    6  A    between atoms: C_21  and  C_22
REMARK    7  A    between atoms: C_22  and  C_23
REMARK                            x       y       z     vdW  Elec       q    Type
REMARK                         _______ _______ _______ _____ _____    ______ ____
ROOT
ATOM      1  C   UNL     1       2.577   9.318  17.699  0.00  0.00    +0.000 C 
ATOM      2  C   UNL     1       2.366   8.162  18.620  0.00  0.00    +0.000 A 
ATOM      3  C   UNL     1       1.464   8.168  19.669  0.00  0.00    +0.000 A 
ATOM      4  S   UNL     1       1.507   6.725  20.575  0.00  0.00    +0.000 S 
ATOM      5  C   UNL     1       2.667   6.045  19.545  0.00  0.00    +0.000 A 
ATOM      6  C   UNL     1       3.065   6.898  18.553  0.00  0.00    +0.000 A 
ATOM      7  C   UNL     1       4.087   6.465  17.619  0.00  0.00    +0.000 A 
ATOM      8  O   UNL     1       4.465   7.191  16.704  0.00  0.00    +0.000 OA
ATOM      9  N   UNL     1       4.600   5.185  17.861  0.00  0.00    +0.000 N 
ATOM     10  C   UNL     1       4.211   4.344  18.916  0.00  0.00    +0.000 A 
ATOM     11  O   UNL     1       4.781   3.265  19.106  0.00  0.00    +0.000 OA
ATOM     12  N   UNL     1       3.160   4.763  19.748  0.00  0.00    +0.000 N 
ENDROOT
BRANCH   9  13
ATOM     13  C   UNL     1       5.707   4.723  17.002  0.00  0.00    +0.000 C 
BRANCH  13  14
ATOM     14  C   UNL     1       5.237   3.871  15.812  0.00  0.00    +0.000 C 
BRANCH  14  15
ATOM     15  C   UNL     1       5.977   4.157  14.519  0.00  0.00    +0.000 A 
ATOM     16  C   UNL     1       7.066   5.035  14.504  0.00  0.00    +0.000 A 
ATOM     17  C   UNL     1       7.793   5.239  13.328  0.00  0.00    +0.000 A 
ATOM     18  C   UNL     1       7.439   4.575  12.158  0.00  0.00    +0.000 A 
ATOM     19  C   UNL     1       6.346   3.710  12.159  0.00  0.00    +0.000 A 
ATOM     20  C   UNL     1       5.614   3.504  13.334  0.00  0.00    +0.000 A 
ENDBRANCH  14  15
ENDBRANCH  13  14
ENDBRANCH   9  13
BRANCH  12  21
ATOM     21  C   UNL     1       2.729   3.866  20.841  0.00  0.00    +0.000 C 
BRANCH  21  22
ATOM     22  C   UNL     1       1.310   3.325  20.677  0.00  0.00    +0.000 C 
BRANCH  22  23
ATOM     23  C   UNL     1       1.129   2.642  19.338  0.00  0.00    +0.000 C 
ATOM     24  F   UNL     1      -0.048   1.990  19.236  0.00  0.00    +0.000 F 
ATOM     25  F   UNL     1       1.181   3.542  18.329  0.00  0.00    +0.000 F 
ATOM     26  F   UNL     1       2.115   1.743  19.123  0.00  0.00    +0.000 F 
ENDBRANCH  22  23
ENDBRANCH  21  22
ENDBRANCH  12  21
TORSDOF 6
ENDMDL
MODEL 2
REMARK VINA RESULT:      -7.5      2.756      6.537
REMARK  Name = 
REMARK  7 active torsions:
REMARK  status: ('A' for Active; 'I' for Inactive)
REMARK    1  A    between atoms: C_1  and  C_2
REMARK    2  A    between atoms: N_9  and  C_10
REMARK    3  A    between atoms: C_10  and  C_11
REMARK    4  A    between atoms: C_11  and  C_12
REMARK    5  A    between atoms: N_20  and  C_21
REMARK    6  A    between atoms: C_21  and  C_22
REMARK    7  A    between atoms: C_22  and  C_23
REMARK                            x       y       z     vdW  Elec       q    Type
REMARK                         _______ _______ _______ _____ _____    ______ ____
ROOT
ATOM      1  C   UNL     1       5.318   5.601  15.425  0.00  0.00    +0.000 C 
ATOM      2  C   UNL     1       4.791   5.159  16.751  0.00  0.00    +0.000 A 
ATOM      3  C   UNL     1       5.012   3.903  17.286  0.00  0.00    +0.000 A 
ATOM      4  S   UNL     1       4.222   3.683  18.780  0.00  0.00    +0.000 S 
ATOM      5  C   UNL     1       3.639   5.272  18.772  0.00  0.00    +0.000 A 
ATOM      6  C   UNL     1       3.984   5.962  17.642  0.00  0.00    +0.000 A 
ATOM      7  C   UNL     1       3.518   7.325  17.478  0.00  0.00    +0.000 A 
ATOM      8  O   UNL     1       3.815   7.988  16.488  0.00  0.00    +0.000 OA
ATOM      9  N   UNL     1       2.707   7.798  18.517  0.00  0.00    +0.000 N 
ATOM     10  C   UNL     1       2.324   7.056  19.645  0.00  0.00    +0.000 A 
ATOM     11  O   UNL     1       1.532   7.524  20.470  0.00  0.00    +0.000 OA
ATOM     12  N   UNL     1       2.864   5.770  19.811  0.00  0.00    +0.000 N 
ENDROOT
BRANCH   9  13
ATOM     13  C   UNL     1       2.125   9.145  18.365  0.00  0.00    +0.000 C 
BRANCH  13  14
ATOM     14  C   UNL     1       0.787   9.148  17.607  0.00  0.00    +0.000 C 
BRANCH  14  15
ATOM     15  C   UNL     1      -0.272  10.038  18.229  0.00  0.00    +0.000 A 
ATOM     16  C   UNL     1       0.004  10.760  19.395  0.00  0.00    +0.000 A 
ATOM     17  C   UNL     1      -0.946  11.638  19.923  0.00  0.00    +0.000 A 
ATOM     18  C   UNL     1      -2.179  11.799  19.300  0.00  0.00    +0.000 A 
ATOM     19  C   UNL     1      -2.469  11.073  18.145  0.00  0.00    +0.000 A 
ATOM     20  C   UNL     1      -1.521  10.192  17.613  0.00  0.00    +0.000 A 
ENDBRANCH  14  15
ENDBRANCH  13  14
ENDBRANCH   9  13
BRANCH  12  21
ATOM     21  C   UNL     1       2.485   4.999  21.014  0.00  0.00    +0.000 C 
BRANCH  21  22
ATOM     22  C   UNL     1       1.300   4.058  20.801  0.00  0.00    +0.000 C 
BRANCH  22  23
ATOM     23  C   UNL     1       1.600   2.665  21.311  0.00  0.00    +0.000 C 
ATOM     24  F   UNL     1       0.754   2.268  22.283  0.00  0.00    +0.000 F 
ATOM     25  F   UNL     1       1.519   1.760  20.309  0.00  0.00    +0.000 F 
ATOM     26  F   UNL     1       2.855   2.598  21.809  0.00  0.00    +0.000 F 
ENDBRANCH  22  23
ENDBRANCH  21  22
ENDBRANCH  12  21
TORSDOF 6
ENDMDL
MODEL 3
REMARK VINA RESULT:      -7.3      0.529      1.138
REMARK  Name = 
REMARK  7 active torsions:
REMARK  status: ('A' for Active; 'I' for Inactive)
REMARK    1  A    between atoms: C_1  and  C_2
REMARK    2  A    between atoms: N_9  and  C_10
REMARK    3  A    between atoms: C_10  and  C_11
REMARK    4  A    between atoms: C_11  and  C_12
REMARK    5  A    between atoms: N_20  and  C_21
REMARK    6  A    between atoms: C_21  and  C_22
REMARK    7  A    between atoms: C_22  and  C_23
REMARK                            x       y       z     vdW  Elec       q    Type
REMARK                         _______ _______ _______ _____ _____    ______ ____
ROOT
ATOM      1  C   UNL     1       2.629   9.192  17.536  0.00  0.00    +0.000 C 
ATOM      2  C   UNL     1       2.475   8.064  18.502  0.00  0.00    +0.000 A 
ATOM      3  C   UNL     1       1.600   8.081  19.573  0.00  0.00    +0.000 A 
ATOM      4  S   UNL     1       1.709   6.674  20.528  0.00  0.00    +0.000 S 
ATOM      5  C   UNL     1       2.864   5.992  19.494  0.00  0.00    +0.000 A 
ATOM      6  C   UNL     1       3.211   6.820  18.462  0.00  0.00    +0.000 A 
ATOM      7  C   UNL     1       4.223   6.384  17.518  0.00  0.00    +0.000 A 
ATOM      8  O   UNL     1       4.555   7.087  16.568  0.00  0.00    +0.000 OA
ATOM      9  N   UNL     1       4.780   5.129  17.792  0.00  0.00    +0.000 N 
ATOM     10  C   UNL     1       4.443   4.316  18.886  0.00  0.00    +0.000 A 
ATOM     11  O   UNL     1       5.050   3.262  19.099  0.00  0.00    +0.000 OA
ATOM     12  N   UNL     1       3.400   4.733  19.729  0.00  0.00    +0.000 N 
ENDROOT
BRANCH   9  13
ATOM     13  C   UNL     1       5.879   4.670  16.922  0.00  0.00    +0.000 C 
BRANCH  13  14
ATOM     14  C   UNL     1       5.402   3.789  15.755  0.00  0.00    +0.000 C 
BRANCH  14  15
ATOM     15  C   UNL     1       6.133   4.046  14.451  0.00  0.00    +0.000 A 
ATOM     16  C   UNL     1       5.722   3.415  13.271  0.00  0.00    +0.000 A 
ATOM     17  C   UNL     1       6.348   3.711  12.057  0.00  0.00    +0.000 A 
ATOM     18  C   UNL     1       7.390   4.631  12.008  0.00  0.00    +0.000 A 
ATOM     19  C   UNL     1       7.817   5.253  13.180  0.00  0.00    +0.000 A 
ATOM     20  C   UNL     1       7.194   4.959  14.399  0.00  0.00    +0.000 A 
ENDBRANCH  14  15
ENDBRANCH  13  14
ENDBRANCH   9  13
BRANCH  12  21
ATOM     21  C   UNL     1       3.024   3.864  20.864  0.00  0.00    +0.000 C 
BRANCH  21  22
ATOM     22  C   UNL     1       2.291   2.588  20.451  0.00  0.00    +0.000 C 
BRANCH  22  23
ATOM     23  C   UNL     1       1.059   2.899  19.628  0.00  0.00    +0.000 C 
ATOM     24  F   UNL     1       0.269   3.832  20.196  0.00  0.00    +0.000 F 
ATOM     25  F   UNL     1       1.406   3.354  18.401  0.00  0.00    +0.000 F 
ATOM     26  F   UNL     1       0.314   1.787  19.445  0.00  0.00    +0.000 F 
ENDBRANCH  22  23
ENDBRANCH  21  22
ENDBRANCH  12  21
TORSDOF 6
ENDMDL
MODEL 4
REMARK VINA RESULT:      -7.3      3.259      7.231
REMARK  Name = 
REMARK  7 active torsions:
REMARK  status: ('A' for Active; 'I' for Inactive)
REMARK    1  A    between atoms: C_1  and  C_2
REMARK    2  A    between atoms: N_9  and  C_10
REMARK    3  A    between atoms: C_10  and  C_11
REMARK    4  A    between atoms: C_11  and  C_12
REMARK    5  A    between atoms: N_20  and  C_21
REMARK    6  A    between atoms: C_21  and  C_22
REMARK    7  A    between atoms: C_22  and  C_23
REMARK                            x       y       z     vdW  Elec       q    Type
REMARK                         _______ _______ _______ _____ _____    ______ ____
ROOT
ATOM      1  C   UNL     1       1.214   2.810  21.451  0.00  0.00    +0.000 C 
ATOM      2  C   UNL     1       2.006   2.831  20.185  0.00  0.00    +0.000 A 
ATOM      3  C   UNL     1       2.476   1.694  19.552  0.00  0.00    +0.000 A 
ATOM      4  S   UNL     1       3.403   2.054  18.168  0.00  0.00    +0.000 S 
ATOM      5  C   UNL     1       3.133   3.716  18.348  0.00  0.00    +0.000 A 
ATOM      6  C   UNL     1       2.395   4.019  19.459  0.00  0.00    +0.000 A 
ATOM      7  C   UNL     1       2.119   5.410  19.764  0.00  0.00    +0.000 A 
ATOM      8  O   UNL     1       1.449   5.729  20.742  0.00  0.00    +0.000 OA
ATOM      9  N   UNL     1       2.686   6.330  18.874  0.00  0.00    +0.000 N 
ATOM     10  C   UNL     1       3.482   5.999  17.766  0.00  0.00    +0.000 A 
ATOM     11  O   UNL     1       4.014   6.881  17.085  0.00  0.00    +0.000 OA
ATOM     12  N   UNL     1       3.656   4.640  17.454  0.00  0.00    +0.000 N 
ENDROOT
BRANCH   9  13
ATOM     13  C   UNL     1       2.519   7.764  19.181  0.00  0.00    +0.000 C 
BRANCH  13  14
ATOM     14  C   UNL     1       1.608   8.497  18.183  0.00  0.00    +0.000 C 
BRANCH  14  15
ATOM     15  C   UNL     1       0.667   9.497  18.827  0.00  0.00    +0.000 A 
ATOM     16  C   UNL     1       0.831   9.864  20.167  0.00  0.00    +0.000 A 
ATOM     17  C   UNL     1       0.011  10.842  20.737  0.00  0.00    +0.000 A 
ATOM     18  C   UNL     1      -0.981  11.457  19.981  0.00  0.00    +0.000 A 
ATOM     19  C   UNL     1      -1.162  11.088  18.649  0.00  0.00    +0.000 A 
ATOM     20  C   UNL     1      -0.344  10.107  18.074  0.00  0.00    +0.000 A 
ENDBRANCH  14  15
ENDBRANCH  13  14
ENDBRANCH   9  13
BRANCH  12  21
ATOM     21  C   UNL     1       4.468   4.290  16.270  0.00  0.00    +0.000 C 
BRANCH  21  22
ATOM     22  C   UNL     1       5.972   4.250  16.539  0.00  0.00    +0.000 C 
BRANCH  22  23
ATOM     23  C   UNL     1       6.715   5.250  15.680  0.00  0.00    +0.000 C 
ATOM     24  F   UNL     1       7.620   4.672  14.865  0.00  0.00    +0.000 F 
ATOM     25  F   UNL     1       5.855   5.945  14.900  0.00  0.00    +0.000 F 
ATOM     26  F   UNL     1       7.371   6.147  16.449  0.00  0.00    +0.000 F 
ENDBRANCH  22  23
ENDBRANCH  21  22
ENDBRANCH  12  21
TORSDOF 6
ENDMDL
MODEL 5
REMARK VINA RESULT:      -7.2      3.179      7.183
REMARK  Name = 
REMARK  7 active torsions:
REMARK  status: ('A' for Active; 'I' for Inactive)
REMARK    1  A    between atoms: C_1  and  C_2
REMARK    2  A    between atoms: N_9  and  C_10
REMARK    3  A    between atoms: C_10  and  C_11
REMARK    4  A    between atoms: C_11  and  C_12
REMARK    5  A    between atoms: N_20  and  C_21
REMARK    6  A    between atoms: C_21  and  C_22
REMARK    7  A    between atoms: C_22  and  C_23
REMARK                            x       y       z     vdW  Elec       q    Type
REMARK                         _______ _______ _______ _____ _____    ______ ____
ROOT
ATOM      1  C   UNL     1       1.210   2.939  21.079  0.00  0.00    +0.000 C 
ATOM      2  C   UNL     1       2.085   3.034  19.872  0.00  0.00    +0.000 A 
ATOM      3  C   UNL     1       2.629   1.938  19.227  0.00  0.00    +0.000 A 
ATOM      4  S   UNL     1       3.637   2.380  17.926  0.00  0.00    +0.000 S 
ATOM      5  C   UNL     1       3.307   4.025  18.154  0.00  0.00    +0.000 A 
ATOM      6  C   UNL     1       2.487   4.262  19.223  0.00  0.00    +0.000 A 
ATOM      7  C   UNL     1       2.152   5.631  19.565  0.00  0.00    +0.000 A 
ATOM      8  O   UNL     1       1.408   5.891  20.507  0.00  0.00    +0.000 OA
ATOM      9  N   UNL     1       2.751   6.602  18.754  0.00  0.00    +0.000 N 
ATOM     10  C   UNL     1       3.629   6.339  17.691  0.00  0.00    +0.000 A 
ATOM     11  O   UNL     1       4.181   7.263  17.084  0.00  0.00    +0.000 OA
ATOM     12  N   UNL     1       3.863   5.000  17.337  0.00  0.00    +0.000 N 
ENDROOT
BRANCH   9  13
ATOM     13  C   UNL     1       2.523   8.017  19.108  0.00  0.00    +0.000 C 
BRANCH  13  14
ATOM     14  C   UNL     1       1.561   8.735  18.147  0.00  0.00    +0.000 C 
BRANCH  14  15
ATOM     15  C   UNL     1       0.574   9.657  18.838  0.00  0.00    +0.000 A 
ATOM     16  C   UNL     1       0.775  10.041  20.169  0.00  0.00    +0.000 A 
ATOM     17  C   UNL     1      -0.093  10.950  20.780  0.00  0.00    +0.000 A 
ATOM     18  C   UNL     1      -1.170  11.478  20.074  0.00  0.00    +0.000 A 
ATOM     19  C   UNL     1      -1.386  11.091  18.753  0.00  0.00    +0.000 A 
ATOM     20  C   UNL     1      -0.520  10.179  18.137  0.00  0.00    +0.000 A 
ENDBRANCH  14  15
ENDBRANCH  13  14
ENDBRANCH   9  13
BRANCH  12  21
ATOM     21  C   UNL     1       4.763   4.722  16.198  0.00  0.00    +0.000 C 
BRANCH  21  22
ATOM     22  C   UNL     1       6.027   3.953  16.580  0.00  0.00    +0.000 C 
BRANCH  22  23
ATOM     23  C   UNL     1       6.999   4.827  17.343  0.00  0.00    +0.000 C 
ATOM     24  F   UNL     1       7.159   6.044  16.785  0.00  0.00    +0.000 F 
ATOM     25  F   UNL     1       6.577   5.017  18.614  0.00  0.00    +0.000 F 
ATOM     26  F   UNL     1       8.216   4.244  17.409  0.00  0.00    +0.000 F 
ENDBRANCH  22  23
ENDBRANCH  21  22
ENDBRANCH  12  21
TORSDOF 6
ENDMDL
MODEL 6
REMARK VINA RESULT:      -7.2      3.665      7.996
REMARK  Name = 
REMARK  7 active torsions:
REMARK  status: ('A' for Active; 'I' for Inactive)
REMARK    1  A    between atoms: C_1  and  C_2
REMARK    2  A    between atoms: N_9  and  C_10
REMARK    3  A    between atoms: C_10  and  C_11
REMARK    4  A    between atoms: C_11  and  C_12
REMARK    5  A    between atoms: N_20  and  C_21
REMARK    6  A    between atoms: C_21  and  C_22
REMARK    7  A    between atoms: C_22  and  C_23
REMARK                            x       y       z     vdW  Elec       q    Type
REMARK                         _______ _______ _______ _____ _____    ______ ____
ROOT
ATOM      1  C   UNL     1       2.027   2.778  21.523  0.00  0.00    +0.000 C 
ATOM      2  C   UNL     1       2.888   3.259  20.402  0.00  0.00    +0.000 A 
ATOM      3  C   UNL     1       3.862   2.487  19.794  0.00  0.00    +0.000 A 
ATOM      4  S   UNL     1       4.719   3.343  18.595  0.00  0.00    +0.000 S 
ATOM      5  C   UNL     1       3.762   4.723  18.814  0.00  0.00    +0.000 A 
ATOM      6  C   UNL     1       2.834   4.576  19.808  0.00  0.00    +0.000 A 
ATOM      7  C   UNL     1       1.970   5.694  20.137  0.00  0.00    +0.000 A 
ATOM      8  O   UNL     1       1.113   5.604  21.011  0.00  0.00    +0.000 OA
ATOM      9  N   UNL     1       2.208   6.858  19.396  0.00  0.00    +0.000 N 
ATOM     10  C   UNL     1       3.199   7.002  18.413  0.00  0.00    +0.000 A 
ATOM     11  O   UNL     1       3.397   8.095  17.870  0.00  0.00    +0.000 OA
ATOM     12  N   UNL     1       3.959   5.874  18.063  0.00  0.00    +0.000 N 
ENDROOT
BRANCH   9  13
ATOM     13  C   UNL     1       1.424   8.058  19.746  0.00  0.00    +0.000 C 
BRANCH  13  14
ATOM     14  C   UNL     1       1.678   8.553  21.180  0.00  0.00    +0.000 C 
BRANCH  14  15
ATOM     15  C   UNL     1       0.711   9.626  21.642  0.00  0.00    +0.000 A 
ATOM     16  C   UNL     1      -0.153   9.388  22.716  0.00  0.00    +0.000 A 
ATOM     17  C   UNL     1      -0.989  10.403  23.189  0.00  0.00    +0.000 A 
ATOM     18  C   UNL     1      -0.976  11.660  22.593  0.00  0.00    +0.000 A 
ATOM     19  C   UNL     1      -0.129  11.903  21.513  0.00  0.00    +0.000 A 
ATOM     20  C   UNL     1       0.709  10.889  21.035  0.00  0.00    +0.000 A 
ENDBRANCH  14  15
ENDBRANCH  13  14
ENDBRANCH   9  13
BRANCH  12  21
ATOM     21  C   UNL     1       4.983   6.017  17.006  0.00  0.00    +0.000 C 
BRANCH  21  22
ATOM     22  C   UNL     1       6.136   6.946  17.381  0.00  0.00    +0.000 C 
BRANCH  22  23
ATOM     23  C   UNL     1       7.220   6.208  18.138  0.00  0.00    +0.000 C 
ATOM     24  F   UNL     1       7.606   5.071  17.525  0.00  0.00    +0.000 F 
ATOM     25  F   UNL     1       8.319   6.984  18.280  0.00  0.00    +0.000 F 
ATOM     26  F   UNL     1       6.798   5.882  19.380  0.00  0.00    +0.000 F 
ENDBRANCH  22  23
ENDBRANCH  21  22
ENDBRANCH  12  21
TORSDOF 6
ENDMDL
MODEL 7
REMARK VINA RESULT:      -7.2      3.363      7.408
REMARK  Name = 
REMARK  7 active torsions:
REMARK  status: ('A' for Active; 'I' for Inactive)
REMARK    1  A    between atoms: C_1  and  C_2
REMARK    2  A    between atoms: N_9  and  C_10
REMARK    3  A    between atoms: C_10  and  C_11
REMARK    4  A    between atoms: C_11  and  C_12
REMARK    5  A    between atoms: N_20  and  C_21
REMARK    6  A    between atoms: C_21  and  C_22
REMARK    7  A    between atoms: C_22  and  C_23
REMARK                            x       y       z     vdW  Elec       q    Type
REMARK                         _______ _______ _______ _____ _____    ______ ____
ROOT
ATOM      1  C   UNL     1       1.656   3.215  21.552  0.00  0.00    +0.000 C 
ATOM      2  C   UNL     1       2.450   3.409  20.302  0.00  0.00    +0.000 A 
ATOM      3  C   UNL     1       3.148   2.396  19.669  0.00  0.00    +0.000 A 
ATOM      4  S   UNL     1       4.010   2.950  18.307  0.00  0.00    +0.000 S 
ATOM      5  C   UNL     1       3.410   4.522  18.495  0.00  0.00    +0.000 A 
ATOM      6  C   UNL     1       2.606   4.659  19.594  0.00  0.00    +0.000 A 
ATOM      7  C   UNL     1       2.054   5.964  19.904  0.00  0.00    +0.000 A 
ATOM      8  O   UNL     1       1.316   6.131  20.871  0.00  0.00    +0.000 OA
ATOM      9  N   UNL     1       2.442   6.989  19.033  0.00  0.00    +0.000 N 
ATOM     10  C   UNL     1       3.307   6.836  17.938  0.00  0.00    +0.000 A 
ATOM     11  O   UNL     1       3.665   7.814  17.275  0.00  0.00    +0.000 OA
ATOM     12  N   UNL     1       3.754   5.543  17.619  0.00  0.00    +0.000 N 
ENDROOT
BRANCH   9  13
ATOM     13  C   UNL     1       1.987   8.357  19.348  0.00  0.00    +0.000 C 
BRANCH  13  14
ATOM     14  C   UNL     1       1.283   9.050  18.170  0.00  0.00    +0.000 C 
BRANCH  14  15
ATOM     15  C   UNL     1       0.279  10.107  18.588  0.00  0.00    +0.000 A 
ATOM     16  C   UNL     1      -1.005  10.126  18.030  0.00  0.00    +0.000 A 
ATOM     17  C   UNL     1      -1.953  11.053  18.472  0.00  0.00    +0.000 A 
ATOM     18  C   UNL     1      -1.630  11.970  19.467  0.00  0.00    +0.000 A 
ATOM     19  C   UNL     1      -0.350  11.969  20.018  0.00  0.00    +0.000 A 
ATOM     20  C   UNL     1       0.604  11.043  19.578  0.00  0.00    +0.000 A 
ENDBRANCH  14  15
ENDBRANCH  13  14
ENDBRANCH   9  13
BRANCH  12  21
ATOM     21  C   UNL     1       4.641   5.376  16.448  0.00  0.00    +0.000 C 
BRANCH  21  22
ATOM     22  C   UNL     1       6.115   5.652  16.742  0.00  0.00    +0.000 C 
BRANCH  22  23
ATOM     23  C   UNL     1       7.003   4.554  16.197  0.00  0.00    +0.000 C 
ATOM     24  F   UNL     1       7.628   4.903  15.055  0.00  0.00    +0.000 F 
ATOM     25  F   UNL     1       7.959   4.221  17.095  0.00  0.00    +0.000 F 
ATOM     26  F   UNL     1       6.284   3.438  15.946  0.00  0.00    +0.000 F 
ENDBRANCH  22  23
ENDBRANCH  21  22
ENDBRANCH  12  21
TORSDOF 6
ENDMDL
MODEL 8
REMARK VINA RESULT:      -7.1      3.111      5.069
REMARK  Name = 
REMARK  7 active torsions:
REMARK  status: ('A' for Active; 'I' for Inactive)
REMARK    1  A    between atoms: C_1  and  C_2
REMARK    2  A    between atoms: N_9  and  C_10
REMARK    3  A    between atoms: C_10  and  C_11
REMARK    4  A    between atoms: C_11  and  C_12
REMARK    5  A    between atoms: N_20  and  C_21
REMARK    6  A    between atoms: C_21  and  C_22
REMARK    7  A    between atoms: C_22  and  C_23
REMARK                            x       y       z     vdW  Elec       q    Type
REMARK                         _______ _______ _______ _____ _____    ______ ____
ROOT
ATOM      1  C   UNL     1       1.967   1.534  19.409  0.00  0.00    +0.000 C 
ATOM      2  C   UNL     1       1.923   3.021  19.551  0.00  0.00    +0.000 A 
ATOM      3  C   UNL     1       1.150   3.682  20.488  0.00  0.00    +0.000 A 
ATOM      4  S   UNL     1       1.265   5.377  20.349  0.00  0.00    +0.000 S 
ATOM      5  C   UNL     1       2.397   5.256  19.096  0.00  0.00    +0.000 A 
ATOM      6  C   UNL     1       2.662   3.962  18.739  0.00  0.00    +0.000 A 
ATOM      7  C   UNL     1       3.583   3.706  17.648  0.00  0.00    +0.000 A 
ATOM      8  O   UNL     1       3.862   2.561  17.303  0.00  0.00    +0.000 OA
ATOM      9  N   UNL     1       4.097   4.853  17.033  0.00  0.00    +0.000 N 
ATOM     10  C   UNL     1       3.775   6.173  17.384  0.00  0.00    +0.000 A 
ATOM     11  O   UNL     1       4.209   7.125  16.727  0.00  0.00    +0.000 OA
ATOM     12  N   UNL     1       2.946   6.382  18.498  0.00  0.00    +0.000 N 
ENDROOT
BRANCH   9  13
ATOM     13  C   UNL     1       4.969   4.660  15.858  0.00  0.00    +0.000 C 
BRANCH  13  14
ATOM     14  C   UNL     1       6.418   4.303  16.228  0.00  0.00    +0.000 C 
BRANCH  14  15
ATOM     15  C   UNL     1       7.101   5.332  17.107  0.00  0.00    +0.000 A 
ATOM     16  C   UNL     1       7.250   6.653  16.669  0.00  0.00    +0.000 A 
ATOM     17  C   UNL     1       7.810   7.617  17.511  0.00  0.00    +0.000 A 
ATOM     18  C   UNL     1       8.233   7.274  18.791  0.00  0.00    +0.000 A 
ATOM     19  C   UNL     1       8.102   5.958  19.231  0.00  0.00    +0.000 A 
ATOM     20  C   UNL     1       7.543   4.988  18.391  0.00  0.00    +0.000 A 
ENDBRANCH  14  15
ENDBRANCH  13  14
ENDBRANCH   9  13
BRANCH  12  21
ATOM     21  C   UNL     1       2.630   7.772  18.887  0.00  0.00    +0.000 C 
BRANCH  21  22
ATOM     22  C   UNL     1       1.768   8.520  17.871  0.00  0.00    +0.000 C 
BRANCH  22  23
ATOM     23  C   UNL     1       1.168   9.774  18.470  0.00  0.00    +0.000 C 
ATOM     24  F   UNL     1       1.861  10.888  18.160  0.00  0.00    +0.000 F 
ATOM     25  F   UNL     1      -0.101   9.953  18.035  0.00  0.00    +0.000 F 
ATOM     26  F   UNL     1       1.119   9.684  19.818  0.00  0.00    +0.000 F 
ENDBRANCH  22  23
ENDBRANCH  21  22
ENDBRANCH  12  21
TORSDOF 6
ENDMDL
MODEL 9
REMARK VINA RESULT:      -7.1      3.191      6.949
REMARK  Name = 
REMARK  7 active torsions:
REMARK  status: ('A' for Active; 'I' for Inactive)
REMARK    1  A    between atoms: C_1  and  C_2
REMARK    2  A    between atoms: N_9  and  C_10
REMARK    3  A    between atoms: C_10  and  C_11
REMARK    4  A    between atoms: C_11  and  C_12
REMARK    5  A    between atoms: N_20  and  C_21
REMARK    6  A    between atoms: C_21  and  C_22
REMARK    7  A    between atoms: C_22  and  C_23
REMARK                            x       y       z     vdW  Elec       q    Type
REMARK                         _______ _______ _______ _____ _____    ______ ____
ROOT
ATOM      1  C   UNL     1       1.219   2.907  21.064  0.00  0.00    +0.000 C 
ATOM      2  C   UNL     1       2.113   2.972  19.869  0.00  0.00    +0.000 A 
ATOM      3  C   UNL     1       2.673   1.860  19.266  0.00  0.00    +0.000 A 
ATOM      4  S   UNL     1       3.700   2.270  17.968  0.00  0.00    +0.000 S 
ATOM      5  C   UNL     1       3.357   3.919  18.142  0.00  0.00    +0.000 A 
ATOM      6  C   UNL     1       2.519   4.183  19.191  0.00  0.00    +0.000 A 
ATOM      7  C   UNL     1       2.171   5.559  19.486  0.00  0.00    +0.000 A 
ATOM      8  O   UNL     1       1.410   5.842  20.407  0.00  0.00    +0.000 OA
ATOM      9  N   UNL     1       2.778   6.509  18.656  0.00  0.00    +0.000 N 
ATOM     10  C   UNL     1       3.674   6.220  17.615  0.00  0.00    +0.000 A 
ATOM     11  O   UNL     1       4.231   7.129  16.990  0.00  0.00    +0.000 OA
ATOM     12  N   UNL     1       3.921   4.873  17.305  0.00  0.00    +0.000 N 
ENDROOT
BRANCH   9  13
ATOM     13  C   UNL     1       2.536   7.932  18.963  0.00  0.00    +0.000 C 
BRANCH  13  14
ATOM     14  C   UNL     1       1.611   8.624  17.949  0.00  0.00    +0.000 C 
BRANCH  14  15
ATOM     15  C   UNL     1       1.220  10.038  18.336  0.00  0.00    +0.000 A 
ATOM     16  C   UNL     1       2.140  11.086  18.218  0.00  0.00    +0.000 A 
ATOM     17  C   UNL     1       1.755  12.399  18.502  0.00  0.00    +0.000 A 
ATOM     18  C   UNL     1       0.455  12.678  18.910  0.00  0.00    +0.000 A 
ATOM     19  C   UNL     1      -0.465  11.640  19.044  0.00  0.00    +0.000 A 
ATOM     20  C   UNL     1      -0.084  10.323  18.762  0.00  0.00    +0.000 A 
ENDBRANCH  14  15
ENDBRANCH  13  14
ENDBRANCH   9  13
BRANCH  12  21
ATOM     21  C   UNL     1       4.841   4.566  16.190  0.00  0.00    +0.000 C 
BRANCH  21  22
ATOM     22  C   UNL     1       6.108   3.826  16.616  0.00  0.00    +0.000 C 
BRANCH  22  23
ATOM     23  C   UNL     1       7.071   4.746  17.337  0.00  0.00    +0.000 C 
ATOM     24  F   UNL     1       8.294   4.203  17.498  0.00  0.00    +0.000 F 
ATOM     25  F   UNL     1       7.229   5.904  16.654  0.00  0.00    +0.000 F 
ATOM     26  F   UNL     1       6.599   5.066  18.562  0.00  0.00    +0.000 F 
ENDBRANCH  22  23
ENDBRANCH  21  22
ENDBRANCH  12  21
TORSDOF 6
ENDMDL
