MODEL 1
REMARK VINA RESULT:      -7.6      0.000      0.000
REMARK  Name = 
REMARK  12 active torsions:
REMARK  status: ('A' for Active; 'I' for Inactive)
REMARK    1  A    between atoms: C_1  and  O_2
REMARK    2  A    between atoms: O_2  and  C_3
REMARK    3  A    between atoms: C_6  and  C_7
REMARK    4  A    between atoms: C_7  and  C_8
REMARK    5  A    between atoms: C_7  and  N_16
REMARK    6  A    between atoms: N_10  and  C_11
REMARK    7  A    between atoms: N_16  and  C_24
REMARK    8  A    between atoms: C_17  and  C_19
REMARK    9  A    between atoms: C_27  and  O_28
REMARK   10  A    between atoms: O_28  and  C_29
REMARK   11  A    between atoms: C_30  and  O_31
REMARK   12  A    between atoms: O_31  and  C_32
REMARK                            x       y       z     vdW  Elec       q    Type
REMARK                         _______ _______ _______ _____ _____    ______ ____
ROOT
ATOM      1  C   UNL     1       0.132  10.958  18.729  0.00  0.00    +0.000 C 
ENDROOT
BRANCH   1   5
ATOM      2  C   UNL     1      -4.162  10.982  17.940  0.00  0.00    +0.000 A 
ATOM      3  C   UNL     1      -3.333  10.069  17.297  0.00  0.00    +0.000 A 
ATOM      4  C   UNL     1      -1.969  10.007  17.619  0.00  0.00    +0.000 A 
ATOM      5  C   UNL     1      -1.402  10.890  18.560  0.00  0.00    +0.000 A 
ATOM      6  C   UNL     1      -2.257  11.810  19.173  0.00  0.00    +0.000 A 
ATOM      7  C   UNL     1      -3.613  11.868  18.861  0.00  0.00    +0.000 A 
BRANCH   2   9
ATOM      8  C   UNL     1      -6.365  11.126  18.708  0.00  0.00    +0.000 C 
ATOM      9  O   UNL     1      -5.486  10.972  17.594  0.00  0.00    +0.000 OA
ENDBRANCH   2   9
ENDBRANCH   1   5
BRANCH   1  10
ATOM     10  C   UNL     1       0.540  12.469  18.780  0.00  0.00    +0.000 C 
ATOM     11  O   UNL     1      -0.252  13.395  18.594  0.00  0.00    +0.000 OA
ATOM     12  N   UNL     1       1.881  12.730  18.999  0.00  0.00    +0.000 N 
ATOM     13  H   UNL     1       2.540  11.969  19.107  0.00  0.00    +0.000 HD
BRANCH  12  14
ATOM     14  C   UNL     1       2.327  14.106  19.087  0.00  0.00    +0.000 C 
ATOM     15  C   UNL     1       3.317  14.347  20.215  0.00  0.00    +0.000 C 
ATOM     16  C   UNL     1       4.041  15.621  19.803  0.00  0.00    +0.000 C 
ATOM     17  C   UNL     1       3.978  15.681  18.278  0.00  0.00    +0.000 C 
ATOM     18  C   UNL     1       3.076  14.539  17.832  0.00  0.00    +0.000 C 
ENDBRANCH  12  14
ENDBRANCH   1  10
BRANCH   1  19
ATOM     19  N   UNL     1       0.683  10.082  19.830  0.00  0.00    +0.000 N 
ATOM     20  C   UNL     1       0.681  10.402  21.213  0.00  0.00    +0.000 C 
ATOM     21  O   UNL     1       1.223   9.631  22.020  0.00  0.00    +0.000 OA
BRANCH  19  22
ATOM     22  C   UNL     1       1.477   8.931  19.443  0.00  0.00    +0.000 A 
ATOM     23  C   UNL     1       2.147   8.899  18.225  0.00  0.00    +0.000 A 
ATOM     24  C   UNL     1       2.911   7.791  17.858  0.00  0.00    +0.000 A 
ATOM     25  C   UNL     1       3.003   6.673  18.689  0.00  0.00    +0.000 A 
ATOM     26  C   UNL     1       2.275   6.643  19.887  0.00  0.00    +0.000 A 
ATOM     27  C   UNL     1       1.508   7.768  20.238  0.00  0.00    +0.000 A 
BRANCH  25  28
ATOM     28  O   UNL     1       3.763   5.668  18.148  0.00  0.00    +0.000 OA
ATOM     29  C   UNL     1       4.673   6.035  17.121  0.00  0.00    +0.000 C 
ENDBRANCH  25  28
BRANCH  26  30
ATOM     30  O   UNL     1       2.317   5.493  20.626  0.00  0.00    +0.000 OA
ATOM     31  C   UNL     1       1.299   4.521  20.436  0.00  0.00    +0.000 C 
ENDBRANCH  26  30
ENDBRANCH  19  22
BRANCH  20  32
ATOM     32  C   UNL     1       0.027  11.582  21.764  0.00  0.00    +0.000 A 
ATOM     33  C   UNL     1      -1.226  11.659  22.366  0.00  0.00    +0.000 A 
ATOM     34  C   UNL     1      -1.448  13.010  22.715  0.00  0.00    +0.000 A 
ATOM     35  C   UNL     1      -0.320  13.684  22.321  0.00  0.00    +0.000 A 
ATOM     36  O   UNL     1       0.575  12.831  21.749  0.00  0.00    +0.000 OA
ENDBRANCH  20  32
ENDBRANCH   1  19
TORSDOF 9
ENDMDL
MODEL 2
REMARK VINA RESULT:      -7.1      2.288      4.442
REMARK  Name = 
REMARK  12 active torsions:
REMARK  status: ('A' for Active; 'I' for Inactive)
REMARK    1  A    between atoms: C_1  and  O_2
REMARK    2  A    between atoms: O_2  and  C_3
REMARK    3  A    between atoms: C_6  and  C_7
REMARK    4  A    between atoms: C_7  and  C_8
REMARK    5  A    between atoms: C_7  and  N_16
REMARK    6  A    between atoms: N_10  and  C_11
REMARK    7  A    between atoms: N_16  and  C_24
REMARK    8  A    between atoms: C_17  and  C_19
REMARK    9  A    between atoms: C_27  and  O_28
REMARK   10  A    between atoms: O_28  and  C_29
REMARK   11  A    between atoms: C_30  and  O_31
REMARK   12  A    between atoms: O_31  and  C_32
REMARK                            x       y       z     vdW  Elec       q    Type
REMARK                         _______ _______ _______ _____ _____    ______ ____
ROOT
ATOM      1  C   UNL     1      -2.211  12.767  19.305  0.00  0.00    +0.000 C 
ENDROOT
BRANCH   1   5
ATOM      2  C   UNL     1      -4.639  13.622  22.833  0.00  0.00    +0.000 A 
ATOM      3  C   UNL     1      -4.849  14.319  21.647  0.00  0.00    +0.000 A 
ATOM      4  C   UNL     1      -4.127  13.981  20.493  0.00  0.00    +0.000 A 
ATOM      5  C   UNL     1      -3.149  12.967  20.517  0.00  0.00    +0.000 A 
ATOM      6  C   UNL     1      -2.946  12.299  21.728  0.00  0.00    +0.000 A 
ATOM      7  C   UNL     1      -3.667  12.628  22.873  0.00  0.00    +0.000 A 
BRANCH   2   9
ATOM      8  C   UNL     1      -5.835  15.347  23.861  0.00  0.00    +0.000 C 
ATOM      9  O   UNL     1      -5.394  13.990  23.912  0.00  0.00    +0.000 OA
ENDBRANCH   2   9
ENDBRANCH   1   5
BRANCH   1  10
ATOM     10  C   UNL     1      -0.811  13.358  19.683  0.00  0.00    +0.000 C 
ATOM     11  O   UNL     1      -0.396  13.439  20.840  0.00  0.00    +0.000 OA
ATOM     12  N   UNL     1      -0.055  13.850  18.633  0.00  0.00    +0.000 N 
ATOM     13  H   UNL     1      -0.415  13.824  17.688  0.00  0.00    +0.000 HD
BRANCH  12  14
ATOM     14  C   UNL     1       1.264  14.386  18.904  0.00  0.00    +0.000 C 
ATOM     15  C   UNL     1       2.368  13.688  18.127  0.00  0.00    +0.000 C 
ATOM     16  C   UNL     1       3.506  14.700  18.116  0.00  0.00    +0.000 C 
ATOM     17  C   UNL     1       2.860  16.079  18.236  0.00  0.00    +0.000 C 
ATOM     18  C   UNL     1       1.377  15.848  18.486  0.00  0.00    +0.000 C 
ENDBRANCH  12  14
ENDBRANCH   1  10
BRANCH   1  19
ATOM     19  N   UNL     1      -2.212  11.369  18.731  0.00  0.00    +0.000 N 
ATOM     20  C   UNL     1      -3.347  10.701  18.200  0.00  0.00    +0.000 C 
ATOM     21  O   UNL     1      -3.238   9.526  17.817  0.00  0.00    +0.000 OA
BRANCH  19  22
ATOM     22  C   UNL     1      -1.029  10.555  18.936  0.00  0.00    +0.000 A 
ATOM     23  C   UNL     1      -0.243  10.152  17.862  0.00  0.00    +0.000 A 
ATOM     24  C   UNL     1       0.895   9.371  18.063  0.00  0.00    +0.000 A 
ATOM     25  C   UNL     1       1.263   8.949  19.342  0.00  0.00    +0.000 A 
ATOM     26  C   UNL     1       0.446   9.273  20.434  0.00  0.00    +0.000 A 
ATOM     27  C   UNL     1      -0.699  10.058  20.211  0.00  0.00    +0.000 A 
BRANCH  25  28
ATOM     28  O   UNL     1       2.383   8.159  19.342  0.00  0.00    +0.000 OA
ATOM     29  C   UNL     1       2.833   7.686  18.080  0.00  0.00    +0.000 C 
ENDBRANCH  25  28
BRANCH  26  30
ATOM     30  O   UNL     1       0.789   8.761  21.657  0.00  0.00    +0.000 OA
ATOM     31  C   UNL     1       0.241   9.357  22.824  0.00  0.00    +0.000 C 
ENDBRANCH  26  30
ENDBRANCH  19  22
BRANCH  20  32
ATOM     32  C   UNL     1      -4.647  11.335  18.029  0.00  0.00    +0.000 A 
ATOM     33  C   UNL     1      -5.802  11.126  18.777  0.00  0.00    +0.000 A 
ATOM     34  C   UNL     1      -6.818  11.939  18.226  0.00  0.00    +0.000 A 
ATOM     35  C   UNL     1      -6.232  12.608  17.182  0.00  0.00    +0.000 A 
ATOM     36  O   UNL     1      -4.922  12.252  17.057  0.00  0.00    +0.000 OA
ENDBRANCH  20  32
ENDBRANCH   1  19
TORSDOF 9
ENDMDL
MODEL 3
REMARK VINA RESULT:      -7.1      2.372      4.439
REMARK  Name = 
REMARK  12 active torsions:
REMARK  status: ('A' for Active; 'I' for Inactive)
REMARK    1  A    between atoms: C_1  and  O_2
REMARK    2  A    between atoms: O_2  and  C_3
REMARK    3  A    between atoms: C_6  and  C_7
REMARK    4  A    between atoms: C_7  and  C_8
REMARK    5  A    between atoms: C_7  and  N_16
REMARK    6  A    between atoms: N_10  and  C_11
REMARK    7  A    between atoms: N_16  and  C_24
REMARK    8  A    between atoms: C_17  and  C_19
REMARK    9  A    between atoms: C_27  and  O_28
REMARK   10  A    between atoms: O_28  and  C_29
REMARK   11  A    between atoms: C_30  and  O_31
REMARK   12  A    between atoms: O_31  and  C_32
REMARK                            x       y       z     vdW  Elec       q    Type
REMARK                         _______ _______ _______ _____ _____    ______ ____
ROOT
ATOM      1  C   UNL     1      -2.310  12.832  19.426  0.00  0.00    +0.000 C 
ENDROOT
BRANCH   1   5
ATOM      2  C   UNL     1      -5.002  13.053  22.858  0.00  0.00    +0.000 A 
ATOM      3  C   UNL     1      -3.782  12.390  22.960  0.00  0.00    +0.000 A 
ATOM      4  C   UNL     1      -2.884  12.397  21.883  0.00  0.00    +0.000 A 
ATOM      5  C   UNL     1      -3.210  13.030  20.667  0.00  0.00    +0.000 A 
ATOM      6  C   UNL     1      -4.450  13.669  20.588  0.00  0.00    +0.000 A 
ATOM      7  C   UNL     1      -5.341  13.671  21.659  0.00  0.00    +0.000 A 
BRANCH   2   9
ATOM      8  C   UNL     1      -7.126  12.524  23.675  0.00  0.00    +0.000 C 
ATOM      9  O   UNL     1      -5.819  13.025  23.955  0.00  0.00    +0.000 OA
ENDBRANCH   2   9
ENDBRANCH   1   5
BRANCH   1  10
ATOM     10  C   UNL     1      -0.926  13.500  19.729  0.00  0.00    +0.000 C 
ATOM     11  O   UNL     1      -0.426  13.551  20.853  0.00  0.00    +0.000 OA
ATOM     12  N   UNL     1      -0.291  14.096  18.653  0.00  0.00    +0.000 N 
ATOM     13  H   UNL     1      -0.723  14.093  17.738  0.00  0.00    +0.000 HD
BRANCH  12  14
ATOM     14  C   UNL     1       1.007  14.709  18.852  0.00  0.00    +0.000 C 
ATOM     15  C   UNL     1       2.113  14.051  18.044  0.00  0.00    +0.000 C 
ATOM     16  C   UNL     1       3.192  15.122  17.958  0.00  0.00    +0.000 C 
ATOM     17  C   UNL     1       2.478  16.467  18.073  0.00  0.00    +0.000 C 
ATOM     18  C   UNL     1       1.021  16.163  18.394  0.00  0.00    +0.000 C 
ENDBRANCH  12  14
ENDBRANCH   1  10
BRANCH   1  19
ATOM     19  N   UNL     1      -2.266  11.416  18.901  0.00  0.00    +0.000 N 
ATOM     20  C   UNL     1      -3.363  10.717  18.331  0.00  0.00    +0.000 C 
ATOM     21  O   UNL     1      -3.223   9.532  17.993  0.00  0.00    +0.000 OA
BRANCH  19  22
ATOM     22  C   UNL     1      -1.089  10.622  19.197  0.00  0.00    +0.000 A 
ATOM     23  C   UNL     1      -0.194  10.265  18.194  0.00  0.00    +0.000 A 
ATOM     24  C   UNL     1       0.938   9.503  18.484  0.00  0.00    +0.000 A 
ATOM     25  C   UNL     1       1.192   9.055  19.781  0.00  0.00    +0.000 A 
ATOM     26  C   UNL     1       0.267   9.332  20.798  0.00  0.00    +0.000 A 
ATOM     27  C   UNL     1      -0.870  10.098  20.486  0.00  0.00    +0.000 A 
BRANCH  25  28
ATOM     28  O   UNL     1       2.325   8.289  19.869  0.00  0.00    +0.000 OA
ATOM     29  C   UNL     1       2.210   6.927  19.482  0.00  0.00    +0.000 C 
ENDBRANCH  25  28
BRANCH  26  30
ATOM     30  O   UNL     1       0.504   8.795  22.035  0.00  0.00    +0.000 OA
ATOM     31  C   UNL     1       0.016   9.478  23.181  0.00  0.00    +0.000 C 
ENDBRANCH  26  30
ENDBRANCH  19  22
BRANCH  20  32
ATOM     32  C   UNL     1      -4.658  11.331  18.067  0.00  0.00    +0.000 A 
ATOM     33  C   UNL     1      -5.873  11.059  18.689  0.00  0.00    +0.000 A 
ATOM     34  C   UNL     1      -6.853  11.876  18.083  0.00  0.00    +0.000 A 
ATOM     35  C   UNL     1      -6.188  12.611  17.134  0.00  0.00    +0.000 A 
ATOM     36  O   UNL     1      -4.864  12.290  17.118  0.00  0.00    +0.000 OA
ENDBRANCH  20  32
ENDBRANCH   1  19
TORSDOF 9
ENDMDL
MODEL 4
REMARK VINA RESULT:      -7.0      1.641      5.598
REMARK  Name = 
REMARK  12 active torsions:
REMARK  status: ('A' for Active; 'I' for Inactive)
REMARK    1  A    between atoms: C_1  and  O_2
REMARK    2  A    between atoms: O_2  and  C_3
REMARK    3  A    between atoms: C_6  and  C_7
REMARK    4  A    between atoms: C_7  and  C_8
REMARK    5  A    between atoms: C_7  and  N_16
REMARK    6  A    between atoms: N_10  and  C_11
REMARK    7  A    between atoms: N_16  and  C_24
REMARK    8  A    between atoms: C_17  and  C_19
REMARK    9  A    between atoms: C_27  and  O_28
REMARK   10  A    between atoms: O_28  and  C_29
REMARK   11  A    between atoms: C_30  and  O_31
REMARK   12  A    between atoms: O_31  and  C_32
REMARK                            x       y       z     vdW  Elec       q    Type
REMARK                         _______ _______ _______ _____ _____    ______ ____
ROOT
ATOM      1  C   UNL     1      -0.156  11.548  19.171  0.00  0.00    +0.000 C 
ENDROOT
BRANCH   1   5
ATOM      2  C   UNL     1      -4.317  10.845  18.049  0.00  0.00    +0.000 A 
ATOM      3  C   UNL     1      -3.974  11.943  18.833  0.00  0.00    +0.000 A 
ATOM      4  C   UNL     1      -2.628  12.213  19.117  0.00  0.00    +0.000 A 
ATOM      5  C   UNL     1      -1.602  11.362  18.658  0.00  0.00    +0.000 A 
ATOM      6  C   UNL     1      -1.979  10.257  17.892  0.00  0.00    +0.000 A 
ATOM      7  C   UNL     1      -3.315   9.990  17.601  0.00  0.00    +0.000 A 
BRANCH   2   9
ATOM      8  C   UNL     1      -6.435  10.495  18.973  0.00  0.00    +0.000 C 
ATOM      9  O   UNL     1      -5.647  10.655  17.793  0.00  0.00    +0.000 OA
ENDBRANCH   2   9
ENDBRANCH   1   5
BRANCH   1  10
ATOM     10  C   UNL     1       0.349  12.947  18.678  0.00  0.00    +0.000 C 
ATOM     11  O   UNL     1      -0.370  13.766  18.104  0.00  0.00    +0.000 OA
ATOM     12  N   UNL     1       1.693  13.211  18.873  0.00  0.00    +0.000 N 
ATOM     13  H   UNL     1       2.293  12.520  19.304  0.00  0.00    +0.000 HD
BRANCH  12  14
ATOM     14  C   UNL     1       2.225  14.497  18.468  0.00  0.00    +0.000 C 
ATOM     15  C   UNL     1       2.069  15.574  19.528  0.00  0.00    +0.000 C 
ATOM     16  C   UNL     1       3.124  16.608  19.160  0.00  0.00    +0.000 C 
ATOM     17  C   UNL     1       4.228  15.856  18.418  0.00  0.00    +0.000 C 
ATOM     18  C   UNL     1       3.727  14.433  18.214  0.00  0.00    +0.000 C 
ENDBRANCH  12  14
ENDBRANCH   1  10
BRANCH   1  19
ATOM     19  N   UNL     1       0.035  11.251  20.640  0.00  0.00    +0.000 N 
ATOM     20  C   UNL     1       0.630  10.075  21.169  0.00  0.00    +0.000 C 
ATOM     21  O   UNL     1       0.672   9.913  22.399  0.00  0.00    +0.000 OA
BRANCH  19  22
ATOM     22  C   UNL     1      -0.634  12.113  21.595  0.00  0.00    +0.000 A 
ATOM     23  C   UNL     1      -0.095  13.347  21.947  0.00  0.00    +0.000 A 
ATOM     24  C   UNL     1      -0.743  14.174  22.865  0.00  0.00    +0.000 A 
ATOM     25  C   UNL     1      -1.934  13.778  23.476  0.00  0.00    +0.000 A 
ATOM     26  C   UNL     1      -2.459  12.507  23.202  0.00  0.00    +0.000 A 
ATOM     27  C   UNL     1      -1.790  11.686  22.276  0.00  0.00    +0.000 A 
BRANCH  25  28
ATOM     28  O   UNL     1      -2.404  14.699  24.376  0.00  0.00    +0.000 OA
ATOM     29  C   UNL     1      -2.915  15.912  23.843  0.00  0.00    +0.000 C 
ENDBRANCH  25  28
BRANCH  26  30
ATOM     30  O   UNL     1      -3.576  12.119  23.892  0.00  0.00    +0.000 OA
ATOM     31  C   UNL     1      -4.829  12.684  23.535  0.00  0.00    +0.000 C 
ENDBRANCH  26  30
ENDBRANCH  19  22
BRANCH  20  32
ATOM     32  C   UNL     1       1.250   9.047  20.345  0.00  0.00    +0.000 A 
ATOM     33  C   UNL     1       1.576   7.744  20.710  0.00  0.00    +0.000 A 
ATOM     34  C   UNL     1       2.184   7.129  19.592  0.00  0.00    +0.000 A 
ATOM     35  C   UNL     1       2.187   8.079  18.603  0.00  0.00    +0.000 A 
ATOM     36  O   UNL     1       1.624   9.238  19.047  0.00  0.00    +0.000 OA
ENDBRANCH  20  32
ENDBRANCH   1  19
TORSDOF 9
ENDMDL
MODEL 5
REMARK VINA RESULT:      -7.0      1.584      5.760
REMARK  Name = 
REMARK  12 active torsions:
REMARK  status: ('A' for Active; 'I' for Inactive)
REMARK    1  A    between atoms: C_1  and  O_2
REMARK    2  A    between atoms: O_2  and  C_3
REMARK    3  A    between atoms: C_6  and  C_7
REMARK    4  A    between atoms: C_7  and  C_8
REMARK    5  A    between atoms: C_7  and  N_16
REMARK    6  A    between atoms: N_10  and  C_11
REMARK    7  A    between atoms: N_16  and  C_24
REMARK    8  A    between atoms: C_17  and  C_19
REMARK    9  A    between atoms: C_27  and  O_28
REMARK   10  A    between atoms: O_28  and  C_29
REMARK   11  A    between atoms: C_30  and  O_31
REMARK   12  A    between atoms: O_31  and  C_32
REMARK                            x       y       z     vdW  Elec       q    Type
REMARK                         _______ _______ _______ _____ _____    ______ ____
ROOT
ATOM      1  C   UNL     1      -0.333  11.424  19.363  0.00  0.00    +0.000 C 
ENDROOT
BRANCH   1   5
ATOM      2  C   UNL     1      -4.489  11.182  18.047  0.00  0.00    +0.000 A 
ATOM      3  C   UNL     1      -3.552  10.259  17.593  0.00  0.00    +0.000 A 
ATOM      4  C   UNL     1      -2.239  10.288  18.086  0.00  0.00    +0.000 A 
ATOM      5  C   UNL     1      -1.830  11.270  19.010  0.00  0.00    +0.000 A 
ATOM      6  C   UNL     1      -2.788  12.195  19.431  0.00  0.00    +0.000 A 
ATOM      7  C   UNL     1      -4.095  12.164  18.949  0.00  0.00    +0.000 A 
BRANCH   2   9
ATOM      8  C   UNL     1      -6.743  10.799  18.533  0.00  0.00    +0.000 C 
ATOM      9  O   UNL     1      -5.756  11.081  17.541  0.00  0.00    +0.000 OA
ENDBRANCH   2   9
ENDBRANCH   1   5
BRANCH   1  10
ATOM     10  C   UNL     1       0.168  12.770  18.739  0.00  0.00    +0.000 C 
ATOM     11  O   UNL     1      -0.496  13.443  17.949  0.00  0.00    +0.000 OA
ATOM     12  N   UNL     1       1.452  13.158  19.081  0.00  0.00    +0.000 N 
ATOM     13  H   UNL     1       2.014  12.582  19.694  0.00  0.00    +0.000 HD
BRANCH  12  14
ATOM     14  C   UNL     1       1.973  14.408  18.564  0.00  0.00    +0.000 C 
ATOM     15  C   UNL     1       1.993  15.525  19.594  0.00  0.00    +0.000 C 
ATOM     16  C   UNL     1       3.028  16.503  19.056  0.00  0.00    +0.000 C 
ATOM     17  C   UNL     1       4.000  15.683  18.209  0.00  0.00    +0.000 C 
ATOM     18  C   UNL     1       3.427  14.276  18.124  0.00  0.00    +0.000 C 
ENDBRANCH  12  14
ENDBRANCH   1  10
BRANCH   1  19
ATOM     19  N   UNL     1      -0.003  11.203  20.821  0.00  0.00    +0.000 N 
ATOM     20  C   UNL     1       0.684  10.076  21.345  0.00  0.00    +0.000 C 
ATOM     21  O   UNL     1       0.840   9.973  22.572  0.00  0.00    +0.000 OA
BRANCH  19  22
ATOM     22  C   UNL     1      -0.623  12.081  21.794  0.00  0.00    +0.000 A 
ATOM     23  C   UNL     1      -1.766  11.693  22.484  0.00  0.00    +0.000 A 
ATOM     24  C   UNL     1      -2.358  12.541  23.421  0.00  0.00    +0.000 A 
ATOM     25  C   UNL     1      -1.837  13.811  23.674  0.00  0.00    +0.000 A 
ATOM     26  C   UNL     1      -0.732  14.261  22.936  0.00  0.00    +0.000 A 
ATOM     27  C   UNL     1      -0.152  13.393  21.994  0.00  0.00    +0.000 A 
BRANCH  25  28
ATOM     28  O   UNL     1      -2.570  14.516  24.593  0.00  0.00    +0.000 OA
ATOM     29  C   UNL     1      -3.742  15.162  24.118  0.00  0.00    +0.000 C 
ENDBRANCH  25  28
BRANCH  26  30
ATOM     30  O   UNL     1      -0.310  15.546  23.146  0.00  0.00    +0.000 OA
ATOM     31  C   UNL     1      -0.594  16.528  22.160  0.00  0.00    +0.000 C 
ENDBRANCH  26  30
ENDBRANCH  19  22
BRANCH  20  32
ATOM     32  C   UNL     1       1.274   9.036  20.513  0.00  0.00    +0.000 A 
ATOM     33  C   UNL     1       1.578   7.726  20.874  0.00  0.00    +0.000 A 
ATOM     34  C   UNL     1       2.161   7.100  19.750  0.00  0.00    +0.000 A 
ATOM     35  C   UNL     1       2.172   8.050  18.761  0.00  0.00    +0.000 A 
ATOM     36  O   UNL     1       1.638   9.219  19.211  0.00  0.00    +0.000 OA
ENDBRANCH  20  32
ENDBRANCH   1  19
TORSDOF 9
ENDMDL
MODEL 6
REMARK VINA RESULT:      -7.0      2.197      7.299
REMARK  Name = 
REMARK  12 active torsions:
REMARK  status: ('A' for Active; 'I' for Inactive)
REMARK    1  A    between atoms: C_1  and  O_2
REMARK    2  A    between atoms: O_2  and  C_3
REMARK    3  A    between atoms: C_6  and  C_7
REMARK    4  A    between atoms: C_7  and  C_8
REMARK    5  A    between atoms: C_7  and  N_16
REMARK    6  A    between atoms: N_10  and  C_11
REMARK    7  A    between atoms: N_16  and  C_24
REMARK    8  A    between atoms: C_17  and  C_19
REMARK    9  A    between atoms: C_27  and  O_28
REMARK   10  A    between atoms: O_28  and  C_29
REMARK   11  A    between atoms: C_30  and  O_31
REMARK   12  A    between atoms: O_31  and  C_32
REMARK                            x       y       z     vdW  Elec       q    Type
REMARK                         _______ _______ _______ _____ _____    ______ ____
ROOT
ATOM      1  C   UNL     1       0.566  12.627  19.852  0.00  0.00    +0.000 C 
ENDROOT
BRANCH   1   5
ATOM      2  C   UNL     1       1.318   8.400  20.649  0.00  0.00    +0.000 A 
ATOM      3  C   UNL     1       1.519   8.923  19.376  0.00  0.00    +0.000 A 
ATOM      4  C   UNL     1       1.360  10.298  19.145  0.00  0.00    +0.000 A 
ATOM      5  C   UNL     1       0.954  11.167  20.178  0.00  0.00    +0.000 A 
ATOM      6  C   UNL     1       0.740  10.608  21.440  0.00  0.00    +0.000 A 
ATOM      7  C   UNL     1       0.904   9.244  21.674  0.00  0.00    +0.000 A 
BRANCH   2   9
ATOM      8  C   UNL     1       2.302   6.471  19.770  0.00  0.00    +0.000 C 
ATOM      9  O   UNL     1       1.513   7.055  20.807  0.00  0.00    +0.000 OA
ENDBRANCH   2   9
ENDBRANCH   1   5
BRANCH   1  10
ATOM     10  C   UNL     1      -0.421  12.597  18.636  0.00  0.00    +0.000 C 
ATOM     11  O   UNL     1      -0.526  13.516  17.822  0.00  0.00    +0.000 OA
ATOM     12  N   UNL     1      -1.235  11.482  18.541  0.00  0.00    +0.000 N 
ATOM     13  H   UNL     1      -1.181  10.748  19.235  0.00  0.00    +0.000 HD
BRANCH  12  14
ATOM     14  C   UNL     1      -2.154  11.372  17.425  0.00  0.00    +0.000 C 
ATOM     15  C   UNL     1      -2.143  10.002  16.769  0.00  0.00    +0.000 C 
ATOM     16  C   UNL     1      -3.484   9.927  16.052  0.00  0.00    +0.000 C 
ATOM     17  C   UNL     1      -4.436  10.843  16.818  0.00  0.00    +0.000 C 
ATOM     18  C   UNL     1      -3.601  11.568  17.863  0.00  0.00    +0.000 C 
ENDBRANCH  12  14
ENDBRANCH   1  10
BRANCH   1  19
ATOM     19  N   UNL     1       0.128  13.444  21.045  0.00  0.00    +0.000 N 
ATOM     20  C   UNL     1       0.976  14.271  21.828  0.00  0.00    +0.000 C 
ATOM     21  O   UNL     1       0.515  14.845  22.828  0.00  0.00    +0.000 OA
BRANCH  19  22
ATOM     22  C   UNL     1      -1.198  13.202  21.579  0.00  0.00    +0.000 A 
ATOM     23  C   UNL     1      -1.388  12.368  22.675  0.00  0.00    +0.000 A 
ATOM     24  C   UNL     1      -2.666  12.140  23.187  0.00  0.00    +0.000 A 
ATOM     25  C   UNL     1      -3.791  12.720  22.599  0.00  0.00    +0.000 A 
ATOM     26  C   UNL     1      -3.639  13.502  21.445  0.00  0.00    +0.000 A 
ATOM     27  C   UNL     1      -2.344  13.717  20.942  0.00  0.00    +0.000 A 
BRANCH  25  28
ATOM     28  O   UNL     1      -4.962  12.353  23.211  0.00  0.00    +0.000 OA
ATOM     29  C   UNL     1      -4.971  12.357  24.631  0.00  0.00    +0.000 C 
ENDBRANCH  25  28
BRANCH  26  30
ATOM     30  O   UNL     1      -4.775  13.975  20.845  0.00  0.00    +0.000 OA
ATOM     31  C   UNL     1      -5.220  15.286  21.161  0.00  0.00    +0.000 C 
ENDBRANCH  26  30
ENDBRANCH  19  22
BRANCH  20  32
ATOM     32  C   UNL     1       2.371  14.534  21.499  0.00  0.00    +0.000 A 
ATOM     33  C   UNL     1       2.872  15.213  20.392  0.00  0.00    +0.000 A 
ATOM     34  C   UNL     1       4.282  15.191  20.483  0.00  0.00    +0.000 A 
ATOM     35  C   UNL     1       4.568  14.515  21.642  0.00  0.00    +0.000 A 
ATOM     36  O   UNL     1       3.422  14.116  22.262  0.00  0.00    +0.000 OA
ENDBRANCH  20  32
ENDBRANCH   1  19
TORSDOF 9
ENDMDL
MODEL 7
REMARK VINA RESULT:      -7.0      1.433      5.767
REMARK  Name = 
REMARK  12 active torsions:
REMARK  status: ('A' for Active; 'I' for Inactive)
REMARK    1  A    between atoms: C_1  and  O_2
REMARK    2  A    between atoms: O_2  and  C_3
REMARK    3  A    between atoms: C_6  and  C_7
REMARK    4  A    between atoms: C_7  and  C_8
REMARK    5  A    between atoms: C_7  and  N_16
REMARK    6  A    between atoms: N_10  and  C_11
REMARK    7  A    between atoms: N_16  and  C_24
REMARK    8  A    between atoms: C_17  and  C_19
REMARK    9  A    between atoms: C_27  and  O_28
REMARK   10  A    between atoms: O_28  and  C_29
REMARK   11  A    between atoms: C_30  and  O_31
REMARK   12  A    between atoms: O_31  and  C_32
REMARK                            x       y       z     vdW  Elec       q    Type
REMARK                         _______ _______ _______ _____ _____    ______ ____
ROOT
ATOM      1  C   UNL     1      -0.027  11.692  19.084  0.00  0.00    +0.000 C 
ENDROOT
BRANCH   1   5
ATOM      2  C   UNL     1      -4.148  10.793  17.954  0.00  0.00    +0.000 A 
ATOM      3  C   UNL     1      -3.863  11.882  18.773  0.00  0.00    +0.000 A 
ATOM      4  C   UNL     1      -2.532  12.218  19.061  0.00  0.00    +0.000 A 
ATOM      5  C   UNL     1      -1.463  11.442  18.570  0.00  0.00    +0.000 A 
ATOM      6  C   UNL     1      -1.782  10.343  17.769  0.00  0.00    +0.000 A 
ATOM      7  C   UNL     1      -3.102  10.012  17.474  0.00  0.00    +0.000 A 
BRANCH   2   9
ATOM      8  C   UNL     1      -6.329  10.841  18.793  0.00  0.00    +0.000 C 
ATOM      9  O   UNL     1      -5.467  10.538  17.696  0.00  0.00    +0.000 OA
ENDBRANCH   2   9
ENDBRANCH   1   5
BRANCH   1  10
ATOM     10  C   UNL     1       0.371  13.156  18.694  0.00  0.00    +0.000 C 
ATOM     11  O   UNL     1      -0.429  13.986  18.260  0.00  0.00    +0.000 OA
ATOM     12  N   UNL     1       1.713  13.473  18.812  0.00  0.00    +0.000 N 
ATOM     13  H   UNL     1       2.377  12.777  19.127  0.00  0.00    +0.000 HD
BRANCH  12  14
ATOM     14  C   UNL     1       2.150  14.818  18.497  0.00  0.00    +0.000 C 
ATOM     15  C   UNL     1       2.187  15.739  19.705  0.00  0.00    +0.000 C 
ATOM     16  C   UNL     1       3.146  16.847  19.295  0.00  0.00    +0.000 C 
ATOM     17  C   UNL     1       4.098  16.237  18.267  0.00  0.00    +0.000 C 
ATOM     18  C   UNL     1       3.579  14.838  17.966  0.00  0.00    +0.000 C 
ENDBRANCH  12  14
ENDBRANCH   1  10
BRANCH   1  19
ATOM     19  N   UNL     1       0.204  11.300  20.525  0.00  0.00    +0.000 N 
ATOM     20  C   UNL     1       0.806  10.090  20.960  0.00  0.00    +0.000 C 
ATOM     21  O   UNL     1       0.883   9.849  22.174  0.00  0.00    +0.000 OA
BRANCH  19  22
ATOM     22  C   UNL     1      -0.432  12.102  21.553  0.00  0.00    +0.000 A 
ATOM     23  C   UNL     1      -1.616  11.688  22.154  0.00  0.00    +0.000 A 
ATOM     24  C   UNL     1      -2.222  12.462  23.143  0.00  0.00    +0.000 A 
ATOM     25  C   UNL     1      -1.675  13.683  23.540  0.00  0.00    +0.000 A 
ATOM     26  C   UNL     1      -0.526  14.164  22.896  0.00  0.00    +0.000 A 
ATOM     27  C   UNL     1       0.069  13.372  21.899  0.00  0.00    +0.000 A 
BRANCH  25  28
ATOM     28  O   UNL     1      -2.427  14.321  24.492  0.00  0.00    +0.000 OA
ATOM     29  C   UNL     1      -3.737  14.719  24.114  0.00  0.00    +0.000 C 
ENDBRANCH  25  28
BRANCH  26  30
ATOM     30  O   UNL     1      -0.075  15.408  23.247  0.00  0.00    +0.000 OA
ATOM     31  C   UNL     1      -0.455  16.521  22.452  0.00  0.00    +0.000 C 
ENDBRANCH  26  30
ENDBRANCH  19  22
BRANCH  20  32
ATOM     32  C   UNL     1       1.396   9.114  20.053  0.00  0.00    +0.000 A 
ATOM     33  C   UNL     1       1.611   9.244  18.684  0.00  0.00    +0.000 A 
ATOM     34  C   UNL     1       2.177   8.033  18.226  0.00  0.00    +0.000 A 
ATOM     35  C   UNL     1       2.289   7.234  19.335  0.00  0.00    +0.000 A 
ATOM     36  O   UNL     1       1.823   7.878  20.441  0.00  0.00    +0.000 OA
ENDBRANCH  20  32
ENDBRANCH   1  19
TORSDOF 9
ENDMDL
MODEL 8
REMARK VINA RESULT:      -7.0      2.285      4.594
REMARK  Name = 
REMARK  12 active torsions:
REMARK  status: ('A' for Active; 'I' for Inactive)
REMARK    1  A    between atoms: C_1  and  O_2
REMARK    2  A    between atoms: O_2  and  C_3
REMARK    3  A    between atoms: C_6  and  C_7
REMARK    4  A    between atoms: C_7  and  C_8
REMARK    5  A    between atoms: C_7  and  N_16
REMARK    6  A    between atoms: N_10  and  C_11
REMARK    7  A    between atoms: N_16  and  C_24
REMARK    8  A    between atoms: C_17  and  C_19
REMARK    9  A    between atoms: C_27  and  O_28
REMARK   10  A    between atoms: O_28  and  C_29
REMARK   11  A    between atoms: C_30  and  O_31
REMARK   12  A    between atoms: O_31  and  C_32
REMARK                            x       y       z     vdW  Elec       q    Type
REMARK                         _______ _______ _______ _____ _____    ______ ____
ROOT
ATOM      1  C   UNL     1      -2.147  12.686  19.091  0.00  0.00    +0.000 C 
ENDROOT
BRANCH   1   5
ATOM      2  C   UNL     1      -3.343  12.785  23.289  0.00  0.00    +0.000 A 
ATOM      3  C   UNL     1      -2.019  12.538  22.939  0.00  0.00    +0.000 A 
ATOM      4  C   UNL     1      -1.623  12.594  21.595  0.00  0.00    +0.000 A 
ATOM      5  C   UNL     1      -2.557  12.855  20.571  0.00  0.00    +0.000 A 
ATOM      6  C   UNL     1      -3.882  13.077  20.953  0.00  0.00    +0.000 A 
ATOM      7  C   UNL     1      -4.277  13.030  22.288  0.00  0.00    +0.000 A 
BRANCH   2   9
ATOM      8  C   UNL     1      -4.986  12.289  24.876  0.00  0.00    +0.000 C 
ATOM      9  O   UNL     1      -3.654  12.737  24.621  0.00  0.00    +0.000 OA
ENDBRANCH   2   9
ENDBRANCH   1   5
BRANCH   1  10
ATOM     10  C   UNL     1      -0.816  13.481  18.871  0.00  0.00    +0.000 C 
ATOM     11  O   UNL     1       0.259  12.946  18.594  0.00  0.00    +0.000 OA
ATOM     12  N   UNL     1      -0.887  14.850  19.058  0.00  0.00    +0.000 N 
ATOM     13  H   UNL     1      -1.761  15.285  19.330  0.00  0.00    +0.000 HD
BRANCH  12  14
ATOM     14  C   UNL     1       0.299  15.655  18.844  0.00  0.00    +0.000 C 
ATOM     15  C   UNL     1       0.008  16.992  18.183  0.00  0.00    +0.000 C 
ATOM     16  C   UNL     1       1.211  17.852  18.548  0.00  0.00    +0.000 C 
ATOM     17  C   UNL     1       1.756  17.298  19.863  0.00  0.00    +0.000 C 
ATOM     18  C   UNL     1       0.976  16.025  20.159  0.00  0.00    +0.000 C 
ENDBRANCH  12  14
ENDBRANCH   1  10
BRANCH   1  19
ATOM     19  N   UNL     1      -2.162  11.260  18.592  0.00  0.00    +0.000 N 
ATOM     20  C   UNL     1      -3.310  10.565  18.128  0.00  0.00    +0.000 C 
ATOM     21  O   UNL     1      -3.211   9.371  17.804  0.00  0.00    +0.000 OA
BRANCH  19  22
ATOM     22  C   UNL     1      -0.973  10.458  18.805  0.00  0.00    +0.000 A 
ATOM     23  C   UNL     1      -0.210  10.008  17.733  0.00  0.00    +0.000 A 
ATOM     24  C   UNL     1       0.934   9.238  17.944  0.00  0.00    +0.000 A 
ATOM     25  C   UNL     1       1.331   8.874  19.231  0.00  0.00    +0.000 A 
ATOM     26  C   UNL     1       0.538   9.245  20.327  0.00  0.00    +0.000 A 
ATOM     27  C   UNL     1      -0.614  10.018  20.094  0.00  0.00    +0.000 A 
BRANCH  25  28
ATOM     28  O   UNL     1       2.453   8.086  19.242  0.00  0.00    +0.000 OA
ATOM     29  C   UNL     1       2.948   7.660  17.980  0.00  0.00    +0.000 C 
ENDBRANCH  25  28
BRANCH  26  30
ATOM     30  O   UNL     1       0.909   8.789  21.562  0.00  0.00    +0.000 OA
ATOM     31  C   UNL     1       0.323   9.381  22.713  0.00  0.00    +0.000 C 
ENDBRANCH  26  30
ENDBRANCH  19  22
BRANCH  20  32
ATOM     32  C   UNL     1      -4.615  11.190  17.960  0.00  0.00    +0.000 A 
ATOM     33  C   UNL     1      -5.026  12.045  16.941  0.00  0.00    +0.000 A 
ATOM     34  C   UNL     1      -6.360  12.421  17.213  0.00  0.00    +0.000 A 
ATOM     35  C   UNL     1      -6.699  11.770  18.372  0.00  0.00    +0.000 A 
ATOM     36  O   UNL     1      -5.654  11.024  18.828  0.00  0.00    +0.000 OA
ENDBRANCH  20  32
ENDBRANCH   1  19
TORSDOF 9
ENDMDL
MODEL 9
REMARK VINA RESULT:      -7.0      1.681      5.661
REMARK  Name = 
REMARK  12 active torsions:
REMARK  status: ('A' for Active; 'I' for Inactive)
REMARK    1  A    between atoms: C_1  and  O_2
REMARK    2  A    between atoms: O_2  and  C_3
REMARK    3  A    between atoms: C_6  and  C_7
REMARK    4  A    between atoms: C_7  and  C_8
REMARK    5  A    between atoms: C_7  and  N_16
REMARK    6  A    between atoms: N_10  and  C_11
REMARK    7  A    between atoms: N_16  and  C_24
REMARK    8  A    between atoms: C_17  and  C_19
REMARK    9  A    between atoms: C_27  and  O_28
REMARK   10  A    between atoms: O_28  and  C_29
REMARK   11  A    between atoms: C_30  and  O_31
REMARK   12  A    between atoms: O_31  and  C_32
REMARK                            x       y       z     vdW  Elec       q    Type
REMARK                         _______ _______ _______ _____ _____    ______ ____
ROOT
ATOM      1  C   UNL     1      -0.335  11.455  19.469  0.00  0.00    +0.000 C 
ENDROOT
BRANCH   1   5
ATOM      2  C   UNL     1      -4.427  11.107  17.985  0.00  0.00    +0.000 A 
ATOM      3  C   UNL     1      -3.448  10.209  17.570  0.00  0.00    +0.000 A 
ATOM      4  C   UNL     1      -2.158  10.271  18.116  0.00  0.00    +0.000 A 
ATOM      5  C   UNL     1      -1.811  11.263  19.056  0.00  0.00    +0.000 A 
ATOM      6  C   UNL     1      -2.810  12.162  19.437  0.00  0.00    +0.000 A 
ATOM      7  C   UNL     1      -4.095  12.098  18.903  0.00  0.00    +0.000 A 
BRANCH   2   9
ATOM      8  C   UNL     1      -6.732  11.264  18.336  0.00  0.00    +0.000 C 
ATOM      9  O   UNL     1      -5.669  10.974  17.428  0.00  0.00    +0.000 OA
ENDBRANCH   2   9
ENDBRANCH   1   5
BRANCH   1  10
ATOM     10  C   UNL     1       0.176  12.781  18.811  0.00  0.00    +0.000 C 
ATOM     11  O   UNL     1      -0.518  13.490  18.081  0.00  0.00    +0.000 OA
ATOM     12  N   UNL     1       1.499  13.108  19.050  0.00  0.00    +0.000 N 
ATOM     13  H   UNL     1       2.082  12.502  19.614  0.00  0.00    +0.000 HD
BRANCH  12  14
ATOM     14  C   UNL     1       2.034  14.336  18.497  0.00  0.00    +0.000 C 
ATOM     15  C   UNL     1       1.927  15.520  19.445  0.00  0.00    +0.000 C 
ATOM     16  C   UNL     1       2.982  16.493  18.937  0.00  0.00    +0.000 C 
ATOM     17  C   UNL     1       4.051  15.651  18.244  0.00  0.00    +0.000 C 
ATOM     18  C   UNL     1       3.526  14.223  18.205  0.00  0.00    +0.000 C 
ENDBRANCH  12  14
ENDBRANCH   1  10
BRANCH   1  19
ATOM     19  N   UNL     1      -0.070  11.300  20.949  0.00  0.00    +0.000 N 
ATOM     20  C   UNL     1       0.559  10.182  21.557  0.00  0.00    +0.000 C 
ATOM     21  O   UNL     1       0.664  10.137  22.793  0.00  0.00    +0.000 OA
BRANCH  19  22
ATOM     22  C   UNL     1      -0.697  12.247  21.850  0.00  0.00    +0.000 A 
ATOM     23  C   UNL     1      -0.125  13.492  22.092  0.00  0.00    +0.000 A 
ATOM     24  C   UNL     1      -0.732  14.401  22.959  0.00  0.00    +0.000 A 
ATOM     25  C   UNL     1      -1.915  14.080  23.626  0.00  0.00    +0.000 A 
ATOM     26  C   UNL     1      -2.473  12.804  23.463  0.00  0.00    +0.000 A 
ATOM     27  C   UNL     1      -1.844  11.899  22.589  0.00  0.00    +0.000 A 
BRANCH  25  28
ATOM     28  O   UNL     1      -2.343  15.077  24.463  0.00  0.00    +0.000 OA
ATOM     29  C   UNL     1      -3.094  16.130  23.874  0.00  0.00    +0.000 C 
ENDBRANCH  25  28
BRANCH  26  30
ATOM     30  O   UNL     1      -3.579  12.495  24.207  0.00  0.00    +0.000 OA
ATOM     31  C   UNL     1      -4.862  12.817  23.690  0.00  0.00    +0.000 C 
ENDBRANCH  26  30
ENDBRANCH  19  22
BRANCH  20  32
ATOM     32  C   UNL     1       1.145   9.080  20.804  0.00  0.00    +0.000 A 
ATOM     33  C   UNL     1       1.579   9.089  19.481  0.00  0.00    +0.000 A 
ATOM     34  C   UNL     1       2.043   7.789  19.179  0.00  0.00    +0.000 A 
ATOM     35  C   UNL     1       1.882   7.060  20.330  0.00  0.00    +0.000 A 
ATOM     36  O   UNL     1       1.343   7.831  21.315  0.00  0.00    +0.000 OA
ENDBRANCH  20  32
ENDBRANCH   1  19
TORSDOF 9
ENDMDL
