MODEL 1
REMARK VINA RESULT:      -9.2      0.000      0.000
REMARK  Name = 
REMARK  5 active torsions:
REMARK  status: ('A' for Active; 'I' for Inactive)
REMARK    1  A    between atoms: C_2  and  C_17
REMARK    2  A    between atoms: N_3  and  C_4
REMARK    3  A    between atoms: C_4  and  C_5
REMARK    4  A    between atoms: C_5  and  N_6
REMARK    5  A    between atoms: N_21  and  C_22
REMARK                            x       y       z     vdW  Elec       q    Type
REMARK                         _______ _______ _______ _____ _____    ______ ____
ROOT
ATOM      1  O   UNL     1       3.949   1.905  18.060  0.00  0.00    +0.000 OA
ATOM      2  C   UNL     1       4.129   3.061  18.442  0.00  0.00    +0.000 C 
ATOM      3  N   UNL     1       4.608   4.045  17.610  0.00  0.00    +0.000 N 
ATOM      4  H   UNL     1       4.873   4.958  17.968  0.00  0.00    +0.000 HD
ENDROOT
BRANCH   2   5
ATOM      5  C   UNL     1       3.834   3.441  19.893  0.00  0.00    +0.000 C 
ATOM      6  C   UNL     1       2.454   3.040  20.380  0.00  0.00    +0.000 C 
ATOM      7  C   UNL     1       1.623   4.286  20.176  0.00  0.00    +0.000 C 
ATOM      8  O   UNL     1       0.405   4.284  20.248  0.00  0.00    +0.000 OA
ATOM      9  N   UNL     1       2.498   5.352  19.907  0.00  0.00    +0.000 N 
ATOM     10  C   UNL     1       3.871   4.936  20.091  0.00  0.00    +0.000 C 
BRANCH   9  11
ATOM     11  C   UNL     1       2.134   6.692  19.601  0.00  0.00    +0.000 A 
ATOM     12  C   UNL     1       2.307   7.229  18.318  0.00  0.00    +0.000 A 
ATOM     13  C   UNL     1       1.958   8.556  18.038  0.00  0.00    +0.000 A 
ATOM     14  C   UNL     1       1.452   9.377  19.037  0.00  0.00    +0.000 A 
ATOM     15  C   UNL     1       1.265   8.856  20.316  0.00  0.00    +0.000 A 
ATOM     16  C   UNL     1       1.605   7.530  20.594  0.00  0.00    +0.000 A 
ATOM     17  O   UNL     1       0.776   9.590  21.366  0.00  0.00    +0.000 OA
ATOM     18  C   UNL     1       0.127  10.778  20.902  0.00  0.00    +0.000 C 
ATOM     19  C   UNL     1       0.981  11.487  19.865  0.00  0.00    +0.000 C 
ATOM     20  O   UNL     1       1.157  10.672  18.702  0.00  0.00    +0.000 OA
ENDBRANCH   9  11
ENDBRANCH   2   5
BRANCH   3  21
ATOM     21  C   UNL     1       5.050   3.762  16.241  0.00  0.00    +0.000 C 
BRANCH  21  22
ATOM     22  C   UNL     1       6.044   4.853  15.674  0.00  0.00    +0.000 C 
ATOM     23  C   UNL     1       5.569   6.275  16.132  0.00  0.00    +0.000 C 
ATOM     24  C   UNL     1       5.798   6.625  17.600  0.00  0.00    +0.000 C 
ATOM     25  C   UNL     1       7.221   6.326  18.041  0.00  0.00    +0.000 C 
ATOM     26  C   UNL     1       7.549   4.861  17.798  0.00  0.00    +0.000 C 
ATOM     27  C   UNL     1       7.445   4.537  16.305  0.00  0.00    +0.000 C 
BRANCH  22  28
ATOM     28  N   UNL     1       6.078   4.756  14.149  0.00  0.00    +0.000 NA
ATOM     29  C   UNL     1       7.442   4.936  13.595  0.00  0.00    +0.000 C 
ATOM     30  C   UNL     1       7.492   4.858  12.069  0.00  0.00    +0.000 C 
ATOM     31  C   UNL     1       6.954   3.525  11.580  0.00  0.00    +0.000 C 
ATOM     32  C   UNL     1       5.541   3.349  12.103  0.00  0.00    +0.000 C 
ATOM     33  C   UNL     1       5.475   3.506  13.625  0.00  0.00    +0.000 C 
ENDBRANCH  22  28
ENDBRANCH  21  22
ENDBRANCH   3  21
TORSDOF 5
ENDMDL
MODEL 2
REMARK VINA RESULT:      -9.1      3.334      5.728
REMARK  Name = 
REMARK  5 active torsions:
REMARK  status: ('A' for Active; 'I' for Inactive)
REMARK    1  A    between atoms: C_2  and  C_17
REMARK    2  A    between atoms: N_3  and  C_4
REMARK    3  A    between atoms: C_4  and  C_5
REMARK    4  A    between atoms: C_5  and  N_6
REMARK    5  A    between atoms: N_21  and  C_22
REMARK                            x       y       z     vdW  Elec       q    Type
REMARK                         _______ _______ _______ _____ _____    ______ ____
ROOT
ATOM      1  O   UNL     1       2.518   8.637  17.045  0.00  0.00    +0.000 OA
ATOM      2  C   UNL     1       2.268   8.448  18.236  0.00  0.00    +0.000 C 
ATOM      3  N   UNL     1       2.195   7.188  18.781  0.00  0.00    +0.000 N 
ATOM      4  H   UNL     1       1.864   7.040  19.730  0.00  0.00    +0.000 HD
ENDROOT
BRANCH   2   5
ATOM      5  C   UNL     1       2.010   9.637  19.160  0.00  0.00    +0.000 C 
ATOM      6  C   UNL     1       1.435   9.267  20.515  0.00  0.00    +0.000 C 
ATOM      7  C   UNL     1      -0.055   9.437  20.335  0.00  0.00    +0.000 C 
ATOM      8  O   UNL     1      -0.868   9.020  21.145  0.00  0.00    +0.000 OA
ATOM      9  N   UNL     1      -0.271  10.123  19.129  0.00  0.00    +0.000 N 
ATOM     10  C   UNL     1       0.985  10.578  18.574  0.00  0.00    +0.000 C 
BRANCH   9  11
ATOM     11  C   UNL     1      -1.529  10.444  18.549  0.00  0.00    +0.000 A 
ATOM     12  C   UNL     1      -1.935   9.905  17.320  0.00  0.00    +0.000 A 
ATOM     13  C   UNL     1      -3.170  10.244  16.755  0.00  0.00    +0.000 A 
ATOM     14  C   UNL     1      -4.012  11.145  17.393  0.00  0.00    +0.000 A 
ATOM     15  C   UNL     1      -3.629  11.683  18.620  0.00  0.00    +0.000 A 
ATOM     16  C   UNL     1      -2.400  11.339  19.188  0.00  0.00    +0.000 A 
ATOM     17  O   UNL     1      -4.391  12.581  19.322  0.00  0.00    +0.000 OA
ATOM     18  C   UNL     1      -5.745  12.576  18.859  0.00  0.00    +0.000 C 
ATOM     19  C   UNL     1      -5.794  12.623  17.341  0.00  0.00    +0.000 C 
ATOM     20  O   UNL     1      -5.194  11.454  16.773  0.00  0.00    +0.000 OA
ENDBRANCH   9  11
ENDBRANCH   2   5
BRANCH   3  21
ATOM     21  C   UNL     1       2.293   5.976  17.961  0.00  0.00    +0.000 C 
BRANCH  21  22
ATOM     22  C   UNL     1       3.287   4.903  18.560  0.00  0.00    +0.000 C 
ATOM     23  C   UNL     1       3.158   4.891  20.122  0.00  0.00    +0.000 C 
ATOM     24  C   UNL     1       1.896   4.249  20.693  0.00  0.00    +0.000 C 
ATOM     25  C   UNL     1       1.628   2.882  20.085  0.00  0.00    +0.000 C 
ATOM     26  C   UNL     1       1.518   2.992  18.572  0.00  0.00    +0.000 C 
ATOM     27  C   UNL     1       2.831   3.516  17.984  0.00  0.00    +0.000 C 
BRANCH  22  28
ATOM     28  N   UNL     1       4.713   5.247  18.135  0.00  0.00    +0.000 NA
ATOM     29  C   UNL     1       5.676   5.189  19.262  0.00  0.00    +0.000 C 
ATOM     30  C   UNL     1       7.107   5.547  18.858  0.00  0.00    +0.000 C 
ATOM     31  C   UNL     1       7.603   4.621  17.762  0.00  0.00    +0.000 C 
ATOM     32  C   UNL     1       6.652   4.706  16.584  0.00  0.00    +0.000 C 
ATOM     33  C   UNL     1       5.205   4.426  17.001  0.00  0.00    +0.000 C 
ENDBRANCH  22  28
ENDBRANCH  21  22
ENDBRANCH   3  21
TORSDOF 5
ENDMDL
MODEL 3
REMARK VINA RESULT:      -9.1      2.780      5.722
REMARK  Name = 
REMARK  5 active torsions:
REMARK  status: ('A' for Active; 'I' for Inactive)
REMARK    1  A    between atoms: C_2  and  C_17
REMARK    2  A    between atoms: N_3  and  C_4
REMARK    3  A    between atoms: C_4  and  C_5
REMARK    4  A    between atoms: C_5  and  N_6
REMARK    5  A    between atoms: N_21  and  C_22
REMARK                            x       y       z     vdW  Elec       q    Type
REMARK                         _______ _______ _______ _____ _____    ______ ____
ROOT
ATOM      1  O   UNL     1       1.645   8.212  20.252  0.00  0.00    +0.000 OA
ATOM      2  C   UNL     1       1.854   8.224  19.039  0.00  0.00    +0.000 C 
ATOM      3  N   UNL     1       2.631   7.276  18.416  0.00  0.00    +0.000 N 
ATOM      4  H   UNL     1       2.900   7.370  17.441  0.00  0.00    +0.000 HD
ENDROOT
BRANCH   2   5
ATOM      5  C   UNL     1       1.256   9.331  18.173  0.00  0.00    +0.000 C 
ATOM      6  C   UNL     1       2.076  10.608  18.127  0.00  0.00    +0.000 C 
ATOM      7  C   UNL     1       1.447  11.480  19.189  0.00  0.00    +0.000 C 
ATOM      8  O   UNL     1       1.974  12.502  19.598  0.00  0.00    +0.000 OA
ATOM      9  N   UNL     1       0.227  10.894  19.565  0.00  0.00    +0.000 N 
ATOM     10  C   UNL     1      -0.086   9.779  18.698  0.00  0.00    +0.000 C 
BRANCH   9  11
ATOM     11  C   UNL     1      -0.661  11.358  20.574  0.00  0.00    +0.000 A 
ATOM     12  C   UNL     1      -0.504  10.996  21.919  0.00  0.00    +0.000 A 
ATOM     13  C   UNL     1      -1.398  11.448  22.897  0.00  0.00    +0.000 A 
ATOM     14  C   UNL     1      -2.476  12.251  22.549  0.00  0.00    +0.000 A 
ATOM     15  C   UNL     1      -2.641  12.629  21.218  0.00  0.00    +0.000 A 
ATOM     16  C   UNL     1      -1.745  12.184  20.242  0.00  0.00    +0.000 A 
ATOM     17  O   UNL     1      -3.675  13.414  20.778  0.00  0.00    +0.000 OA
ATOM     18  C   UNL     1      -4.295  14.102  21.869  0.00  0.00    +0.000 C 
ATOM     19  C   UNL     1      -4.554  13.152  23.026  0.00  0.00    +0.000 C 
ATOM     20  O   UNL     1      -3.327  12.636  23.551  0.00  0.00    +0.000 OA
ENDBRANCH   9  11
ENDBRANCH   2   5
BRANCH   3  21
ATOM     21  C   UNL     1       3.362   6.251  19.167  0.00  0.00    +0.000 C 
BRANCH  21  22
ATOM     22  C   UNL     1       3.603   4.928  18.334  0.00  0.00    +0.000 C 
ATOM     23  C   UNL     1       4.166   3.814  19.281  0.00  0.00    +0.000 C 
ATOM     24  C   UNL     1       3.171   3.188  20.256  0.00  0.00    +0.000 C 
ATOM     25  C   UNL     1       1.889   2.758  19.564  0.00  0.00    +0.000 C 
ATOM     26  C   UNL     1       1.250   3.944  18.858  0.00  0.00    +0.000 C 
ATOM     27  C   UNL     1       2.197   4.495  17.788  0.00  0.00    +0.000 C 
BRANCH  22  28
ATOM     28  N   UNL     1       4.582   5.222  17.198  0.00  0.00    +0.000 NA
ATOM     29  C   UNL     1       5.914   5.650  17.688  0.00  0.00    +0.000 C 
ATOM     30  C   UNL     1       6.903   5.964  16.564  0.00  0.00    +0.000 C 
ATOM     31  C   UNL     1       7.094   4.757  15.664  0.00  0.00    +0.000 C 
ATOM     32  C   UNL     1       5.743   4.336  15.119  0.00  0.00    +0.000 C 
ATOM     33  C   UNL     1       4.727   4.098  16.240  0.00  0.00    +0.000 C 
ENDBRANCH  22  28
ENDBRANCH  21  22
ENDBRANCH   3  21
TORSDOF 5
ENDMDL
MODEL 4
REMARK VINA RESULT:      -8.9      2.725      5.823
REMARK  Name = 
REMARK  5 active torsions:
REMARK  status: ('A' for Active; 'I' for Inactive)
REMARK    1  A    between atoms: C_2  and  C_17
REMARK    2  A    between atoms: N_3  and  C_4
REMARK    3  A    between atoms: C_4  and  C_5
REMARK    4  A    between atoms: C_5  and  N_6
REMARK    5  A    between atoms: N_21  and  C_22
REMARK                            x       y       z     vdW  Elec       q    Type
REMARK                         _______ _______ _______ _____ _____    ______ ____
ROOT
ATOM      1  O   UNL     1       1.550   8.508  20.142  0.00  0.00    +0.000 OA
ATOM      2  C   UNL     1       1.815   8.315  18.955  0.00  0.00    +0.000 C 
ATOM      3  N   UNL     1       2.430   7.168  18.516  0.00  0.00    +0.000 N 
ATOM      4  H   UNL     1       2.758   7.076  17.558  0.00  0.00    +0.000 HD
ENDROOT
BRANCH   2   5
ATOM      5  C   UNL     1       1.474   9.380  17.914  0.00  0.00    +0.000 C 
ATOM      6  C   UNL     1       2.293  10.654  18.025  0.00  0.00    +0.000 C 
ATOM      7  C   UNL     1       1.421  11.574  18.847  0.00  0.00    +0.000 C 
ATOM      8  O   UNL     1       1.835  12.614  19.333  0.00  0.00    +0.000 OA
ATOM      9  N   UNL     1       0.138  11.006  18.920  0.00  0.00    +0.000 N 
ATOM     10  C   UNL     1       0.047   9.852  18.053  0.00  0.00    +0.000 C 
BRANCH   9  11
ATOM     11  C   UNL     1      -0.976  11.516  19.642  0.00  0.00    +0.000 A 
ATOM     12  C   UNL     1      -2.104  12.031  18.990  0.00  0.00    +0.000 A 
ATOM     13  C   UNL     1      -3.186  12.545  19.716  0.00  0.00    +0.000 A 
ATOM     14  C   UNL     1      -3.152  12.575  21.104  0.00  0.00    +0.000 A 
ATOM     15  C   UNL     1      -2.041  12.057  21.768  0.00  0.00    +0.000 A 
ATOM     16  C   UNL     1      -0.965  11.537  21.045  0.00  0.00    +0.000 A 
ATOM     17  O   UNL     1      -1.915  12.046  23.134  0.00  0.00    +0.000 OA
ATOM     18  C   UNL     1      -3.184  12.244  23.766  0.00  0.00    +0.000 C 
ATOM     19  C   UNL     1      -3.932  13.399  23.122  0.00  0.00    +0.000 C 
ATOM     20  O   UNL     1      -4.232  13.114  21.751  0.00  0.00    +0.000 OA
ENDBRANCH   9  11
ENDBRANCH   2   5
BRANCH   3  21
ATOM     21  C   UNL     1       2.922   6.142  19.441  0.00  0.00    +0.000 C 
BRANCH  21  22
ATOM     22  C   UNL     1       3.482   4.860  18.704  0.00  0.00    +0.000 C 
ATOM     23  C   UNL     1       3.754   3.733  19.758  0.00  0.00    +0.000 C 
ATOM     24  C   UNL     1       2.525   3.037  20.338  0.00  0.00    +0.000 C 
ATOM     25  C   UNL     1       1.561   2.587  19.253  0.00  0.00    +0.000 C 
ATOM     26  C   UNL     1       1.134   3.774  18.403  0.00  0.00    +0.000 C 
ATOM     27  C   UNL     1       2.353   4.397  17.717  0.00  0.00    +0.000 C 
BRANCH  22  28
ATOM     28  N   UNL     1       4.764   5.230  17.960  0.00  0.00    +0.000 NA
ATOM     29  C   UNL     1       5.988   4.862  18.712  0.00  0.00    +0.000 C 
ATOM     30  C   UNL     1       7.282   5.239  17.988  0.00  0.00    +0.000 C 
ATOM     31  C   UNL     1       7.347   4.578  16.624  0.00  0.00    +0.000 C 
ATOM     32  C   UNL     1       6.123   4.982  15.826  0.00  0.00    +0.000 C 
ATOM     33  C   UNL     1       4.826   4.679  16.583  0.00  0.00    +0.000 C 
ENDBRANCH  22  28
ENDBRANCH  21  22
ENDBRANCH   3  21
TORSDOF 5
ENDMDL
MODEL 5
REMARK VINA RESULT:      -8.9      2.741      6.111
REMARK  Name = 
REMARK  5 active torsions:
REMARK  status: ('A' for Active; 'I' for Inactive)
REMARK    1  A    between atoms: C_2  and  C_17
REMARK    2  A    between atoms: N_3  and  C_4
REMARK    3  A    between atoms: C_4  and  C_5
REMARK    4  A    between atoms: C_5  and  N_6
REMARK    5  A    between atoms: N_21  and  C_22
REMARK                            x       y       z     vdW  Elec       q    Type
REMARK                         _______ _______ _______ _____ _____    ______ ____
ROOT
ATOM      1  O   UNL     1       1.875   8.014  19.926  0.00  0.00    +0.000 OA
ATOM      2  C   UNL     1       2.176   8.230  18.752  0.00  0.00    +0.000 C 
ATOM      3  N   UNL     1       3.197   7.562  18.120  0.00  0.00    +0.000 N 
ATOM      4  H   UNL     1       3.519   7.838  17.196  0.00  0.00    +0.000 HD
ENDROOT
BRANCH   2   5
ATOM      5  C   UNL     1       1.416   9.286  17.952  0.00  0.00    +0.000 C 
ATOM      6  C   UNL     1       2.126  10.624  17.841  0.00  0.00    +0.000 C 
ATOM      7  C   UNL     1       1.529  11.443  18.962  0.00  0.00    +0.000 C 
ATOM      8  O   UNL     1       2.008  12.504  19.329  0.00  0.00    +0.000 OA
ATOM      9  N   UNL     1       0.398  10.763  19.442  0.00  0.00    +0.000 N 
ATOM     10  C   UNL     1       0.096   9.626  18.599  0.00  0.00    +0.000 C 
BRANCH   9  11
ATOM     11  C   UNL     1      -0.429  11.155  20.530  0.00  0.00    +0.000 A 
ATOM     12  C   UNL     1      -0.242  10.644  21.822  0.00  0.00    +0.000 A 
ATOM     13  C   UNL     1      -1.076  11.028  22.878  0.00  0.00    +0.000 A 
ATOM     14  C   UNL     1      -2.126  11.911  22.661  0.00  0.00    +0.000 A 
ATOM     15  C   UNL     1      -2.321  12.436  21.386  0.00  0.00    +0.000 A 
ATOM     16  C   UNL     1      -1.484  12.059  20.333  0.00  0.00    +0.000 A 
ATOM     17  O   UNL     1      -3.331  13.310  21.075  0.00  0.00    +0.000 OA
ATOM     18  C   UNL     1      -3.876  13.903  22.257  0.00  0.00    +0.000 C 
ATOM     19  C   UNL     1      -4.139  12.847  23.317  0.00  0.00    +0.000 C 
ATOM     20  O   UNL     1      -2.920  12.224  23.733  0.00  0.00    +0.000 OA
ENDBRANCH   9  11
ENDBRANCH   2   5
BRANCH   3  21
ATOM     21  C   UNL     1       4.077   6.628  18.830  0.00  0.00    +0.000 C 
BRANCH  21  22
ATOM     22  C   UNL     1       4.010   5.157  18.256  0.00  0.00    +0.000 C 
ATOM     23  C   UNL     1       4.162   5.201  16.696  0.00  0.00    +0.000 C 
ATOM     24  C   UNL     1       5.561   5.498  16.161  0.00  0.00    +0.000 C 
ATOM     25  C   UNL     1       6.618   4.626  16.815  0.00  0.00    +0.000 C 
ATOM     26  C   UNL     1       6.589   4.809  18.325  0.00  0.00    +0.000 C 
ATOM     27  C   UNL     1       5.226   4.388  18.882  0.00  0.00    +0.000 C 
BRANCH  22  28
ATOM     28  N   UNL     1       2.678   4.523  18.654  0.00  0.00    +0.000 NA
ATOM     29  C   UNL     1       2.558   3.114  18.207  0.00  0.00    +0.000 C 
ATOM     30  C   UNL     1       1.224   2.468  18.584  0.00  0.00    +0.000 C 
ATOM     31  C   UNL     1       1.012   2.509  20.086  0.00  0.00    +0.000 C 
ATOM     32  C   UNL     1       1.086   3.951  20.551  0.00  0.00    +0.000 C 
ATOM     33  C   UNL     1       2.388   4.624  20.105  0.00  0.00    +0.000 C 
ENDBRANCH  22  28
ENDBRANCH  21  22
ENDBRANCH   3  21
TORSDOF 5
ENDMDL
MODEL 6
REMARK VINA RESULT:      -8.8      2.922      6.063
REMARK  Name = 
REMARK  5 active torsions:
REMARK  status: ('A' for Active; 'I' for Inactive)
REMARK    1  A    between atoms: C_2  and  C_17
REMARK    2  A    between atoms: N_3  and  C_4
REMARK    3  A    between atoms: C_4  and  C_5
REMARK    4  A    between atoms: C_5  and  N_6
REMARK    5  A    between atoms: N_21  and  C_22
REMARK                            x       y       z     vdW  Elec       q    Type
REMARK                         _______ _______ _______ _____ _____    ______ ____
ROOT
ATOM      1  O   UNL     1       1.558   8.509  20.207  0.00  0.00    +0.000 OA
ATOM      2  C   UNL     1       1.779   8.276  19.019  0.00  0.00    +0.000 C 
ATOM      3  N   UNL     1       2.353   7.102  18.594  0.00  0.00    +0.000 N 
ATOM      4  H   UNL     1       2.647   6.975  17.629  0.00  0.00    +0.000 HD
ENDROOT
BRANCH   2   5
ATOM      5  C   UNL     1       1.427   9.318  17.959  0.00  0.00    +0.000 C 
ATOM      6  C   UNL     1       2.312  10.552  17.972  0.00  0.00    +0.000 C 
ATOM      7  C   UNL     1       1.536  11.544  18.807  0.00  0.00    +0.000 C 
ATOM      8  O   UNL     1       2.028  12.579  19.225  0.00  0.00    +0.000 OA
ATOM      9  N   UNL     1       0.234  11.044  18.977  0.00  0.00    +0.000 N 
ATOM     10  C   UNL     1       0.035   9.865  18.162  0.00  0.00    +0.000 C 
BRANCH   9  11
ATOM     11  C   UNL     1      -0.809  11.635  19.742  0.00  0.00    +0.000 A 
ATOM     12  C   UNL     1      -0.595  12.098  21.047  0.00  0.00    +0.000 A 
ATOM     13  C   UNL     1      -1.637  12.662  21.793  0.00  0.00    +0.000 A 
ATOM     14  C   UNL     1      -2.915  12.755  21.258  0.00  0.00    +0.000 A 
ATOM     15  C   UNL     1      -3.143  12.309  19.958  0.00  0.00    +0.000 A 
ATOM     16  C   UNL     1      -2.102  11.752  19.211  0.00  0.00    +0.000 A 
ATOM     17  O   UNL     1      -4.370  12.355  19.348  0.00  0.00    +0.000 OA
ATOM     18  C   UNL     1      -5.248  13.255  20.031  0.00  0.00    +0.000 C 
ATOM     19  C   UNL     1      -5.199  13.019  21.531  0.00  0.00    +0.000 C 
ATOM     20  O   UNL     1      -3.894  13.294  22.051  0.00  0.00    +0.000 OA
ENDBRANCH   9  11
ENDBRANCH   2   5
BRANCH   3  21
ATOM     21  C   UNL     1       2.852   6.092  19.533  0.00  0.00    +0.000 C 
BRANCH  21  22
ATOM     22  C   UNL     1       3.466   4.826  18.811  0.00  0.00    +0.000 C 
ATOM     23  C   UNL     1       3.598   3.654  19.844  0.00  0.00    +0.000 C 
ATOM     24  C   UNL     1       2.299   2.966  20.257  0.00  0.00    +0.000 C 
ATOM     25  C   UNL     1       1.452   2.579  19.055  0.00  0.00    +0.000 C 
ATOM     26  C   UNL     1       1.146   3.807  18.212  0.00  0.00    +0.000 C 
ATOM     27  C   UNL     1       2.445   4.426  17.689  0.00  0.00    +0.000 C 
BRANCH  22  28
ATOM     28  N   UNL     1       4.829   5.193  18.228  0.00  0.00    +0.000 NA
ATOM     29  C   UNL     1       5.907   5.189  19.247  0.00  0.00    +0.000 C 
ATOM     30  C   UNL     1       7.277   5.569  18.683  0.00  0.00    +0.000 C 
ATOM     31  C   UNL     1       7.679   4.626  17.565  0.00  0.00    +0.000 C 
ATOM     32  C   UNL     1       6.607   4.654  16.493  0.00  0.00    +0.000 C 
ATOM     33  C   UNL     1       5.220   4.352  17.070  0.00  0.00    +0.000 C 
ENDBRANCH  22  28
ENDBRANCH  21  22
ENDBRANCH   3  21
TORSDOF 5
ENDMDL
MODEL 7
REMARK VINA RESULT:      -8.8      2.759      5.863
REMARK  Name = 
REMARK  5 active torsions:
REMARK  status: ('A' for Active; 'I' for Inactive)
REMARK    1  A    between atoms: C_2  and  C_17
REMARK    2  A    between atoms: N_3  and  C_4
REMARK    3  A    between atoms: C_4  and  C_5
REMARK    4  A    between atoms: C_5  and  N_6
REMARK    5  A    between atoms: N_21  and  C_22
REMARK                            x       y       z     vdW  Elec       q    Type
REMARK                         _______ _______ _______ _____ _____    ______ ____
ROOT
ATOM      1  O   UNL     1       1.659   8.351  20.105  0.00  0.00    +0.000 OA
ATOM      2  C   UNL     1       1.947   8.144  18.926  0.00  0.00    +0.000 C 
ATOM      3  N   UNL     1       2.610   7.011  18.518  0.00  0.00    +0.000 N 
ATOM      4  H   UNL     1       2.953   6.913  17.567  0.00  0.00    +0.000 HD
ENDROOT
BRANCH   2   5
ATOM      5  C   UNL     1       1.582   9.176  17.860  0.00  0.00    +0.000 C 
ATOM      6  C   UNL     1       2.407  10.449  17.907  0.00  0.00    +0.000 C 
ATOM      7  C   UNL     1       1.558  11.399  18.721  0.00  0.00    +0.000 C 
ATOM      8  O   UNL     1       1.988  12.454  19.161  0.00  0.00    +0.000 OA
ATOM      9  N   UNL     1       0.277  10.838  18.846  0.00  0.00    +0.000 N 
ATOM     10  C   UNL     1       0.160   9.656  18.020  0.00  0.00    +0.000 C 
BRANCH   9  11
ATOM     11  C   UNL     1      -0.817  11.375  19.579  0.00  0.00    +0.000 A 
ATOM     12  C   UNL     1      -1.930  11.937  18.938  0.00  0.00    +0.000 A 
ATOM     13  C   UNL     1      -2.991  12.476  19.676  0.00  0.00    +0.000 A 
ATOM     14  C   UNL     1      -2.950  12.487  21.064  0.00  0.00    +0.000 A 
ATOM     15  C   UNL     1      -1.856  11.924  21.716  0.00  0.00    +0.000 A 
ATOM     16  C   UNL     1      -0.800  11.378  20.982  0.00  0.00    +0.000 A 
ATOM     17  O   UNL     1      -1.725  11.891  23.081  0.00  0.00    +0.000 OA
ATOM     18  C   UNL     1      -2.983  12.122  23.722  0.00  0.00    +0.000 C 
ATOM     19  C   UNL     1      -3.695  13.310  23.095  0.00  0.00    +0.000 C 
ATOM     20  O   UNL     1      -4.009  13.054  21.722  0.00  0.00    +0.000 OA
ENDBRANCH   9  11
ENDBRANCH   2   5
BRANCH   3  21
ATOM     21  C   UNL     1       3.125   6.023  19.470  0.00  0.00    +0.000 C 
BRANCH  21  22
ATOM     22  C   UNL     1       3.636   4.699  18.772  0.00  0.00    +0.000 C 
ATOM     23  C   UNL     1       3.551   3.510  19.789  0.00  0.00    +0.000 C 
ATOM     24  C   UNL     1       2.152   2.979  20.094  0.00  0.00    +0.000 C 
ATOM     25  C   UNL     1       1.358   2.708  18.827  0.00  0.00    +0.000 C 
ATOM     26  C   UNL     1       1.263   3.972  17.986  0.00  0.00    +0.000 C 
ATOM     27  C   UNL     1       2.662   4.436  17.571  0.00  0.00    +0.000 C 
BRANCH  22  28
ATOM     28  N   UNL     1       5.074   4.906  18.297  0.00  0.00    +0.000 NA
ATOM     29  C   UNL     1       5.157   5.733  17.068  0.00  0.00    +0.000 C 
ATOM     30  C   UNL     1       6.588   5.937  16.569  0.00  0.00    +0.000 C 
ATOM     31  C   UNL     1       7.443   6.590  17.639  0.00  0.00    +0.000 C 
ATOM     32  C   UNL     1       7.404   5.730  18.888  0.00  0.00    +0.000 C 
ATOM     33  C   UNL     1       5.967   5.457  19.345  0.00  0.00    +0.000 C 
ENDBRANCH  22  28
ENDBRANCH  21  22
ENDBRANCH   3  21
TORSDOF 5
ENDMDL
MODEL 8
REMARK VINA RESULT:      -8.7      2.765      5.949
REMARK  Name = 
REMARK  5 active torsions:
REMARK  status: ('A' for Active; 'I' for Inactive)
REMARK    1  A    between atoms: C_2  and  C_17
REMARK    2  A    between atoms: N_3  and  C_4
REMARK    3  A    between atoms: C_4  and  C_5
REMARK    4  A    between atoms: C_5  and  N_6
REMARK    5  A    between atoms: N_21  and  C_22
REMARK                            x       y       z     vdW  Elec       q    Type
REMARK                         _______ _______ _______ _____ _____    ______ ____
ROOT
ATOM      1  O   UNL     1       1.884   8.280  20.392  0.00  0.00    +0.000 OA
ATOM      2  C   UNL     1       1.947   8.067  19.181  0.00  0.00    +0.000 C 
ATOM      3  N   UNL     1       2.561   6.953  18.661  0.00  0.00    +0.000 N 
ATOM      4  H   UNL     1       2.719   6.854  17.662  0.00  0.00    +0.000 HD
ENDROOT
BRANCH   2   5
ATOM      5  C   UNL     1       1.344   9.069  18.198  0.00  0.00    +0.000 C 
ATOM      6  C   UNL     1       2.150  10.344  18.025  0.00  0.00    +0.000 C 
ATOM      7  C   UNL     1       1.500  11.315  18.984  0.00  0.00    +0.000 C 
ATOM      8  O   UNL     1       2.010  12.381  19.288  0.00  0.00    +0.000 OA
ATOM      9  N   UNL     1       0.283  10.757  19.409  0.00  0.00    +0.000 N 
ATOM     10  C   UNL     1      -0.008   9.552  18.661  0.00  0.00    +0.000 C 
BRANCH   9  11
ATOM     11  C   UNL     1      -0.622  11.312  20.355  0.00  0.00    +0.000 A 
ATOM     12  C   UNL     1      -0.454  11.126  21.734  0.00  0.00    +0.000 A 
ATOM     13  C   UNL     1      -1.363  11.667  22.651  0.00  0.00    +0.000 A 
ATOM     14  C   UNL     1      -2.468  12.383  22.209  0.00  0.00    +0.000 A 
ATOM     15  C   UNL     1      -2.644  12.585  20.842  0.00  0.00    +0.000 A 
ATOM     16  C   UNL     1      -1.733  12.053  19.926  0.00  0.00    +0.000 A 
ATOM     17  O   UNL     1      -3.704  13.275  20.311  0.00  0.00    +0.000 OA
ATOM     18  C   UNL     1      -4.348  14.072  21.310  0.00  0.00    +0.000 C 
ATOM     19  C   UNL     1      -4.576  13.265  22.577  0.00  0.00    +0.000 C 
ATOM     20  O   UNL     1      -3.331  12.861  23.158  0.00  0.00    +0.000 OA
ENDBRANCH   9  11
ENDBRANCH   2   5
BRANCH   3  21
ATOM     21  C   UNL     1       3.288   5.998  19.503  0.00  0.00    +0.000 C 
BRANCH  21  22
ATOM     22  C   UNL     1       3.788   4.727  18.707  0.00  0.00    +0.000 C 
ATOM     23  C   UNL     1       3.698   3.466  19.634  0.00  0.00    +0.000 C 
ATOM     24  C   UNL     1       2.297   2.922  19.903  0.00  0.00    +0.000 C 
ATOM     25  C   UNL     1       1.497   2.751  18.622  0.00  0.00    +0.000 C 
ATOM     26  C   UNL     1       1.407   4.074  17.878  0.00  0.00    +0.000 C 
ATOM     27  C   UNL     1       2.808   4.559  17.493  0.00  0.00    +0.000 C 
BRANCH  22  28
ATOM     28  N   UNL     1       5.225   4.959  18.243  0.00  0.00    +0.000 NA
ATOM     29  C   UNL     1       5.306   5.833  17.048  0.00  0.00    +0.000 C 
ATOM     30  C   UNL     1       6.737   6.064  16.560  0.00  0.00    +0.000 C 
ATOM     31  C   UNL     1       7.587   6.679  17.656  0.00  0.00    +0.000 C 
ATOM     32  C   UNL     1       7.550   5.771  18.870  0.00  0.00    +0.000 C 
ATOM     33  C   UNL     1       6.114   5.473  19.313  0.00  0.00    +0.000 C 
ENDBRANCH  22  28
ENDBRANCH  21  22
ENDBRANCH   3  21
TORSDOF 5
ENDMDL
MODEL 9
REMARK VINA RESULT:      -8.7      0.733      1.395
REMARK  Name = 
REMARK  5 active torsions:
REMARK  status: ('A' for Active; 'I' for Inactive)
REMARK    1  A    between atoms: C_2  and  C_17
REMARK    2  A    between atoms: N_3  and  C_4
REMARK    3  A    between atoms: C_4  and  C_5
REMARK    4  A    between atoms: C_5  and  N_6
REMARK    5  A    between atoms: N_21  and  C_22
REMARK                            x       y       z     vdW  Elec       q    Type
REMARK                         _______ _______ _______ _____ _____    ______ ____
ROOT
ATOM      1  O   UNL     1       3.798   1.874  17.764  0.00  0.00    +0.000 OA
ATOM      2  C   UNL     1       4.013   2.973  18.276  0.00  0.00    +0.000 C 
ATOM      3  N   UNL     1       4.407   4.064  17.539  0.00  0.00    +0.000 N 
ATOM      4  H   UNL     1       4.704   4.926  17.987  0.00  0.00    +0.000 HD
ENDROOT
BRANCH   2   5
ATOM      5  C   UNL     1       3.863   3.153  19.786  0.00  0.00    +0.000 C 
ATOM      6  C   UNL     1       2.542   2.661  20.350  0.00  0.00    +0.000 C 
ATOM      7  C   UNL     1       1.683   3.904  20.395  0.00  0.00    +0.000 C 
ATOM      8  O   UNL     1       0.478   3.864  20.586  0.00  0.00    +0.000 OA
ATOM      9  N   UNL     1       2.516   5.015  20.184  0.00  0.00    +0.000 N 
ATOM     10  C   UNL     1       3.905   4.611  20.174  0.00  0.00    +0.000 C 
BRANCH   9  11
ATOM     11  C   UNL     1       2.109   6.375  20.094  0.00  0.00    +0.000 A 
ATOM     12  C   UNL     1       1.421   7.009  21.137  0.00  0.00    +0.000 A 
ATOM     13  C   UNL     1       1.013   8.344  21.026  0.00  0.00    +0.000 A 
ATOM     14  C   UNL     1       1.265   9.063  19.864  0.00  0.00    +0.000 A 
ATOM     15  C   UNL     1       1.957   8.450  18.822  0.00  0.00    +0.000 A 
ATOM     16  C   UNL     1       2.371   7.121  18.935  0.00  0.00    +0.000 A 
ATOM     17  O   UNL     1       2.248   9.077  17.637  0.00  0.00    +0.000 OA
ATOM     18  C   UNL     1       2.122  10.497  17.765  0.00  0.00    +0.000 C 
ATOM     19  C   UNL     1       0.827  10.860  18.472  0.00  0.00    +0.000 C 
ATOM     20  O   UNL     1       0.816  10.356  19.812  0.00  0.00    +0.000 OA
ENDBRANCH   9  11
ENDBRANCH   2   5
BRANCH   3  21
ATOM     21  C   UNL     1       4.711   3.970  16.108  0.00  0.00    +0.000 C 
BRANCH  21  22
ATOM     22  C   UNL     1       5.880   4.937  15.659  0.00  0.00    +0.000 C 
ATOM     23  C   UNL     1       5.542   6.400  16.107  0.00  0.00    +0.000 C 
ATOM     24  C   UNL     1       5.674   6.700  17.598  0.00  0.00    +0.000 C 
ATOM     25  C   UNL     1       7.003   6.221  18.159  0.00  0.00    +0.000 C 
ATOM     26  C   UNL     1       7.171   4.730  17.911  0.00  0.00    +0.000 C 
ATOM     27  C   UNL     1       7.167   4.441  16.407  0.00  0.00    +0.000 C 
BRANCH  22  28
ATOM     28  N   UNL     1       6.043   4.856  14.142  0.00  0.00    +0.000 NA
ATOM     29  C   UNL     1       7.446   5.058  13.707  0.00  0.00    +0.000 C 
ATOM     30  C   UNL     1       7.626   4.996  12.190  0.00  0.00    +0.000 C 
ATOM     31  C   UNL     1       7.148   3.662  11.645  0.00  0.00    +0.000 C 
ATOM     32  C   UNL     1       5.698   3.464  12.045  0.00  0.00    +0.000 C 
ATOM     33  C   UNL     1       5.502   3.605  13.557  0.00  0.00    +0.000 C 
ENDBRANCH  22  28
ENDBRANCH  21  22
ENDBRANCH   3  21
TORSDOF 5
ENDMDL
