MODEL 1
REMARK VINA RESULT:      -7.1      0.000      0.000
REMARK  Name = 
REMARK  4 active torsions:
REMARK  status: ('A' for Active; 'I' for Inactive)
REMARK    1  A    between atoms: C_5  and  C_6
REMARK    2  A    between atoms: C_6  and  N_7
REMARK    3  A    between atoms: C_8  and  S_9
REMARK    4  A    between atoms: N_10  and  C_11
REMARK                            x       y       z     vdW  Elec       q    Type
REMARK                         _______ _______ _______ _____ _____    ______ ____
ROOT
ATOM      1  N   UNL     1       4.799   5.598  16.602  0.00  0.00    +0.000 NA
ATOM      2  C   UNL     1       5.848   5.037  17.080  0.00  0.00    +0.000 C 
ATOM      3  N   UNL     1       6.701   4.272  16.327  0.00  0.00    +0.000 N 
ATOM      4  H   UNL     1       7.353   3.685  16.828  0.00  0.00    +0.000 HD
ENDROOT
BRANCH   3   5
ATOM      5  C   UNL     1       6.849   4.321  14.931  0.00  0.00    +0.000 A 
ATOM      6  C   UNL     1       7.734   5.216  14.313  0.00  0.00    +0.000 A 
ATOM      7  C   UNL     1       7.819   5.310  12.922  0.00  0.00    +0.000 A 
ATOM      8  C   UNL     1       6.995   4.522  12.126  0.00  0.00    +0.000 A 
ATOM      9  C   UNL     1       6.107   3.632  12.727  0.00  0.00    +0.000 A 
ATOM     10 CL   UNL     1       5.067   2.677  11.741  0.00  0.00    +0.000 Cl
ATOM     11  C   UNL     1       6.038   3.521  14.118  0.00  0.00    +0.000 A 
ENDBRANCH   3   5
BRANCH   2  12
ATOM     12  S   UNL     1       6.364   5.105  18.758  0.00  0.00    +0.000 S 
ATOM     13  H   UNL     1       7.247   6.099  18.651  0.00  0.00    +0.000 HD
ENDBRANCH   2  12
BRANCH   1  14
ATOM     14  C   UNL     1       3.846   6.406  17.341  0.00  0.00    +0.000 C 
BRANCH  14  19
ATOM     15  F   UNL     1       0.490   3.336  20.692  0.00  0.00    +0.000 F 
ATOM     16  C   UNL     1       1.278   4.077  19.900  0.00  0.00    +0.000 A 
ATOM     17  C   UNL     1       1.421   3.731  18.562  0.00  0.00    +0.000 A 
ATOM     18  C   UNL     1       2.244   4.497  17.736  0.00  0.00    +0.000 A 
ATOM     19  C   UNL     1       2.918   5.620  18.243  0.00  0.00    +0.000 A 
ATOM     20  C   UNL     1       2.772   5.940  19.604  0.00  0.00    +0.000 A 
ATOM     21  C   UNL     1       1.947   5.173  20.430  0.00  0.00    +0.000 A 
ENDBRANCH  14  19
ENDBRANCH   1  14
TORSDOF 4
ENDMDL
MODEL 2
REMARK VINA RESULT:      -7.1      3.972      6.966
REMARK  Name = 
REMARK  4 active torsions:
REMARK  status: ('A' for Active; 'I' for Inactive)
REMARK    1  A    between atoms: C_5  and  C_6
REMARK    2  A    between atoms: C_6  and  N_7
REMARK    3  A    between atoms: C_8  and  S_9
REMARK    4  A    between atoms: N_10  and  C_11
REMARK                            x       y       z     vdW  Elec       q    Type
REMARK                         _______ _______ _______ _____ _____    ______ ____
ROOT
ATOM      1  N   UNL     1       5.168   5.120  17.011  0.00  0.00    +0.000 NA
ATOM      2  C   UNL     1       5.943   4.544  17.854  0.00  0.00    +0.000 C 
ATOM      3  N   UNL     1       5.485   3.777  18.895  0.00  0.00    +0.000 N 
ATOM      4  H   UNL     1       6.142   3.568  19.633  0.00  0.00    +0.000 HD
ENDROOT
BRANCH   3   5
ATOM      5  C   UNL     1       4.234   3.144  18.971  0.00  0.00    +0.000 A 
ATOM      6  C   UNL     1       3.625   2.571  17.846  0.00  0.00    +0.000 A 
ATOM      7  C   UNL     1       2.348   2.010  17.916  0.00  0.00    +0.000 A 
ATOM      8  C   UNL     1       1.648   2.037  19.118  0.00  0.00    +0.000 A 
ATOM      9  C   UNL     1       2.239   2.608  20.243  0.00  0.00    +0.000 A 
ATOM     10 CL   UNL     1       1.361   2.668  21.723  0.00  0.00    +0.000 Cl
ATOM     11  C   UNL     1       3.526   3.149  20.179  0.00  0.00    +0.000 A 
ENDBRANCH   3   5
BRANCH   2  12
ATOM     12  S   UNL     1       7.696   4.655  17.866  0.00  0.00    +0.000 S 
ATOM     13  H   UNL     1       7.809   5.980  17.766  0.00  0.00    +0.000 HD
ENDBRANCH   2  12
BRANCH   1  14
ATOM     14  C   UNL     1       5.581   5.957  15.899  0.00  0.00    +0.000 C 
BRANCH  14  19
ATOM     15  F   UNL     1       7.285   3.050  11.365  0.00  0.00    +0.000 F 
ATOM     16  C   UNL     1       6.869   3.745  12.433  0.00  0.00    +0.000 A 
ATOM     17  C   UNL     1       7.689   4.729  12.971  0.00  0.00    +0.000 A 
ATOM     18  C   UNL     1       7.261   5.450  14.086  0.00  0.00    +0.000 A 
ATOM     19  C   UNL     1       6.004   5.199  14.659  0.00  0.00    +0.000 A 
ATOM     20  C   UNL     1       5.198   4.187  14.108  0.00  0.00    +0.000 A 
ATOM     21  C   UNL     1       5.628   3.465  12.992  0.00  0.00    +0.000 A 
ENDBRANCH  14  19
ENDBRANCH   1  14
TORSDOF 4
ENDMDL
MODEL 3
REMARK VINA RESULT:      -7.1      0.149      1.119
REMARK  Name = 
REMARK  4 active torsions:
REMARK  status: ('A' for Active; 'I' for Inactive)
REMARK    1  A    between atoms: C_5  and  C_6
REMARK    2  A    between atoms: C_6  and  N_7
REMARK    3  A    between atoms: C_8  and  S_9
REMARK    4  A    between atoms: N_10  and  C_11
REMARK                            x       y       z     vdW  Elec       q    Type
REMARK                         _______ _______ _______ _____ _____    ______ ____
ROOT
ATOM      1  N   UNL     1       4.890   5.623  16.518  0.00  0.00    +0.000 NA
ATOM      2  C   UNL     1       5.975   5.130  16.990  0.00  0.00    +0.000 C 
ATOM      3  N   UNL     1       6.853   4.390  16.241  0.00  0.00    +0.000 N 
ATOM      4  H   UNL     1       7.543   3.851  16.744  0.00  0.00    +0.000 HD
ENDROOT
BRANCH   3   5
ATOM      5  C   UNL     1       6.973   4.410  14.842  0.00  0.00    +0.000 A 
ATOM      6  C   UNL     1       7.847   5.290  14.187  0.00  0.00    +0.000 A 
ATOM      7  C   UNL     1       7.904   5.355  12.793  0.00  0.00    +0.000 A 
ATOM      8  C   UNL     1       7.063   4.551  12.030  0.00  0.00    +0.000 A 
ATOM      9  C   UNL     1       6.186   3.676  12.667  0.00  0.00    +0.000 A 
ATOM     10 CL   UNL     1       5.125   2.703  11.723  0.00  0.00    +0.000 Cl
ATOM     11  C   UNL     1       6.145   3.594  14.062  0.00  0.00    +0.000 A 
ENDBRANCH   3   5
BRANCH   2  12
ATOM     12  S   UNL     1       6.517   5.268  18.655  0.00  0.00    +0.000 S 
ATOM     13  H   UNL     1       5.415   5.812  19.175  0.00  0.00    +0.000 HD
ENDBRANCH   2  12
BRANCH   1  14
ATOM     14  C   UNL     1       3.909   6.399  17.255  0.00  0.00    +0.000 C 
BRANCH  14  19
ATOM     15  F   UNL     1       0.522   3.513  20.735  0.00  0.00    +0.000 F 
ATOM     16  C   UNL     1       1.334   4.185  19.907  0.00  0.00    +0.000 A 
ATOM     17  C   UNL     1       2.036   5.286  20.382  0.00  0.00    +0.000 A 
ATOM     18  C   UNL     1       2.878   5.991  19.522  0.00  0.00    +0.000 A 
ATOM     19  C   UNL     1       3.031   5.589  18.184  0.00  0.00    +0.000 A 
ATOM     20  C   UNL     1       2.297   4.483  17.722  0.00  0.00    +0.000 A 
ATOM     21  C   UNL     1       1.454   3.777  18.584  0.00  0.00    +0.000 A 
ENDBRANCH  14  19
ENDBRANCH   1  14
TORSDOF 4
ENDMDL
MODEL 4
REMARK VINA RESULT:      -7.0      1.063      1.570
REMARK  Name = 
REMARK  4 active torsions:
REMARK  status: ('A' for Active; 'I' for Inactive)
REMARK    1  A    between atoms: C_5  and  C_6
REMARK    2  A    between atoms: C_6  and  N_7
REMARK    3  A    between atoms: C_8  and  S_9
REMARK    4  A    between atoms: N_10  and  C_11
REMARK                            x       y       z     vdW  Elec       q    Type
REMARK                         _______ _______ _______ _____ _____    ______ ____
ROOT
ATOM      1  N   UNL     1       5.261   5.319  16.361  0.00  0.00    +0.000 NA
ATOM      2  C   UNL     1       6.510   5.304  16.651  0.00  0.00    +0.000 C 
ATOM      3  N   UNL     1       7.474   4.828  15.800  0.00  0.00    +0.000 N 
ATOM      4  H   UNL     1       8.382   4.636  16.199  0.00  0.00    +0.000 HD
ENDROOT
BRANCH   3   5
ATOM      5  C   UNL     1       7.364   4.704  14.406  0.00  0.00    +0.000 A 
ATOM      6  C   UNL     1       8.046   5.562  13.532  0.00  0.00    +0.000 A 
ATOM      7  C   UNL     1       7.872   5.480  12.148  0.00  0.00    +0.000 A 
ATOM      8  C   UNL     1       6.985   4.548  11.619  0.00  0.00    +0.000 A 
ATOM      9  C   UNL     1       6.296   3.693  12.476  0.00  0.00    +0.000 A 
ATOM     10 CL   UNL     1       5.178   2.558  11.823  0.00  0.00    +0.000 Cl
ATOM     11  C   UNL     1       6.488   3.759  13.859  0.00  0.00    +0.000 A 
ENDBRANCH   3   5
BRANCH   2  12
ATOM     12  S   UNL     1       7.209   5.841  18.170  0.00  0.00    +0.000 S 
ATOM     13  H   UNL     1       8.461   5.427  17.968  0.00  0.00    +0.000 HD
ENDBRANCH   2  12
BRANCH   1  14
ATOM     14  C   UNL     1       4.188   5.792  17.217  0.00  0.00    +0.000 C 
BRANCH  14  19
ATOM     15  F   UNL     1       0.505   1.851  18.894  0.00  0.00    +0.000 F 
ATOM     16  C   UNL     1       1.390   2.777  18.502  0.00  0.00    +0.000 A 
ATOM     17  C   UNL     1       1.259   4.084  18.957  0.00  0.00    +0.000 A 
ATOM     18  C   UNL     1       2.176   5.052  18.547  0.00  0.00    +0.000 A 
ATOM     19  C   UNL     1       3.236   4.714  17.690  0.00  0.00    +0.000 A 
ATOM     20  C   UNL     1       3.338   3.390  17.229  0.00  0.00    +0.000 A 
ATOM     21  C   UNL     1       2.420   2.421  17.640  0.00  0.00    +0.000 A 
ENDBRANCH  14  19
ENDBRANCH   1  14
TORSDOF 4
ENDMDL
MODEL 5
REMARK VINA RESULT:      -6.9      4.494      5.896
REMARK  Name = 
REMARK  4 active torsions:
REMARK  status: ('A' for Active; 'I' for Inactive)
REMARK    1  A    between atoms: C_5  and  C_6
REMARK    2  A    between atoms: C_6  and  N_7
REMARK    3  A    between atoms: C_8  and  S_9
REMARK    4  A    between atoms: N_10  and  C_11
REMARK                            x       y       z     vdW  Elec       q    Type
REMARK                         _______ _______ _______ _____ _____    ______ ____
ROOT
ATOM      1  N   UNL     1       3.347   6.652  18.108  0.00  0.00    +0.000 NA
ATOM      2  C   UNL     1       4.478   6.075  17.930  0.00  0.00    +0.000 C 
ATOM      3  N   UNL     1       4.746   4.798  18.352  0.00  0.00    +0.000 N 
ATOM      4  H   UNL     1       5.716   4.520  18.383  0.00  0.00    +0.000 HD
ENDROOT
BRANCH   3   5
ATOM      5  C   UNL     1       3.798   3.796  18.618  0.00  0.00    +0.000 A 
ATOM      6  C   UNL     1       3.301   2.961  17.608  0.00  0.00    +0.000 A 
ATOM      7  C   UNL     1       2.305   2.017  17.869  0.00  0.00    +0.000 A 
ATOM      8  C   UNL     1       1.770   1.914  19.149  0.00  0.00    +0.000 A 
ATOM      9  C   UNL     1       2.250   2.742  20.161  0.00  0.00    +0.000 A 
ATOM     10 CL   UNL     1       1.568   2.635  21.738  0.00  0.00    +0.000 Cl
ATOM     11  C   UNL     1       3.264   3.670  19.906  0.00  0.00    +0.000 A 
ENDBRANCH   3   5
BRANCH   2  12
ATOM     12  S   UNL     1       5.883   6.801  17.165  0.00  0.00    +0.000 S 
ATOM     13  H   UNL     1       5.799   6.191  15.981  0.00  0.00    +0.000 HD
ENDBRANCH   2  12
BRANCH   1  14
ATOM     14  C   UNL     1       3.001   8.003  17.704  0.00  0.00    +0.000 C 
BRANCH  14  19
ATOM     15  F   UNL     1      -0.896  10.515  20.930  0.00  0.00    +0.000 F 
ATOM     16  C   UNL     1       0.017   9.914  20.155  0.00  0.00    +0.000 A 
ATOM     17  C   UNL     1       0.817   8.913  20.692  0.00  0.00    +0.000 A 
ATOM     18  C   UNL     1       1.773   8.289  19.889  0.00  0.00    +0.000 A 
ATOM     19  C   UNL     1       1.923   8.656  18.542  0.00  0.00    +0.000 A 
ATOM     20  C   UNL     1       1.115   9.684  18.026  0.00  0.00    +0.000 A 
ATOM     21  C   UNL     1       0.158  10.308  18.830  0.00  0.00    +0.000 A 
ENDBRANCH  14  19
ENDBRANCH   1  14
TORSDOF 4
ENDMDL
MODEL 6
REMARK VINA RESULT:      -6.9      4.504      5.881
REMARK  Name = 
REMARK  4 active torsions:
REMARK  status: ('A' for Active; 'I' for Inactive)
REMARK    1  A    between atoms: C_5  and  C_6
REMARK    2  A    between atoms: C_6  and  N_7
REMARK    3  A    between atoms: C_8  and  S_9
REMARK    4  A    between atoms: N_10  and  C_11
REMARK                            x       y       z     vdW  Elec       q    Type
REMARK                         _______ _______ _______ _____ _____    ______ ____
ROOT
ATOM      1  N   UNL     1       3.312   6.652  18.098  0.00  0.00    +0.000 NA
ATOM      2  C   UNL     1       4.443   6.074  17.925  0.00  0.00    +0.000 C 
ATOM      3  N   UNL     1       4.710   4.799  18.355  0.00  0.00    +0.000 N 
ATOM      4  H   UNL     1       5.680   4.521  18.390  0.00  0.00    +0.000 HD
ENDROOT
BRANCH   3   5
ATOM      5  C   UNL     1       3.762   3.798  18.624  0.00  0.00    +0.000 A 
ATOM      6  C   UNL     1       3.259   2.966  17.614  0.00  0.00    +0.000 A 
ATOM      7  C   UNL     1       2.262   2.024  17.878  0.00  0.00    +0.000 A 
ATOM      8  C   UNL     1       1.733   1.919  19.161  0.00  0.00    +0.000 A 
ATOM      9  C   UNL     1       2.220   2.744  20.172  0.00  0.00    +0.000 A 
ATOM     10 CL   UNL     1       1.545   2.635  21.753  0.00  0.00    +0.000 Cl
ATOM     11  C   UNL     1       3.234   3.671  19.914  0.00  0.00    +0.000 A 
ENDBRANCH   3   5
BRANCH   2  12
ATOM     12  S   UNL     1       5.849   6.797  17.161  0.00  0.00    +0.000 S 
ATOM     13  H   UNL     1       5.675   8.052  17.576  0.00  0.00    +0.000 HD
ENDBRANCH   2  12
BRANCH   1  14
ATOM     14  C   UNL     1       2.966   8.000  17.686  0.00  0.00    +0.000 C 
BRANCH  14  19
ATOM     15  F   UNL     1      -0.945  10.510  20.898  0.00  0.00    +0.000 F 
ATOM     16  C   UNL     1      -0.006   9.919  20.146  0.00  0.00    +0.000 A 
ATOM     17  C   UNL     1       0.151  10.306  18.821  0.00  0.00    +0.000 A 
ATOM     18  C   UNL     1       1.124   9.689  18.033  0.00  0.00    +0.000 A 
ATOM     19  C   UNL     1       1.953   8.692  18.573  0.00  0.00    +0.000 A 
ATOM     20  C   UNL     1       1.763   8.305  19.911  0.00  0.00    +0.000 A 
ATOM     21  C   UNL     1       0.789   8.923  20.699  0.00  0.00    +0.000 A 
ENDBRANCH  14  19
ENDBRANCH   1  14
TORSDOF 4
ENDMDL
MODEL 7
REMARK VINA RESULT:      -6.8      1.317      2.050
REMARK  Name = 
REMARK  4 active torsions:
REMARK  status: ('A' for Active; 'I' for Inactive)
REMARK    1  A    between atoms: C_5  and  C_6
REMARK    2  A    between atoms: C_6  and  N_7
REMARK    3  A    between atoms: C_8  and  S_9
REMARK    4  A    between atoms: N_10  and  C_11
REMARK                            x       y       z     vdW  Elec       q    Type
REMARK                         _______ _______ _______ _____ _____    ______ ____
ROOT
ATOM      1  N   UNL     1       4.389   5.264  16.944  0.00  0.00    +0.000 NA
ATOM      2  C   UNL     1       5.544   4.894  17.359  0.00  0.00    +0.000 C 
ATOM      3  N   UNL     1       6.462   4.260  16.561  0.00  0.00    +0.000 N 
ATOM      4  H   UNL     1       7.232   3.800  17.025  0.00  0.00    +0.000 HD
ENDROOT
BRANCH   3   5
ATOM      5  C   UNL     1       6.510   4.298  15.158  0.00  0.00    +0.000 A 
ATOM      6  C   UNL     1       5.728   3.444  14.368  0.00  0.00    +0.000 A 
ATOM      7  C   UNL     1       5.837   3.438  12.975  0.00  0.00    +0.000 A 
ATOM      8  C   UNL     1       6.757   4.275  12.352  0.00  0.00    +0.000 A 
ATOM      9  C   UNL     1       7.545   5.125  13.126  0.00  0.00    +0.000 A 
ATOM     10 CL   UNL     1       8.704   6.140  12.356  0.00  0.00    +0.000 Cl
ATOM     11  C   UNL     1       7.419   5.148  14.517  0.00  0.00    +0.000 A 
ENDBRANCH   3   5
BRANCH   2  12
ATOM     12  S   UNL     1       6.148   5.086  18.997  0.00  0.00    +0.000 S 
ATOM     13  H   UNL     1       7.205   5.854  18.728  0.00  0.00    +0.000 HD
ENDBRANCH   2  12
BRANCH   1  14
ATOM     14  C   UNL     1       3.365   5.922  17.735  0.00  0.00    +0.000 C 
BRANCH  14  19
ATOM     15  F   UNL     1       0.596   2.696  21.454  0.00  0.00    +0.000 F 
ATOM     16  C   UNL     1       1.261   3.449  20.567  0.00  0.00    +0.000 A 
ATOM     17  C   UNL     1       1.981   4.551  21.011  0.00  0.00    +0.000 A 
ATOM     18  C   UNL     1       2.671   5.340  20.090  0.00  0.00    +0.000 A 
ATOM     19  C   UNL     1       2.652   5.022  18.722  0.00  0.00    +0.000 A 
ATOM     20  C   UNL     1       1.902   3.913  18.295  0.00  0.00    +0.000 A 
ATOM     21  C   UNL     1       1.212   3.123  19.218  0.00  0.00    +0.000 A 
ENDBRANCH  14  19
ENDBRANCH   1  14
TORSDOF 4
ENDMDL
MODEL 8
REMARK VINA RESULT:      -6.8      3.605      6.788
REMARK  Name = 
REMARK  4 active torsions:
REMARK  status: ('A' for Active; 'I' for Inactive)
REMARK    1  A    between atoms: C_5  and  C_6
REMARK    2  A    between atoms: C_6  and  N_7
REMARK    3  A    between atoms: C_8  and  S_9
REMARK    4  A    between atoms: N_10  and  C_11
REMARK                            x       y       z     vdW  Elec       q    Type
REMARK                         _______ _______ _______ _____ _____    ______ ____
ROOT
ATOM      1  N   UNL     1       5.938   5.467  17.125  0.00  0.00    +0.000 NA
ATOM      2  C   UNL     1       6.129   5.530  18.392  0.00  0.00    +0.000 C 
ATOM      3  N   UNL     1       5.117   5.431  19.311  0.00  0.00    +0.000 N 
ATOM      4  H   UNL     1       5.324   5.728  20.254  0.00  0.00    +0.000 HD
ENDROOT
BRANCH   3   5
ATOM      5  C   UNL     1       3.862   4.836  19.104  0.00  0.00    +0.000 A 
ATOM      6  C   UNL     1       3.136   5.034  17.920  0.00  0.00    +0.000 A 
ATOM      7  C   UNL     1       1.857   4.499  17.754  0.00  0.00    +0.000 A 
ATOM      8  C   UNL     1       1.272   3.774  18.787  0.00  0.00    +0.000 A 
ATOM      9  C   UNL     1       1.980   3.575  19.970  0.00  0.00    +0.000 A 
ATOM     10 CL   UNL     1       1.244   2.702  21.260  0.00  0.00    +0.000 Cl
ATOM     11  C   UNL     1       3.269   4.090  20.129  0.00  0.00    +0.000 A 
ENDBRANCH   3   5
BRANCH   2  12
ATOM     12  S   UNL     1       7.680   5.788  19.175  0.00  0.00    +0.000 S 
ATOM     13  H   UNL     1       8.169   4.554  19.053  0.00  0.00    +0.000 HD
ENDBRANCH   2  12
BRANCH   1  14
ATOM     14  C   UNL     1       6.957   5.581  16.098  0.00  0.00    +0.000 C 
BRANCH  14  19
ATOM     15  F   UNL     1       5.657   2.933  11.280  0.00  0.00    +0.000 F 
ATOM     16  C   UNL     1       5.978   3.553  12.424  0.00  0.00    +0.000 A 
ATOM     17  C   UNL     1       5.111   3.482  13.507  0.00  0.00    +0.000 A 
ATOM     18  C   UNL     1       5.439   4.131  14.698  0.00  0.00    +0.000 A 
ATOM     19  C   UNL     1       6.645   4.842  14.814  0.00  0.00    +0.000 A 
ATOM     20  C   UNL     1       7.499   4.914  13.699  0.00  0.00    +0.000 A 
ATOM     21  C   UNL     1       7.168   4.265  12.507  0.00  0.00    +0.000 A 
ENDBRANCH  14  19
ENDBRANCH   1  14
TORSDOF 4
ENDMDL
MODEL 9
REMARK VINA RESULT:      -6.7      1.183      1.612
REMARK  Name = 
REMARK  4 active torsions:
REMARK  status: ('A' for Active; 'I' for Inactive)
REMARK    1  A    between atoms: C_5  and  C_6
REMARK    2  A    between atoms: C_6  and  N_7
REMARK    3  A    between atoms: C_8  and  S_9
REMARK    4  A    between atoms: N_10  and  C_11
REMARK                            x       y       z     vdW  Elec       q    Type
REMARK                         _______ _______ _______ _____ _____    ______ ____
ROOT
ATOM      1  N   UNL     1       4.845   5.666  16.861  0.00  0.00    +0.000 NA
ATOM      2  C   UNL     1       6.021   5.288  17.202  0.00  0.00    +0.000 C 
ATOM      3  N   UNL     1       6.845   4.561  16.382  0.00  0.00    +0.000 N 
ATOM      4  H   UNL     1       7.640   4.111  16.813  0.00  0.00    +0.000 HD
ENDROOT
BRANCH   3   5
ATOM      5  C   UNL     1       6.768   4.488  14.981  0.00  0.00    +0.000 A 
ATOM      6  C   UNL     1       6.025   3.491  14.333  0.00  0.00    +0.000 A 
ATOM      7  C   UNL     1       6.016   3.381  12.941  0.00  0.00    +0.000 A 
ATOM      8  C   UNL     1       6.776   4.258  12.174  0.00  0.00    +0.000 A 
ATOM      9  C   UNL     1       7.523   5.250  12.805  0.00  0.00    +0.000 A 
ATOM     10 CL   UNL     1       8.486   6.318  11.858  0.00  0.00    +0.000 Cl
ATOM     11  C   UNL     1       7.514   5.375  14.197  0.00  0.00    +0.000 A 
ENDBRANCH   3   5
BRANCH   2  12
ATOM     12  S   UNL     1       6.775   5.586  18.760  0.00  0.00    +0.000 S 
ATOM     13  H   UNL     1       6.783   6.920  18.722  0.00  0.00    +0.000 HD
ENDBRANCH   2  12
BRANCH   1  14
ATOM     14  C   UNL     1       3.915   6.420  17.682  0.00  0.00    +0.000 C 
BRANCH  14  19
ATOM     15  F   UNL     1       0.354   3.129  20.580  0.00  0.00    +0.000 F 
ATOM     16  C   UNL     1       1.190   3.922  19.896  0.00  0.00    +0.000 A 
ATOM     17  C   UNL     1       1.410   3.681  18.545  0.00  0.00    +0.000 A 
ATOM     18  C   UNL     1       2.284   4.501  17.831  0.00  0.00    +0.000 A 
ATOM     19  C   UNL     1       2.932   5.575  18.463  0.00  0.00    +0.000 A 
ATOM     20  C   UNL     1       2.707   5.789  19.834  0.00  0.00    +0.000 A 
ATOM     21  C   UNL     1       1.832   4.967  20.548  0.00  0.00    +0.000 A 
ENDBRANCH  14  19
ENDBRANCH   1  14
TORSDOF 4
ENDMDL
