MODEL 1
REMARK VINA RESULT:      -6.2      0.000      0.000
REMARK  Name = 
REMARK  8 active torsions:
REMARK  status: ('A' for Active; 'I' for Inactive)
REMARK    1  A    between atoms: C_1  and  C_2
REMARK    2  A    between atoms: C_2  and  C_3
REMARK    3  A    between atoms: C_3  and  C_4
REMARK    4  A    between atoms: C_4  and  C_5
REMARK    5  A    between atoms: C_4  and  C_6
REMARK    6  A    between atoms: C_4  and  O_7
REMARK    7  A    between atoms: O_7  and  C_8
REMARK    8  A    between atoms: C_11  and  N_12
REMARK                            x       y       z     vdW  Elec       q    Type
REMARK                         _______ _______ _______ _____ _____    ______ ____
ROOT
ATOM      1  C   UNL     1       4.857   4.436  17.700  0.00  0.00    +0.000 A 
ATOM      2  C   UNL     1       6.048   5.085  18.042  0.00  0.00    +0.000 A 
ATOM      3  C   UNL     1       7.012   5.361  17.052  0.00  0.00    +0.000 A 
ATOM      4  C   UNL     1       6.827   4.950  15.736  0.00  0.00    +0.000 A 
ATOM      5  C   UNL     1       5.647   4.292  15.409  0.00  0.00    +0.000 A 
ATOM      6  C   UNL     1       4.700   3.996  16.390  0.00  0.00    +0.000 A 
ENDROOT
BRANCH   4   7
ATOM      7  N   UNL     1       7.673   5.391  14.712  0.00  0.00    +0.000 N 
ATOM      8  H   UNL     1       7.268   5.333  13.785  0.00  0.00    +0.000 HD
ATOM      9  H   UNL     1       8.103   6.293  14.893  0.00  0.00    +0.000 HD
ENDBRANCH   4   7
BRANCH   1  10
ATOM     10  O   UNL     1       3.927   4.301  18.694  0.00  0.00    +0.000 OA
BRANCH  10  11
ATOM     11  C   UNL     1       2.678   5.039  18.639  0.00  0.00    +0.000 C 
ATOM     12  C   UNL     1       1.651   4.298  17.763  0.00  0.00    +0.000 C 
ATOM     13  C   UNL     1       2.853   6.511  18.195  0.00  0.00    +0.000 C 
BRANCH  11  14
ATOM     14  C   UNL     1       2.132   5.106  20.102  0.00  0.00    +0.000 C 
BRANCH  14  16
ATOM     15  C   UNL     1       1.526   2.967  21.307  0.00  0.00    +0.000 C 
ATOM     16  C   UNL     1       1.016   4.111  20.442  0.00  0.00    +0.000 C 
ENDBRANCH  14  16
ENDBRANCH  11  14
ENDBRANCH  10  11
ENDBRANCH   1  10
TORSDOF 5
ENDMDL
MODEL 2
REMARK VINA RESULT:      -5.9      2.826      5.241
REMARK  Name = 
REMARK  8 active torsions:
REMARK  status: ('A' for Active; 'I' for Inactive)
REMARK    1  A    between atoms: C_1  and  C_2
REMARK    2  A    between atoms: C_2  and  C_3
REMARK    3  A    between atoms: C_3  and  C_4
REMARK    4  A    between atoms: C_4  and  C_5
REMARK    5  A    between atoms: C_4  and  C_6
REMARK    6  A    between atoms: C_4  and  O_7
REMARK    7  A    between atoms: O_7  and  C_8
REMARK    8  A    between atoms: C_11  and  N_12
REMARK                            x       y       z     vdW  Elec       q    Type
REMARK                         _______ _______ _______ _____ _____    ______ ____
ROOT
ATOM      1  C   UNL     1       3.996   3.945  17.842  0.00  0.00    +0.000 A 
ATOM      2  C   UNL     1       4.088   4.343  19.180  0.00  0.00    +0.000 A 
ATOM      3  C   UNL     1       2.940   4.353  19.995  0.00  0.00    +0.000 A 
ATOM      4  C   UNL     1       1.691   4.023  19.479  0.00  0.00    +0.000 A 
ATOM      5  C   UNL     1       1.606   3.644  18.145  0.00  0.00    +0.000 A 
ATOM      6  C   UNL     1       2.737   3.654  17.328  0.00  0.00    +0.000 A 
ENDROOT
BRANCH   4   7
ATOM      7  N   UNL     1       0.586   3.834  20.318  0.00  0.00    +0.000 N 
ATOM      8  H   UNL     1       0.111   4.691  20.578  0.00  0.00    +0.000 HD
ATOM      9  H   UNL     1      -0.056   3.115  19.998  0.00  0.00    +0.000 HD
ENDBRANCH   4   7
BRANCH   1  10
ATOM     10  O   UNL     1       5.172   3.858  17.148  0.00  0.00    +0.000 OA
BRANCH  10  11
ATOM     11  C   UNL     1       5.568   4.915  16.234  0.00  0.00    +0.000 C 
ATOM     12  C   UNL     1       4.800   6.213  16.544  0.00  0.00    +0.000 C 
ATOM     13  C   UNL     1       5.444   4.517  14.744  0.00  0.00    +0.000 C 
BRANCH  11  14
ATOM     14  C   UNL     1       7.092   5.165  16.474  0.00  0.00    +0.000 C 
BRANCH  14  16
ATOM     15  C   UNL     1       7.703   5.819  18.839  0.00  0.00    +0.000 C 
ATOM     16  C   UNL     1       7.640   4.686  17.824  0.00  0.00    +0.000 C 
ENDBRANCH  14  16
ENDBRANCH  11  14
ENDBRANCH  10  11
ENDBRANCH   1  10
TORSDOF 5
ENDMDL
MODEL 3
REMARK VINA RESULT:      -5.8      2.887      5.487
REMARK  Name = 
REMARK  8 active torsions:
REMARK  status: ('A' for Active; 'I' for Inactive)
REMARK    1  A    between atoms: C_1  and  C_2
REMARK    2  A    between atoms: C_2  and  C_3
REMARK    3  A    between atoms: C_3  and  C_4
REMARK    4  A    between atoms: C_4  and  C_5
REMARK    5  A    between atoms: C_4  and  C_6
REMARK    6  A    between atoms: C_4  and  O_7
REMARK    7  A    between atoms: O_7  and  C_8
REMARK    8  A    between atoms: C_11  and  N_12
REMARK                            x       y       z     vdW  Elec       q    Type
REMARK                         _______ _______ _______ _____ _____    ______ ____
ROOT
ATOM      1  C   UNL     1       4.037   4.603  18.223  0.00  0.00    +0.000 A 
ATOM      2  C   UNL     1       2.740   4.995  17.878  0.00  0.00    +0.000 A 
ATOM      3  C   UNL     1       1.679   4.071  17.949  0.00  0.00    +0.000 A 
ATOM      4  C   UNL     1       1.905   2.746  18.307  0.00  0.00    +0.000 A 
ATOM      5  C   UNL     1       3.200   2.360  18.633  0.00  0.00    +0.000 A 
ATOM      6  C   UNL     1       4.257   3.267  18.542  0.00  0.00    +0.000 A 
ENDROOT
BRANCH   4   7
ATOM      7  N   UNL     1       0.841   1.875  18.575  0.00  0.00    +0.000 N 
ATOM      8  H   UNL     1       0.009   2.057  18.026  0.00  0.00    +0.000 HD
ATOM      9  H   UNL     1       1.103   0.894  18.574  0.00  0.00    +0.000 HD
ENDBRANCH   4   7
BRANCH   1  10
ATOM     10  O   UNL     1       4.991   5.583  18.233  0.00  0.00    +0.000 OA
BRANCH  10  11
ATOM     11  C   UNL     1       6.012   5.629  17.203  0.00  0.00    +0.000 C 
ATOM     12  C   UNL     1       5.410   5.281  15.829  0.00  0.00    +0.000 C 
ATOM     13  C   UNL     1       7.248   4.755  17.525  0.00  0.00    +0.000 C 
BRANCH  11  14
ATOM     14  C   UNL     1       6.540   7.099  17.160  0.00  0.00    +0.000 C 
BRANCH  14  16
ATOM     15  C   UNL     1       8.182   8.848  17.958  0.00  0.00    +0.000 C 
ATOM     16  C   UNL     1       7.822   7.370  17.957  0.00  0.00    +0.000 C 
ENDBRANCH  14  16
ENDBRANCH  11  14
ENDBRANCH  10  11
ENDBRANCH   1  10
TORSDOF 5
ENDMDL
MODEL 4
REMARK VINA RESULT:      -5.8      1.131      1.322
REMARK  Name = 
REMARK  8 active torsions:
REMARK  status: ('A' for Active; 'I' for Inactive)
REMARK    1  A    between atoms: C_1  and  C_2
REMARK    2  A    between atoms: C_2  and  C_3
REMARK    3  A    between atoms: C_3  and  C_4
REMARK    4  A    between atoms: C_4  and  C_5
REMARK    5  A    between atoms: C_4  and  C_6
REMARK    6  A    between atoms: C_4  and  O_7
REMARK    7  A    between atoms: O_7  and  C_8
REMARK    8  A    between atoms: C_11  and  N_12
REMARK                            x       y       z     vdW  Elec       q    Type
REMARK                         _______ _______ _______ _____ _____    ______ ____
ROOT
ATOM      1  C   UNL     1       4.750   5.421  18.248  0.00  0.00    +0.000 A 
ATOM      2  C   UNL     1       5.422   4.247  17.893  0.00  0.00    +0.000 A 
ATOM      3  C   UNL     1       6.268   4.229  16.767  0.00  0.00    +0.000 A 
ATOM      4  C   UNL     1       6.411   5.353  15.959  0.00  0.00    +0.000 A 
ATOM      5  C   UNL     1       5.727   6.511  16.310  0.00  0.00    +0.000 A 
ATOM      6  C   UNL     1       4.870   6.525  17.412  0.00  0.00    +0.000 A 
ENDROOT
BRANCH   4   7
ATOM      7  N   UNL     1       7.394   5.411  14.964  0.00  0.00    +0.000 N 
ATOM      8  H   UNL     1       8.297   5.054  15.253  0.00  0.00    +0.000 HD
ATOM      9  H   UNL     1       7.095   5.038  14.068  0.00  0.00    +0.000 HD
ENDBRANCH   4   7
BRANCH   1  10
ATOM     10  O   UNL     1       4.035   5.388  19.414  0.00  0.00    +0.000 OA
BRANCH  10  11
ATOM     11  C   UNL     1       2.609   5.659  19.411  0.00  0.00    +0.000 C 
ATOM     12  C   UNL     1       1.928   4.958  18.222  0.00  0.00    +0.000 C 
ATOM     13  C   UNL     1       2.271   7.168  19.457  0.00  0.00    +0.000 C 
BRANCH  11  14
ATOM     14  C   UNL     1       2.038   5.063  20.738  0.00  0.00    +0.000 C 
BRANCH  14  16
ATOM     15  C   UNL     1       1.573   2.699  21.506  0.00  0.00    +0.000 C 
ATOM     16  C   UNL     1       1.141   3.829  20.582  0.00  0.00    +0.000 C 
ENDBRANCH  14  16
ENDBRANCH  11  14
ENDBRANCH  10  11
ENDBRANCH   1  10
TORSDOF 5
ENDMDL
MODEL 5
REMARK VINA RESULT:      -5.8      0.843      2.309
REMARK  Name = 
REMARK  8 active torsions:
REMARK  status: ('A' for Active; 'I' for Inactive)
REMARK    1  A    between atoms: C_1  and  C_2
REMARK    2  A    between atoms: C_2  and  C_3
REMARK    3  A    between atoms: C_3  and  C_4
REMARK    4  A    between atoms: C_4  and  C_5
REMARK    5  A    between atoms: C_4  and  C_6
REMARK    6  A    between atoms: C_4  and  O_7
REMARK    7  A    between atoms: O_7  and  C_8
REMARK    8  A    between atoms: C_11  and  N_12
REMARK                            x       y       z     vdW  Elec       q    Type
REMARK                         _______ _______ _______ _____ _____    ______ ____
ROOT
ATOM      1  C   UNL     1       4.589   4.014  18.311  0.00  0.00    +0.000 A 
ATOM      2  C   UNL     1       5.745   4.630  18.800  0.00  0.00    +0.000 A 
ATOM      3  C   UNL     1       6.741   5.075  17.909  0.00  0.00    +0.000 A 
ATOM      4  C   UNL     1       6.622   4.865  16.539  0.00  0.00    +0.000 A 
ATOM      5  C   UNL     1       5.477   4.238  16.062  0.00  0.00    +0.000 A 
ATOM      6  C   UNL     1       4.499   3.775  16.944  0.00  0.00    +0.000 A 
ENDROOT
BRANCH   4   7
ATOM      7  N   UNL     1       7.498   5.475  15.632  0.00  0.00    +0.000 N 
ATOM      8  H   UNL     1       8.447   5.122  15.672  0.00  0.00    +0.000 HD
ATOM      9  H   UNL     1       7.140   5.524  14.684  0.00  0.00    +0.000 HD
ENDBRANCH   4   7
BRANCH   1  10
ATOM     10  O   UNL     1       3.622   3.710  19.230  0.00  0.00    +0.000 OA
BRANCH  10  11
ATOM     11  C   UNL     1       2.376   4.455  19.264  0.00  0.00    +0.000 C 
ATOM     12  C   UNL     1       1.530   4.038  20.480  0.00  0.00    +0.000 C 
ATOM     13  C   UNL     1       1.571   4.364  17.946  0.00  0.00    +0.000 C 
BRANCH  11  14
ATOM     14  C   UNL     1       2.761   5.962  19.415  0.00  0.00    +0.000 C 
BRANCH  14  16
ATOM     15  C   UNL     1       3.618   7.462  17.567  0.00  0.00    +0.000 C 
ATOM     16  C   UNL     1       2.386   6.867  18.235  0.00  0.00    +0.000 C 
ENDBRANCH  14  16
ENDBRANCH  11  14
ENDBRANCH  10  11
ENDBRANCH   1  10
TORSDOF 5
ENDMDL
MODEL 6
REMARK VINA RESULT:      -5.7      2.848      5.351
REMARK  Name = 
REMARK  8 active torsions:
REMARK  status: ('A' for Active; 'I' for Inactive)
REMARK    1  A    between atoms: C_1  and  C_2
REMARK    2  A    between atoms: C_2  and  C_3
REMARK    3  A    between atoms: C_3  and  C_4
REMARK    4  A    between atoms: C_4  and  C_5
REMARK    5  A    between atoms: C_4  and  C_6
REMARK    6  A    between atoms: C_4  and  O_7
REMARK    7  A    between atoms: O_7  and  C_8
REMARK    8  A    between atoms: C_11  and  N_12
REMARK                            x       y       z     vdW  Elec       q    Type
REMARK                         _______ _______ _______ _____ _____    ______ ____
ROOT
ATOM      1  C   UNL     1       3.912   3.548  17.665  0.00  0.00    +0.000 A 
ATOM      2  C   UNL     1       2.596   3.340  17.240  0.00  0.00    +0.000 A 
ATOM      3  C   UNL     1       1.535   3.417  18.162  0.00  0.00    +0.000 A 
ATOM      4  C   UNL     1       1.773   3.645  19.514  0.00  0.00    +0.000 A 
ATOM      5  C   UNL     1       3.085   3.835  19.930  0.00  0.00    +0.000 A 
ATOM      6  C   UNL     1       4.142   3.737  19.023  0.00  0.00    +0.000 A 
ENDROOT
BRANCH   4   7
ATOM      7  N   UNL     1       0.725   3.923  20.399  0.00  0.00    +0.000 N 
ATOM      8  H   UNL     1       1.021   4.340  21.274  0.00  0.00    +0.000 HD
ATOM      9  H   UNL     1      -0.052   4.421  19.974  0.00  0.00    +0.000 HD
ENDBRANCH   4   7
BRANCH   1  10
ATOM     10  O   UNL     1       4.874   3.565  16.692  0.00  0.00    +0.000 OA
BRANCH  10  11
ATOM     11  C   UNL     1       5.509   4.812  16.306  0.00  0.00    +0.000 C 
ATOM     12  C   UNL     1       4.701   6.014  16.828  0.00  0.00    +0.000 C 
ATOM     13  C   UNL     1       5.778   4.919  14.786  0.00  0.00    +0.000 C 
BRANCH  11  14
ATOM     14  C   UNL     1       6.918   4.825  16.981  0.00  0.00    +0.000 C 
BRANCH  14  16
ATOM     15  C   UNL     1       7.770   5.807  19.150  0.00  0.00    +0.000 C 
ATOM     16  C   UNL     1       7.282   6.107  17.739  0.00  0.00    +0.000 C 
ENDBRANCH  14  16
ENDBRANCH  11  14
ENDBRANCH  10  11
ENDBRANCH   1  10
TORSDOF 5
ENDMDL
MODEL 7
REMARK VINA RESULT:      -5.7      1.130      1.563
REMARK  Name = 
REMARK  8 active torsions:
REMARK  status: ('A' for Active; 'I' for Inactive)
REMARK    1  A    between atoms: C_1  and  C_2
REMARK    2  A    between atoms: C_2  and  C_3
REMARK    3  A    between atoms: C_3  and  C_4
REMARK    4  A    between atoms: C_4  and  C_5
REMARK    5  A    between atoms: C_4  and  C_6
REMARK    6  A    between atoms: C_4  and  O_7
REMARK    7  A    between atoms: O_7  and  C_8
REMARK    8  A    between atoms: C_11  and  N_12
REMARK                            x       y       z     vdW  Elec       q    Type
REMARK                         _______ _______ _______ _____ _____    ______ ____
ROOT
ATOM      1  C   UNL     1       4.274   4.734  16.954  0.00  0.00    +0.000 A 
ATOM      2  C   UNL     1       4.910   5.979  16.977  0.00  0.00    +0.000 A 
ATOM      3  C   UNL     1       6.083   6.187  16.225  0.00  0.00    +0.000 A 
ATOM      4  C   UNL     1       6.660   5.153  15.494  0.00  0.00    +0.000 A 
ATOM      5  C   UNL     1       6.029   3.915  15.490  0.00  0.00    +0.000 A 
ATOM      6  C   UNL     1       4.880   3.698  16.251  0.00  0.00    +0.000 A 
ENDROOT
BRANCH   4   7
ATOM      7  N   UNL     1       7.700   5.397  14.590  0.00  0.00    +0.000 N 
ATOM      8  H   UNL     1       8.457   4.724  14.638  0.00  0.00    +0.000 HD
ATOM      9  H   UNL     1       7.388   5.564  13.638  0.00  0.00    +0.000 HD
ENDBRANCH   4   7
BRANCH   1  10
ATOM     10  O   UNL     1       3.083   4.643  17.621  0.00  0.00    +0.000 OA
BRANCH  10  11
ATOM     11  C   UNL     1       3.055   4.339  19.041  0.00  0.00    +0.000 C 
ATOM     12  C   UNL     1       2.820   5.619  19.863  0.00  0.00    +0.000 C 
ATOM     13  C   UNL     1       4.304   3.566  19.528  0.00  0.00    +0.000 C 
BRANCH  11  14
ATOM     14  C   UNL     1       1.850   3.370  19.267  0.00  0.00    +0.000 C 
BRANCH  14  16
ATOM     15  C   UNL     1       1.478   2.612  21.651  0.00  0.00    +0.000 C 
ATOM     16  C   UNL     1       1.055   3.587  20.561  0.00  0.00    +0.000 C 
ENDBRANCH  14  16
ENDBRANCH  11  14
ENDBRANCH  10  11
ENDBRANCH   1  10
TORSDOF 5
ENDMDL
MODEL 8
REMARK VINA RESULT:      -5.7      2.877      5.532
REMARK  Name = 
REMARK  8 active torsions:
REMARK  status: ('A' for Active; 'I' for Inactive)
REMARK    1  A    between atoms: C_1  and  C_2
REMARK    2  A    between atoms: C_2  and  C_3
REMARK    3  A    between atoms: C_3  and  C_4
REMARK    4  A    between atoms: C_4  and  C_5
REMARK    5  A    between atoms: C_4  and  C_6
REMARK    6  A    between atoms: C_4  and  O_7
REMARK    7  A    between atoms: O_7  and  C_8
REMARK    8  A    between atoms: C_11  and  N_12
REMARK                            x       y       z     vdW  Elec       q    Type
REMARK                         _______ _______ _______ _____ _____    ______ ____
ROOT
ATOM      1  C   UNL     1       3.971   4.769  17.416  0.00  0.00    +0.000 A 
ATOM      2  C   UNL     1       4.046   3.379  17.277  0.00  0.00    +0.000 A 
ATOM      3  C   UNL     1       2.995   2.564  17.740  0.00  0.00    +0.000 A 
ATOM      4  C   UNL     1       1.893   3.113  18.388  0.00  0.00    +0.000 A 
ATOM      5  C   UNL     1       1.834   4.494  18.536  0.00  0.00    +0.000 A 
ATOM      6  C   UNL     1       2.884   5.303  18.099  0.00  0.00    +0.000 A 
ENDROOT
BRANCH   4   7
ATOM      7  N   UNL     1       0.758   2.343  18.670  0.00  0.00    +0.000 N 
ATOM      8  H   UNL     1       0.681   2.059  19.639  0.00  0.00    +0.000 HD
ATOM      9  H   UNL     1      -0.106   2.737  18.309  0.00  0.00    +0.000 HD
ENDBRANCH   4   7
BRANCH   1  10
ATOM     10  O   UNL     1       4.979   5.496  16.844  0.00  0.00    +0.000 OA
BRANCH  10  11
ATOM     11  C   UNL     1       6.296   5.536  17.454  0.00  0.00    +0.000 C 
ATOM     12  C   UNL     1       7.221   4.488  16.810  0.00  0.00    +0.000 C 
ATOM     13  C   UNL     1       6.263   5.402  18.995  0.00  0.00    +0.000 C 
BRANCH  11  14
ATOM     14  C   UNL     1       6.877   6.959  17.171  0.00  0.00    +0.000 C 
BRANCH  14  16
ATOM     15  C   UNL     1       8.178   8.953  18.022  0.00  0.00    +0.000 C 
ATOM     16  C   UNL     1       7.928   7.459  18.169  0.00  0.00    +0.000 C 
ENDBRANCH  14  16
ENDBRANCH  11  14
ENDBRANCH  10  11
ENDBRANCH   1  10
TORSDOF 5
ENDMDL
MODEL 9
REMARK VINA RESULT:      -5.7      0.904      1.412
REMARK  Name = 
REMARK  8 active torsions:
REMARK  status: ('A' for Active; 'I' for Inactive)
REMARK    1  A    between atoms: C_1  and  C_2
REMARK    2  A    between atoms: C_2  and  C_3
REMARK    3  A    between atoms: C_3  and  C_4
REMARK    4  A    between atoms: C_4  and  C_5
REMARK    5  A    between atoms: C_4  and  C_6
REMARK    6  A    between atoms: C_4  and  O_7
REMARK    7  A    between atoms: O_7  and  C_8
REMARK    8  A    between atoms: C_11  and  N_12
REMARK                            x       y       z     vdW  Elec       q    Type
REMARK                         _______ _______ _______ _____ _____    ______ ____
ROOT
ATOM      1  C   UNL     1       4.921   4.733  18.122  0.00  0.00    +0.000 A 
ATOM      2  C   UNL     1       6.064   5.516  18.311  0.00  0.00    +0.000 A 
ATOM      3  C   UNL     1       6.993   5.674  17.265  0.00  0.00    +0.000 A 
ATOM      4  C   UNL     1       6.825   5.017  16.050  0.00  0.00    +0.000 A 
ATOM      5  C   UNL     1       5.695   4.228  15.877  0.00  0.00    +0.000 A 
ATOM      6  C   UNL     1       4.783   4.051  16.918  0.00  0.00    +0.000 A 
ENDROOT
BRANCH   4   7
ATOM      7  N   UNL     1       7.626   5.322  14.943  0.00  0.00    +0.000 N 
ATOM      8  H   UNL     1       8.434   4.718  14.838  0.00  0.00    +0.000 HD
ATOM      9  H   UNL     1       7.107   5.432  14.077  0.00  0.00    +0.000 HD
ENDBRANCH   4   7
BRANCH   1  10
ATOM     10  O   UNL     1       4.013   4.718  19.146  0.00  0.00    +0.000 OA
BRANCH  10  11
ATOM     11  C   UNL     1       2.730   5.382  19.003  0.00  0.00    +0.000 C 
ATOM     12  C   UNL     1       2.871   6.649  18.141  0.00  0.00    +0.000 C 
ATOM     13  C   UNL     1       2.040   5.681  20.355  0.00  0.00    +0.000 C 
BRANCH  11  14
ATOM     14  C   UNL     1       1.787   4.377  18.266  0.00  0.00    +0.000 C 
BRANCH  14  16
ATOM     15  C   UNL     1       1.878   1.964  19.016  0.00  0.00    +0.000 C 
ATOM     16  C   UNL     1       1.150   3.294  19.146  0.00  0.00    +0.000 C 
ENDBRANCH  14  16
ENDBRANCH  11  14
ENDBRANCH  10  11
ENDBRANCH   1  10
TORSDOF 5
ENDMDL
