MODEL 1
REMARK VINA RESULT:      -7.6      0.000      0.000
REMARK  Name = 
REMARK  4 active torsions:
REMARK  status: ('A' for Active; 'I' for Inactive)
REMARK    1  A    between atoms: C_1  and  C_2
REMARK    2  A    between atoms: C_2  and  C_4
REMARK    3  A    between atoms: C_8  and  N_9
REMARK    4  A    between atoms: C_16  and  C_17
REMARK                            x       y       z     vdW  Elec       q    Type
REMARK                         _______ _______ _______ _____ _____    ______ ____
ROOT
ATOM      1  N   UNL     1       4.768   4.116  18.941  0.00  0.00    +0.000 N 
ATOM      2  C   UNL     1       4.705   2.754  19.157  0.00  0.00    +0.000 A 
ATOM      3  N   UNL     1       3.699   2.403  19.926  0.00  0.00    +0.000 NA
ATOM      4  C   UNL     1       3.047   3.582  20.209  0.00  0.00    +0.000 A 
ATOM      5  C   UNL     1       1.891   3.909  20.901  0.00  0.00    +0.000 A 
ATOM      6 CL   UNL     1       0.989   2.672  21.625  0.00  0.00    +0.000 Cl
ATOM      7  N   UNL     1       1.426   5.169  20.961  0.00  0.00    +0.000 NA
ATOM      8  C   UNL     1       2.141   6.125  20.337  0.00  0.00    +0.000 A 
ATOM      9  C   UNL     1       1.577   7.513  20.340  0.00  0.00    +0.000 C 
ATOM     10  N   UNL     1       3.300   5.949  19.668  0.00  0.00    +0.000 NA
ATOM     11  C   UNL     1       3.702   4.663  19.634  0.00  0.00    +0.000 A 
ENDROOT
BRANCH   1  16
ATOM     12  C   UNL     1       6.785   5.135  15.983  0.00  0.00    +0.000 A 
ATOM     13  C   UNL     1       7.604   6.114  16.560  0.00  0.00    +0.000 A 
ATOM     14  C   UNL     1       7.474   6.443  17.908  0.00  0.00    +0.000 A 
ATOM     15  C   UNL     1       6.518   5.800  18.694  0.00  0.00    +0.000 A 
ATOM     16  C   UNL     1       5.721   4.793  18.138  0.00  0.00    +0.000 A 
ATOM     17  C   UNL     1       5.857   4.453  16.783  0.00  0.00    +0.000 A 
BRANCH  12  19
ATOM     18  C   UNL     1       5.932   3.948  13.850  0.00  0.00    +0.000 C 
ATOM     19  C   UNL     1       6.910   4.878  14.518  0.00  0.00    +0.000 C 
ATOM     20  O   UNL     1       7.792   5.444  13.872  0.00  0.00    +0.000 OA
ENDBRANCH  12  19
ENDBRANCH   1  16
TORSDOF 2
ENDMDL
MODEL 2
REMARK VINA RESULT:      -7.3      1.391      1.723
REMARK  Name = 
REMARK  4 active torsions:
REMARK  status: ('A' for Active; 'I' for Inactive)
REMARK    1  A    between atoms: C_1  and  C_2
REMARK    2  A    between atoms: C_2  and  C_4
REMARK    3  A    between atoms: C_8  and  N_9
REMARK    4  A    between atoms: C_16  and  C_17
REMARK                            x       y       z     vdW  Elec       q    Type
REMARK                         _______ _______ _______ _____ _____    ______ ____
ROOT
ATOM      1  N   UNL     1       4.305   3.579  17.697  0.00  0.00    +0.000 N 
ATOM      2  C   UNL     1       3.993   2.256  17.938  0.00  0.00    +0.000 A 
ATOM      3  N   UNL     1       3.100   2.106  18.892  0.00  0.00    +0.000 NA
ATOM      4  C   UNL     1       2.786   3.390  19.280  0.00  0.00    +0.000 A 
ATOM      5  C   UNL     1       1.882   3.936  20.178  0.00  0.00    +0.000 A 
ATOM      6 CL   UNL     1       0.890   2.900  21.079  0.00  0.00    +0.000 Cl
ATOM      7  N   UNL     1       1.720   5.264  20.311  0.00  0.00    +0.000 NA
ATOM      8  C   UNL     1       2.492   6.062  19.548  0.00  0.00    +0.000 A 
ATOM      9  C   UNL     1       2.252   7.539  19.641  0.00  0.00    +0.000 C 
ATOM     10  N   UNL     1       3.436   5.661  18.670  0.00  0.00    +0.000 NA
ATOM     11  C   UNL     1       3.536   4.321  18.575  0.00  0.00    +0.000 A 
ENDROOT
BRANCH   1  16
ATOM     12  C   UNL     1       5.956   4.136  14.406  0.00  0.00    +0.000 A 
ATOM     13  C   UNL     1       6.997   4.991  14.787  0.00  0.00    +0.000 A 
ATOM     14  C   UNL     1       7.137   5.392  16.115  0.00  0.00    +0.000 A 
ATOM     15  C   UNL     1       6.231   4.945  17.077  0.00  0.00    +0.000 A 
ATOM     16  C   UNL     1       5.211   4.058  16.716  0.00  0.00    +0.000 A 
ATOM     17  C   UNL     1       5.074   3.647  15.381  0.00  0.00    +0.000 A 
BRANCH  12  19
ATOM     18  C   UNL     1       7.025   3.782  12.080  0.00  0.00    +0.000 C 
ATOM     19  C   UNL     1       5.804   3.802  12.960  0.00  0.00    +0.000 C 
ATOM     20  O   UNL     1       4.692   3.528  12.510  0.00  0.00    +0.000 OA
ENDBRANCH  12  19
ENDBRANCH   1  16
TORSDOF 2
ENDMDL
MODEL 3
REMARK VINA RESULT:      -7.3      1.670      2.125
REMARK  Name = 
REMARK  4 active torsions:
REMARK  status: ('A' for Active; 'I' for Inactive)
REMARK    1  A    between atoms: C_1  and  C_2
REMARK    2  A    between atoms: C_2  and  C_4
REMARK    3  A    between atoms: C_8  and  N_9
REMARK    4  A    between atoms: C_16  and  C_17
REMARK                            x       y       z     vdW  Elec       q    Type
REMARK                         _______ _______ _______ _____ _____    ______ ____
ROOT
ATOM      1  N   UNL     1       4.511   3.868  17.234  0.00  0.00    +0.000 N 
ATOM      2  C   UNL     1       4.199   2.604  17.693  0.00  0.00    +0.000 A 
ATOM      3  N   UNL     1       3.297   2.613  18.649  0.00  0.00    +0.000 NA
ATOM      4  C   UNL     1       2.974   3.942  18.810  0.00  0.00    +0.000 A 
ATOM      5  C   UNL     1       2.058   4.628  19.593  0.00  0.00    +0.000 A 
ATOM      6 CL   UNL     1       1.059   3.754  20.646  0.00  0.00    +0.000 Cl
ATOM      7  N   UNL     1       1.890   5.958  19.497  0.00  0.00    +0.000 NA
ATOM      8  C   UNL     1       2.669   6.620  18.619  0.00  0.00    +0.000 A 
ATOM      9  C   UNL     1       2.423   8.090  18.458  0.00  0.00    +0.000 C 
ATOM     10  N   UNL     1       3.623   6.081  17.831  0.00  0.00    +0.000 NA
ATOM     11  C   UNL     1       3.728   4.744  17.966  0.00  0.00    +0.000 A 
ENDROOT
BRANCH   1  16
ATOM     12  C   UNL     1       6.148   3.932  13.891  0.00  0.00    +0.000 A 
ATOM     13  C   UNL     1       7.230   4.780  14.156  0.00  0.00    +0.000 A 
ATOM     14  C   UNL     1       7.402   5.337  15.422  0.00  0.00    +0.000 A 
ATOM     15  C   UNL     1       6.488   5.057  16.437  0.00  0.00    +0.000 A 
ATOM     16  C   UNL     1       5.426   4.179  16.196  0.00  0.00    +0.000 A 
ATOM     17  C   UNL     1       5.256   3.610  14.924  0.00  0.00    +0.000 A 
BRANCH  12  19
ATOM     18  C   UNL     1       4.581   3.389  11.908  0.00  0.00    +0.000 C 
ATOM     19  C   UNL     1       5.965   3.428  12.499  0.00  0.00    +0.000 C 
ATOM     20  O   UNL     1       6.945   3.072  11.845  0.00  0.00    +0.000 OA
ENDBRANCH  12  19
ENDBRANCH   1  16
TORSDOF 2
ENDMDL
MODEL 4
REMARK VINA RESULT:      -7.3      3.382      6.431
REMARK  Name = 
REMARK  4 active torsions:
REMARK  status: ('A' for Active; 'I' for Inactive)
REMARK    1  A    between atoms: C_1  and  C_2
REMARK    2  A    between atoms: C_2  and  C_4
REMARK    3  A    between atoms: C_8  and  N_9
REMARK    4  A    between atoms: C_16  and  C_17
REMARK                            x       y       z     vdW  Elec       q    Type
REMARK                         _______ _______ _______ _____ _____    ______ ____
ROOT
ATOM      1  N   UNL     1       2.373   6.069  19.721  0.00  0.00    +0.000 N 
ATOM      2  C   UNL     1       1.640   5.070  20.331  0.00  0.00    +0.000 A 
ATOM      3  N   UNL     1       2.274   3.919  20.367  0.00  0.00    +0.000 NA
ATOM      4  C   UNL     1       3.493   4.174  19.781  0.00  0.00    +0.000 A 
ATOM      5  C   UNL     1       4.639   3.424  19.564  0.00  0.00    +0.000 A 
ATOM      6 CL   UNL     1       4.674   1.810  20.075  0.00  0.00    +0.000 Cl
ATOM      7  N   UNL     1       5.749   3.955  19.022  0.00  0.00    +0.000 NA
ATOM      8  C   UNL     1       5.705   5.255  18.668  0.00  0.00    +0.000 A 
ATOM      9  C   UNL     1       6.969   5.863  18.138  0.00  0.00    +0.000 C 
ATOM     10  N   UNL     1       4.644   6.081  18.784  0.00  0.00    +0.000 NA
ATOM     11  C   UNL     1       3.572   5.490  19.348  0.00  0.00    +0.000 A 
ENDROOT
BRANCH   1  16
ATOM     12  C   UNL     1       1.042   9.462  20.481  0.00  0.00    +0.000 A 
ATOM     13  C   UNL     1       1.165  10.069  19.225  0.00  0.00    +0.000 A 
ATOM     14  C   UNL     1       1.700   9.366  18.146  0.00  0.00    +0.000 A 
ATOM     15  C   UNL     1       2.124   8.049  18.314  0.00  0.00    +0.000 A 
ATOM     16  C   UNL     1       1.969   7.419  19.554  0.00  0.00    +0.000 A 
ATOM     17  C   UNL     1       1.422   8.122  20.638  0.00  0.00    +0.000 A 
BRANCH  12  19
ATOM     18  C   UNL     1      -0.199   9.606  22.744  0.00  0.00    +0.000 C 
ATOM     19  C   UNL     1       0.538  10.284  21.620  0.00  0.00    +0.000 C 
ATOM     20  O   UNL     1       0.749  11.496  21.639  0.00  0.00    +0.000 OA
ENDBRANCH  12  19
ENDBRANCH   1  16
TORSDOF 2
ENDMDL
MODEL 5
REMARK VINA RESULT:      -7.3      3.926      6.740
REMARK  Name = 
REMARK  4 active torsions:
REMARK  status: ('A' for Active; 'I' for Inactive)
REMARK    1  A    between atoms: C_1  and  C_2
REMARK    2  A    between atoms: C_2  and  C_4
REMARK    3  A    between atoms: C_8  and  N_9
REMARK    4  A    between atoms: C_16  and  C_17
REMARK                            x       y       z     vdW  Elec       q    Type
REMARK                         _______ _______ _______ _____ _____    ______ ____
ROOT
ATOM      1  N   UNL     1       3.034   7.205  18.034  0.00  0.00    +0.000 N 
ATOM      2  C   UNL     1       4.186   7.536  17.348  0.00  0.00    +0.000 A 
ATOM      3  N   UNL     1       4.841   6.484  16.908  0.00  0.00    +0.000 NA
ATOM      4  C   UNL     1       4.073   5.408  17.294  0.00  0.00    +0.000 A 
ATOM      5  C   UNL     1       4.154   4.039  17.095  0.00  0.00    +0.000 A 
ATOM      6 CL   UNL     1       5.452   3.413  16.205  0.00  0.00    +0.000 Cl
ATOM      7  N   UNL     1       3.201   3.195  17.529  0.00  0.00    +0.000 NA
ATOM      8  C   UNL     1       2.158   3.728  18.195  0.00  0.00    +0.000 A 
ATOM      9  C   UNL     1       1.060   2.795  18.607  0.00  0.00    +0.000 C 
ATOM     10  N   UNL     1       1.980   5.033  18.492  0.00  0.00    +0.000 NA
ATOM     11  C   UNL     1       2.962   5.823  18.016  0.00  0.00    +0.000 A 
ENDROOT
BRANCH   1  16
ATOM     12  C   UNL     1       1.028   9.062  20.561  0.00  0.00    +0.000 A 
ATOM     13  C   UNL     1       0.282   9.902  19.724  0.00  0.00    +0.000 A 
ATOM     14  C   UNL     1       0.458   9.864  18.342  0.00  0.00    +0.000 A 
ATOM     15  C   UNL     1       1.387   8.989  17.781  0.00  0.00    +0.000 A 
ATOM     16  C   UNL     1       2.109   8.117  18.603  0.00  0.00    +0.000 A 
ATOM     17  C   UNL     1       1.927   8.147  19.994  0.00  0.00    +0.000 A 
BRANCH  12  19
ATOM     18  C   UNL     1      -0.517   9.074  22.633  0.00  0.00    +0.000 C 
ATOM     19  C   UNL     1       0.860   9.199  22.037  0.00  0.00    +0.000 C 
ATOM     20  O   UNL     1       1.845   9.390  22.749  0.00  0.00    +0.000 OA
ENDBRANCH  12  19
ENDBRANCH   1  16
TORSDOF 2
ENDMDL
MODEL 6
REMARK VINA RESULT:      -7.2      2.504      4.175
REMARK  Name = 
REMARK  4 active torsions:
REMARK  status: ('A' for Active; 'I' for Inactive)
REMARK    1  A    between atoms: C_1  and  C_2
REMARK    2  A    between atoms: C_2  and  C_4
REMARK    3  A    between atoms: C_8  and  N_9
REMARK    4  A    between atoms: C_16  and  C_17
REMARK                            x       y       z     vdW  Elec       q    Type
REMARK                         _______ _______ _______ _____ _____    ______ ____
ROOT
ATOM      1  N   UNL     1       5.118   5.412  15.854  0.00  0.00    +0.000 N 
ATOM      2  C   UNL     1       5.003   6.730  16.250  0.00  0.00    +0.000 A 
ATOM      3  N   UNL     1       4.316   6.873  17.362  0.00  0.00    +0.000 NA
ATOM      4  C   UNL     1       3.986   5.590  17.735  0.00  0.00    +0.000 A 
ATOM      5  C   UNL     1       3.336   5.035  18.828  0.00  0.00    +0.000 A 
ATOM      6 CL   UNL     1       2.752   6.060  20.043  0.00  0.00    +0.000 Cl
ATOM      7  N   UNL     1       3.212   3.706  18.987  0.00  0.00    +0.000 NA
ATOM      8  C   UNL     1       3.726   2.916  18.025  0.00  0.00    +0.000 A 
ATOM      9  C   UNL     1       3.656   1.435  18.245  0.00  0.00    +0.000 C 
ATOM     10  N   UNL     1       4.343   3.326  16.896  0.00  0.00    +0.000 NA
ATOM     11  C   UNL     1       4.447   4.667  16.807  0.00  0.00    +0.000 A 
ENDROOT
BRANCH   1  16
ATOM     12  C   UNL     1       5.882   3.575  12.708  0.00  0.00    +0.000 A 
ATOM     13  C   UNL     1       7.197   4.001  12.479  0.00  0.00    +0.000 A 
ATOM     14  C   UNL     1       7.813   4.901  13.348  0.00  0.00    +0.000 A 
ATOM     15  C   UNL     1       7.117   5.389  14.453  0.00  0.00    +0.000 A 
ATOM     16  C   UNL     1       5.818   4.940  14.714  0.00  0.00    +0.000 A 
ATOM     17  C   UNL     1       5.200   4.027  13.846  0.00  0.00    +0.000 A 
BRANCH  12  19
ATOM     18  C   UNL     1       5.963   1.424  11.277  0.00  0.00    +0.000 C 
ATOM     19  C   UNL     1       5.243   2.675  11.704  0.00  0.00    +0.000 C 
ATOM     20  O   UNL     1       4.131   2.953  11.255  0.00  0.00    +0.000 OA
ENDBRANCH  12  19
ENDBRANCH   1  16
TORSDOF 2
ENDMDL
MODEL 7
REMARK VINA RESULT:      -7.2      4.230      6.907
REMARK  Name = 
REMARK  4 active torsions:
REMARK  status: ('A' for Active; 'I' for Inactive)
REMARK    1  A    between atoms: C_1  and  C_2
REMARK    2  A    between atoms: C_2  and  C_4
REMARK    3  A    between atoms: C_8  and  N_9
REMARK    4  A    between atoms: C_16  and  C_17
REMARK                            x       y       z     vdW  Elec       q    Type
REMARK                         _______ _______ _______ _____ _____    ______ ____
ROOT
ATOM      1  N   UNL     1       5.561   5.308  16.323  0.00  0.00    +0.000 N 
ATOM      2  C   UNL     1       6.661   6.040  16.723  0.00  0.00    +0.000 A 
ATOM      3  N   UNL     1       7.621   6.055  15.825  0.00  0.00    +0.000 NA
ATOM      4  C   UNL     1       7.123   5.324  14.770  0.00  0.00    +0.000 A 
ATOM      5  C   UNL     1       7.589   5.013  13.502  0.00  0.00    +0.000 A 
ATOM      6 CL   UNL     1       9.108   5.586  13.020  0.00  0.00    +0.000 Cl
ATOM      7  N   UNL     1       6.847   4.325  12.616  0.00  0.00    +0.000 NA
ATOM      8  C   UNL     1       5.625   3.921  13.013  0.00  0.00    +0.000 A 
ATOM      9  C   UNL     1       4.770   3.225  11.997  0.00  0.00    +0.000 C 
ATOM     10  N   UNL     1       5.071   4.120  14.228  0.00  0.00    +0.000 NA
ATOM     11  C   UNL     1       5.860   4.827  15.060  0.00  0.00    +0.000 A 
ENDROOT
BRANCH   1  16
ATOM     12  C   UNL     1       2.733   3.652  18.088  0.00  0.00    +0.000 A 
ATOM     13  C   UNL     1       2.002   4.772  18.502  0.00  0.00    +0.000 A 
ATOM     14  C   UNL     1       2.453   6.060  18.214  0.00  0.00    +0.000 A 
ATOM     15  C   UNL     1       3.645   6.240  17.514  0.00  0.00    +0.000 A 
ATOM     16  C   UNL     1       4.363   5.128  17.061  0.00  0.00    +0.000 A 
ATOM     17  C   UNL     1       3.906   3.831  17.341  0.00  0.00    +0.000 A 
BRANCH  12  19
ATOM     18  C   UNL     1       0.795   2.115  18.841  0.00  0.00    +0.000 C 
ATOM     19  C   UNL     1       2.248   2.299  18.491  0.00  0.00    +0.000 C 
ATOM     20  O   UNL     1       3.031   1.350  18.512  0.00  0.00    +0.000 OA
ENDBRANCH  12  19
ENDBRANCH   1  16
TORSDOF 2
ENDMDL
MODEL 8
REMARK VINA RESULT:      -7.2      3.505      6.399
REMARK  Name = 
REMARK  4 active torsions:
REMARK  status: ('A' for Active; 'I' for Inactive)
REMARK    1  A    between atoms: C_1  and  C_2
REMARK    2  A    between atoms: C_2  and  C_4
REMARK    3  A    between atoms: C_8  and  N_9
REMARK    4  A    between atoms: C_16  and  C_17
REMARK                            x       y       z     vdW  Elec       q    Type
REMARK                         _______ _______ _______ _____ _____    ______ ____
ROOT
ATOM      1  N   UNL     1       3.956   4.988  17.700  0.00  0.00    +0.000 N 
ATOM      2  C   UNL     1       3.716   3.936  16.838  0.00  0.00    +0.000 A 
ATOM      3  N   UNL     1       4.618   3.838  15.886  0.00  0.00    +0.000 NA
ATOM      4  C   UNL     1       5.511   4.853  16.145  0.00  0.00    +0.000 A 
ATOM      5  C   UNL     1       6.708   5.260  15.575  0.00  0.00    +0.000 A 
ATOM      6 CL   UNL     1       7.312   4.411  14.240  0.00  0.00    +0.000 Cl
ATOM      7  N   UNL     1       7.439   6.265  16.088  0.00  0.00    +0.000 NA
ATOM      8  C   UNL     1       6.953   6.891  17.177  0.00  0.00    +0.000 A 
ATOM      9  C   UNL     1       7.809   7.958  17.792  0.00  0.00    +0.000 C 
ATOM     10  N   UNL     1       5.787   6.624  17.802  0.00  0.00    +0.000 NA
ATOM     11  C   UNL     1       5.113   5.597  17.247  0.00  0.00    +0.000 A 
ENDROOT
BRANCH   1  16
ATOM     12  C   UNL     1       1.967   6.998  20.121  0.00  0.00    +0.000 A 
ATOM     13  C   UNL     1       1.657   6.016  21.070  0.00  0.00    +0.000 A 
ATOM     14  C   UNL     1       2.087   4.701  20.898  0.00  0.00    +0.000 A 
ATOM     15  C   UNL     1       2.828   4.353  19.769  0.00  0.00    +0.000 A 
ATOM     16  C   UNL     1       3.178   5.333  18.834  0.00  0.00    +0.000 A 
ATOM     17  C   UNL     1       2.754   6.659  19.011  0.00  0.00    +0.000 A 
BRANCH  12  19
ATOM     18  C   UNL     1       0.951   8.790  21.683  0.00  0.00    +0.000 C 
ATOM     19  C   UNL     1       1.414   8.371  20.313  0.00  0.00    +0.000 C 
ATOM     20  O   UNL     1       1.364   9.148  19.360  0.00  0.00    +0.000 OA
ENDBRANCH  12  19
ENDBRANCH   1  16
TORSDOF 2
ENDMDL
MODEL 9
REMARK VINA RESULT:      -7.1      4.395      6.186
REMARK  Name = 
REMARK  4 active torsions:
REMARK  status: ('A' for Active; 'I' for Inactive)
REMARK    1  A    between atoms: C_1  and  C_2
REMARK    2  A    between atoms: C_2  and  C_4
REMARK    3  A    between atoms: C_8  and  N_9
REMARK    4  A    between atoms: C_16  and  C_17
REMARK                            x       y       z     vdW  Elec       q    Type
REMARK                         _______ _______ _______ _____ _____    ______ ____
ROOT
ATOM      1  N   UNL     1       2.275   7.728  18.806  0.00  0.00    +0.000 N 
ATOM      2  C   UNL     1       2.460   8.411  17.620  0.00  0.00    +0.000 A 
ATOM      3  N   UNL     1       1.930   9.615  17.635  0.00  0.00    +0.000 NA
ATOM      4  C   UNL     1       1.396   9.745  18.897  0.00  0.00    +0.000 A 
ATOM      5  C   UNL     1       0.765  10.774  19.581  0.00  0.00    +0.000 A 
ATOM      6 CL   UNL     1       0.518  12.253  18.794  0.00  0.00    +0.000 Cl
ATOM      7  N   UNL     1       0.401  10.658  20.870  0.00  0.00    +0.000 NA
ATOM      8  C   UNL     1       0.652   9.484  21.482  0.00  0.00    +0.000 A 
ATOM      9  C   UNL     1       0.317   9.387  22.940  0.00  0.00    +0.000 C 
ATOM     10  N   UNL     1       1.219   8.395  20.922  0.00  0.00    +0.000 NA
ATOM     11  C   UNL     1       1.572   8.583  19.635  0.00  0.00    +0.000 A 
ENDROOT
BRANCH   1  16
ATOM     12  C   UNL     1       2.327   4.159  19.863  0.00  0.00    +0.000 A 
ATOM     13  C   UNL     1       3.686   3.865  19.696  0.00  0.00    +0.000 A 
ATOM     14  C   UNL     1       4.568   4.834  19.221  0.00  0.00    +0.000 A 
ATOM     15  C   UNL     1       4.099   6.108  18.901  0.00  0.00    +0.000 A 
ATOM     16  C   UNL     1       2.751   6.425  19.102  0.00  0.00    +0.000 A 
ATOM     17  C   UNL     1       1.863   5.453  19.589  0.00  0.00    +0.000 A 
BRANCH  12  19
ATOM     18  C   UNL     1       1.509   2.541  21.706  0.00  0.00    +0.000 C 
ATOM     19  C   UNL     1       1.412   3.062  20.297  0.00  0.00    +0.000 C 
ATOM     20  O   UNL     1       0.578   2.615  19.510  0.00  0.00    +0.000 OA
ENDBRANCH  12  19
ENDBRANCH   1  16
TORSDOF 2
ENDMDL
