MODEL 1
REMARK VINA RESULT:      -9.0      0.000      0.000
REMARK  Name = 
REMARK  8 active torsions:
REMARK  status: ('A' for Active; 'I' for Inactive)
REMARK    1  A    between atoms: C_1  and  C_2
REMARK    2  A    between atoms: C_5  and  S_6
REMARK    3  A    between atoms: S_6  and  N_9
REMARK    4  A    between atoms: N_9  and  C_10
REMARK    5  A    between atoms: C_10  and  C_11
REMARK    6  A    between atoms: N_13  and  C_14
REMARK    7  A    between atoms: C_14  and  C_15
REMARK    8  A    between atoms: C_25  and  C_26
REMARK                            x       y       z     vdW  Elec       q    Type
REMARK                         _______ _______ _______ _____ _____    ______ ____
ROOT
ATOM      1  C   UNL     1       2.288   7.778  19.024  0.00  0.00    +0.000 C 
ENDROOT
BRANCH   1   2
ATOM      2  C   UNL     1       2.628   6.528  18.173  0.00  0.00    +0.000 C 
ATOM      3  C   UNL     1       4.095   6.627  17.689  0.00  0.00    +0.000 C 
ATOM      4  N   UNL     1       4.648   5.272  17.656  0.00  0.00    +0.000 NA
ATOM      5  C   UNL     1       3.967   4.580  18.758  0.00  0.00    +0.000 C 
ATOM      6  C   UNL     1       2.508   5.094  18.810  0.00  0.00    +0.000 C 
ATOM      7  C   UNL     1       2.012   5.059  20.264  0.00  0.00    +0.000 C 
ATOM      8  C   UNL     1       1.754   3.673  20.840  0.00  0.00    +0.000 C 
ATOM      9  C   UNL     1       0.762   2.909  19.979  0.00  0.00    +0.000 C 
ATOM     10  C   UNL     1       1.252   2.839  18.542  0.00  0.00    +0.000 C 
ATOM     11  C   UNL     1       1.511   4.237  17.973  0.00  0.00    +0.000 C 
BRANCH   4  12
ATOM     12  C   UNL     1       4.498   4.564  16.387  0.00  0.00    +0.000 C 
BRANCH  12  13
ATOM     13  C   UNL     1       5.769   3.927  15.917  0.00  0.00    +0.000 C 
ATOM     14  C   UNL     1       6.129   4.050  14.454  0.00  0.00    +0.000 C 
ATOM     15  C   UNL     1       6.939   4.779  15.485  0.00  0.00    +0.000 C 
ENDBRANCH  12  13
ENDBRANCH   4  12
ENDBRANCH   1   2
BRANCH   1  16
ATOM     16  N   UNL     1       1.629   8.820  18.216  0.00  0.00    +0.000 NA
ATOM     17  H   UNL     1       2.105   9.088  17.352  0.00  0.00    +0.000 HD
BRANCH  16  18
ATOM     18  S   UNL     1       1.052  10.228  18.972  0.00  0.00    +0.000 S 
ATOM     19  O   UNL     1       1.883  11.272  18.409  0.00  0.00    +0.000 OA
ATOM     20  O   UNL     1       0.997   9.973  20.395  0.00  0.00    +0.000 OA
BRANCH  18  25
ATOM     21  C   UNL     1      -4.631  11.195  16.920  0.00  0.00    +0.000 C 
ATOM     22  C   UNL     1      -3.234  10.973  17.419  0.00  0.00    +0.000 A 
ATOM     23  C   UNL     1      -2.456   9.936  16.917  0.00  0.00    +0.000 A 
ATOM     24  C   UNL     1      -1.173   9.724  17.422  0.00  0.00    +0.000 A 
ATOM     25  C   UNL     1      -0.616  10.538  18.405  0.00  0.00    +0.000 A 
ATOM     26  C   UNL     1      -1.389  11.588  18.929  0.00  0.00    +0.000 A 
ATOM     27  C   UNL     1      -0.940  12.494  20.045  0.00  0.00    +0.000 C 
ATOM     28  C   UNL     1      -2.698  11.780  18.432  0.00  0.00    +0.000 A 
ENDBRANCH  18  25
ENDBRANCH  16  18
ENDBRANCH   1  16
TORSDOF 6
ENDMDL
MODEL 2
REMARK VINA RESULT:      -8.5      1.253      3.695
REMARK  Name = 
REMARK  8 active torsions:
REMARK  status: ('A' for Active; 'I' for Inactive)
REMARK    1  A    between atoms: C_1  and  C_2
REMARK    2  A    between atoms: C_5  and  S_6
REMARK    3  A    between atoms: S_6  and  N_9
REMARK    4  A    between atoms: N_9  and  C_10
REMARK    5  A    between atoms: C_10  and  C_11
REMARK    6  A    between atoms: N_13  and  C_14
REMARK    7  A    between atoms: C_14  and  C_15
REMARK    8  A    between atoms: C_25  and  C_26
REMARK                            x       y       z     vdW  Elec       q    Type
REMARK                         _______ _______ _______ _____ _____    ______ ____
ROOT
ATOM      1  C   UNL     1       2.903   8.164  17.806  0.00  0.00    +0.000 C 
ENDROOT
BRANCH   1   2
ATOM      2  C   UNL     1       3.161   6.738  18.355  0.00  0.00    +0.000 C 
ATOM      3  C   UNL     1       2.036   5.794  17.868  0.00  0.00    +0.000 C 
ATOM      4  N   UNL     1       2.624   4.474  17.640  0.00  0.00    +0.000 NA
ATOM      5  C   UNL     1       3.993   4.765  17.195  0.00  0.00    +0.000 C 
ATOM      6  C   UNL     1       4.500   5.993  17.991  0.00  0.00    +0.000 C 
ATOM      7  C   UNL     1       5.480   6.791  17.118  0.00  0.00    +0.000 C 
ATOM      8  C   UNL     1       6.835   6.136  16.882  0.00  0.00    +0.000 C 
ATOM      9  C   UNL     1       7.518   5.821  18.203  0.00  0.00    +0.000 C 
ATOM     10  C   UNL     1       6.619   4.957  19.071  0.00  0.00    +0.000 C 
ATOM     11  C   UNL     1       5.259   5.622  19.300  0.00  0.00    +0.000 C 
BRANCH   4  12
ATOM     12  C   UNL     1       2.601   3.569  18.786  0.00  0.00    +0.000 C 
BRANCH  12  13
ATOM     13  C   UNL     1       1.607   3.974  19.832  0.00  0.00    +0.000 C 
ATOM     14  C   UNL     1       1.369   3.032  20.989  0.00  0.00    +0.000 C 
ATOM     15  C   UNL     1       2.066   4.341  21.223  0.00  0.00    +0.000 C 
ENDBRANCH  12  13
ENDBRANCH   4  12
ENDBRANCH   1   2
BRANCH   1  16
ATOM     16  N   UNL     1       1.473   8.518  17.873  0.00  0.00    +0.000 NA
ATOM     17  H   UNL     1       0.976   8.559  16.981  0.00  0.00    +0.000 HD
BRANCH  16  18
ATOM     18  S   UNL     1       0.979   9.837  18.825  0.00  0.00    +0.000 S 
ATOM     19  O   UNL     1       1.867  10.901  18.405  0.00  0.00    +0.000 OA
ATOM     20  O   UNL     1       0.912   9.387  20.198  0.00  0.00    +0.000 OA
BRANCH  18  25
ATOM     21  C   UNL     1      -4.645  11.399  16.987  0.00  0.00    +0.000 C 
ATOM     22  C   UNL     1      -3.261  11.031  17.436  0.00  0.00    +0.000 A 
ATOM     23  C   UNL     1      -2.556  10.014  16.803  0.00  0.00    +0.000 A 
ATOM     24  C   UNL     1      -1.286   9.661  17.261  0.00  0.00    +0.000 A 
ATOM     25  C   UNL     1      -0.669  10.317  18.324  0.00  0.00    +0.000 A 
ATOM     26  C   UNL     1      -1.369  11.345  18.979  0.00  0.00    +0.000 A 
ATOM     27  C   UNL     1      -0.854  12.082  20.186  0.00  0.00    +0.000 C 
ATOM     28  C   UNL     1      -2.666  11.676  18.528  0.00  0.00    +0.000 A 
ENDBRANCH  18  25
ENDBRANCH  16  18
ENDBRANCH   1  16
TORSDOF 6
ENDMDL
MODEL 3
REMARK VINA RESULT:      -8.4      1.819      2.821
REMARK  Name = 
REMARK  8 active torsions:
REMARK  status: ('A' for Active; 'I' for Inactive)
REMARK    1  A    between atoms: C_1  and  C_2
REMARK    2  A    between atoms: C_5  and  S_6
REMARK    3  A    between atoms: S_6  and  N_9
REMARK    4  A    between atoms: N_9  and  C_10
REMARK    5  A    between atoms: C_10  and  C_11
REMARK    6  A    between atoms: N_13  and  C_14
REMARK    7  A    between atoms: C_14  and  C_15
REMARK    8  A    between atoms: C_25  and  C_26
REMARK                            x       y       z     vdW  Elec       q    Type
REMARK                         _______ _______ _______ _____ _____    ______ ____
ROOT
ATOM      1  C   UNL     1       2.202   7.915  19.044  0.00  0.00    +0.000 C 
ENDROOT
BRANCH   1   2
ATOM      2  C   UNL     1       2.585   6.681  18.189  0.00  0.00    +0.000 C 
ATOM      3  C   UNL     1       4.054   6.821  17.724  0.00  0.00    +0.000 C 
ATOM      4  N   UNL     1       4.644   5.482  17.689  0.00  0.00    +0.000 NA
ATOM      5  C   UNL     1       3.969   4.765  18.779  0.00  0.00    +0.000 C 
ATOM      6  C   UNL     1       2.495   5.240  18.817  0.00  0.00    +0.000 C 
ATOM      7  C   UNL     1       1.984   5.183  20.265  0.00  0.00    +0.000 C 
ATOM      8  C   UNL     1       1.757   3.787  20.830  0.00  0.00    +0.000 C 
ATOM      9  C   UNL     1       0.796   3.002  19.953  0.00  0.00    +0.000 C 
ATOM     10  C   UNL     1       1.304   2.954  18.522  0.00  0.00    +0.000 C 
ATOM     11  C   UNL     1       1.532   4.361  17.964  0.00  0.00    +0.000 C 
BRANCH   4  12
ATOM     12  C   UNL     1       4.527   4.778  16.415  0.00  0.00    +0.000 C 
BRANCH  12  13
ATOM     13  C   UNL     1       5.775   4.041  16.035  0.00  0.00    +0.000 C 
ATOM     14  C   UNL     1       6.131   3.952  14.569  0.00  0.00    +0.000 C 
ATOM     15  C   UNL     1       6.970   4.789  15.490  0.00  0.00    +0.000 C 
ENDBRANCH  12  13
ENDBRANCH   4  12
ENDBRANCH   1   2
BRANCH   1  16
ATOM     16  N   UNL     1       1.795   9.053  18.198  0.00  0.00    +0.000 NA
ATOM     17  H   UNL     1       2.546   9.668  17.878  0.00  0.00    +0.000 HD
BRANCH  16  18
ATOM     18  S   UNL     1       0.474  10.015  18.664  0.00  0.00    +0.000 S 
ATOM     19  O   UNL     1       0.275   9.656  20.053  0.00  0.00    +0.000 OA
ATOM     20  O   UNL     1      -0.564   9.849  17.670  0.00  0.00    +0.000 OA
BRANCH  18  25
ATOM     21  C   UNL     1       2.352  15.838  18.588  0.00  0.00    +0.000 C 
ATOM     22  C   UNL     1       1.888  14.412  18.621  0.00  0.00    +0.000 A 
ATOM     23  C   UNL     1       2.749  13.376  18.281  0.00  0.00    +0.000 A 
ATOM     24  C   UNL     1       2.285  12.060  18.282  0.00  0.00    +0.000 A 
ATOM     25  C   UNL     1       0.982  11.730  18.645  0.00  0.00    +0.000 A 
ATOM     26  C   UNL     1       0.096  12.765  18.988  0.00  0.00    +0.000 A 
ATOM     27  C   UNL     1      -1.357  12.557  19.327  0.00  0.00    +0.000 C 
ATOM     28  C   UNL     1       0.564  14.098  18.958  0.00  0.00    +0.000 A 
ENDBRANCH  18  25
ENDBRANCH  16  18
ENDBRANCH   1  16
TORSDOF 6
ENDMDL
MODEL 4
REMARK VINA RESULT:      -8.1      1.960      4.402
REMARK  Name = 
REMARK  8 active torsions:
REMARK  status: ('A' for Active; 'I' for Inactive)
REMARK    1  A    between atoms: C_1  and  C_2
REMARK    2  A    between atoms: C_5  and  S_6
REMARK    3  A    between atoms: S_6  and  N_9
REMARK    4  A    between atoms: N_9  and  C_10
REMARK    5  A    between atoms: C_10  and  C_11
REMARK    6  A    between atoms: N_13  and  C_14
REMARK    7  A    between atoms: C_14  and  C_15
REMARK    8  A    between atoms: C_25  and  C_26
REMARK                            x       y       z     vdW  Elec       q    Type
REMARK                         _______ _______ _______ _____ _____    ______ ____
ROOT
ATOM      1  C   UNL     1       2.553   7.781  17.908  0.00  0.00    +0.000 C 
ENDROOT
BRANCH   1   2
ATOM      2  C   UNL     1       3.001   6.406  18.464  0.00  0.00    +0.000 C 
ATOM      3  C   UNL     1       1.966   5.331  18.055  0.00  0.00    +0.000 C 
ATOM      4  N   UNL     1       2.689   4.081  17.815  0.00  0.00    +0.000 NA
ATOM      5  C   UNL     1       3.990   4.515  17.290  0.00  0.00    +0.000 C 
ATOM      6  C   UNL     1       4.395   5.809  18.038  0.00  0.00    +0.000 C 
ATOM      7  C   UNL     1       5.230   6.694  17.100  0.00  0.00    +0.000 C 
ATOM      8  C   UNL     1       6.636   6.192  16.800  0.00  0.00    +0.000 C 
ATOM      9  C   UNL     1       7.420   5.985  18.086  0.00  0.00    +0.000 C 
ATOM     10  C   UNL     1       6.673   5.043  19.015  0.00  0.00    +0.000 C 
ATOM     11  C   UNL     1       5.260   5.555  19.309  0.00  0.00    +0.000 C 
BRANCH   4  12
ATOM     12  C   UNL     1       2.830   3.204  18.975  0.00  0.00    +0.000 C 
BRANCH  12  13
ATOM     13  C   UNL     1       1.763   3.419  20.004  0.00  0.00    +0.000 C 
ATOM     14  C   UNL     1       1.728   2.492  21.197  0.00  0.00    +0.000 C 
ATOM     15  C   UNL     1       2.118   3.930  21.381  0.00  0.00    +0.000 C 
ENDBRANCH  12  13
ENDBRANCH   4  12
ENDBRANCH   1   2
BRANCH   1  16
ATOM     16  N   UNL     1       1.866   8.583  18.938  0.00  0.00    +0.000 NA
ATOM     17  H   UNL     1       1.270   8.067  19.588  0.00  0.00    +0.000 HD
BRANCH  16  18
ATOM     18  S   UNL     1       1.064  10.012  18.490  0.00  0.00    +0.000 S 
ATOM     19  O   UNL     1       0.089   9.557  17.521  0.00  0.00    +0.000 OA
ATOM     20  O   UNL     1       2.070  10.999  18.165  0.00  0.00    +0.000 OA
BRANCH  18  25
ATOM     21  C   UNL     1      -2.053  11.950  23.388  0.00  0.00    +0.000 C 
ATOM     22  C   UNL     1      -1.302  11.472  22.179  0.00  0.00    +0.000 A 
ATOM     23  C   UNL     1      -0.427  10.397  22.265  0.00  0.00    +0.000 A 
ATOM     24  C   UNL     1       0.290   9.994  21.138  0.00  0.00    +0.000 A 
ATOM     25  C   UNL     1       0.142  10.614  19.900  0.00  0.00    +0.000 A 
ATOM     26  C   UNL     1      -0.736  11.707  19.795  0.00  0.00    +0.000 A 
ATOM     27  C   UNL     1      -0.934  12.515  18.540  0.00  0.00    +0.000 C 
ATOM     28  C   UNL     1      -1.437  12.127  20.948  0.00  0.00    +0.000 A 
ENDBRANCH  18  25
ENDBRANCH  16  18
ENDBRANCH   1  16
TORSDOF 6
ENDMDL
MODEL 5
REMARK VINA RESULT:      -8.0      1.741      2.465
REMARK  Name = 
REMARK  8 active torsions:
REMARK  status: ('A' for Active; 'I' for Inactive)
REMARK    1  A    between atoms: C_1  and  C_2
REMARK    2  A    between atoms: C_5  and  S_6
REMARK    3  A    between atoms: S_6  and  N_9
REMARK    4  A    between atoms: N_9  and  C_10
REMARK    5  A    between atoms: C_10  and  C_11
REMARK    6  A    between atoms: N_13  and  C_14
REMARK    7  A    between atoms: C_14  and  C_15
REMARK    8  A    between atoms: C_25  and  C_26
REMARK                            x       y       z     vdW  Elec       q    Type
REMARK                         _______ _______ _______ _____ _____    ______ ____
ROOT
ATOM      1  C   UNL     1       2.584   7.849  18.974  0.00  0.00    +0.000 C 
ENDROOT
BRANCH   1   2
ATOM      2  C   UNL     1       2.844   6.575  18.131  0.00  0.00    +0.000 C 
ATOM      3  C   UNL     1       4.306   6.588  17.626  0.00  0.00    +0.000 C 
ATOM      4  N   UNL     1       4.785   5.205  17.600  0.00  0.00    +0.000 NA
ATOM      5  C   UNL     1       4.084   4.563  18.719  0.00  0.00    +0.000 C 
ATOM      6  C   UNL     1       2.655   5.155  18.786  0.00  0.00    +0.000 C 
ATOM      7  C   UNL     1       2.180   5.163  20.247  0.00  0.00    +0.000 C 
ATOM      8  C   UNL     1       1.856   3.799  20.842  0.00  0.00    +0.000 C 
ATOM      9  C   UNL     1       0.811   3.080  20.003  0.00  0.00    +0.000 C 
ATOM     10  C   UNL     1       1.276   2.970  18.560  0.00  0.00    +0.000 C 
ATOM     11  C   UNL     1       1.601   4.345  17.973  0.00  0.00    +0.000 C 
BRANCH   4  12
ATOM     12  C   UNL     1       4.578   4.494  16.341  0.00  0.00    +0.000 C 
BRANCH  12  13
ATOM     13  C   UNL     1       5.833   3.879  15.802  0.00  0.00    +0.000 C 
ATOM     14  C   UNL     1       6.078   3.950  14.312  0.00  0.00    +0.000 C 
ATOM     15  C   UNL     1       6.936   4.750  15.248  0.00  0.00    +0.000 C 
ENDBRANCH  12  13
ENDBRANCH   4  12
ENDBRANCH   1   2
BRANCH   1  16
ATOM     16  N   UNL     1       1.176   8.277  18.887  0.00  0.00    +0.000 NA
ATOM     17  H   UNL     1       0.539   7.638  18.406  0.00  0.00    +0.000 HD
BRANCH  16  18
ATOM     18  S   UNL     1       0.809   9.865  18.407  0.00  0.00    +0.000 S 
ATOM     19  O   UNL     1      -0.285   9.687  17.476  0.00  0.00    +0.000 OA
ATOM     20  O   UNL     1       2.048  10.506  18.024  0.00  0.00    +0.000 OA
BRANCH  18  25
ATOM     21  C   UNL     1      -1.457  12.762  23.297  0.00  0.00    +0.000 C 
ATOM     22  C   UNL     1      -0.915  12.054  22.091  0.00  0.00    +0.000 A 
ATOM     23  C   UNL     1      -0.405  10.765  22.193  0.00  0.00    +0.000 A 
ATOM     24  C   UNL     1       0.129  10.139  21.066  0.00  0.00    +0.000 A 
ATOM     25  C   UNL     1       0.147  10.749  19.814  0.00  0.00    +0.000 A 
ATOM     26  C   UNL     1      -0.360  12.054  19.693  0.00  0.00    +0.000 A 
ATOM     27  C   UNL     1      -0.333  12.857  18.419  0.00  0.00    +0.000 C 
ATOM     28  C   UNL     1      -0.873  12.692  20.844  0.00  0.00    +0.000 A 
ENDBRANCH  18  25
ENDBRANCH  16  18
ENDBRANCH   1  16
TORSDOF 6
ENDMDL
MODEL 6
REMARK VINA RESULT:      -7.9      2.083      4.804
REMARK  Name = 
REMARK  8 active torsions:
REMARK  status: ('A' for Active; 'I' for Inactive)
REMARK    1  A    between atoms: C_1  and  C_2
REMARK    2  A    between atoms: C_5  and  S_6
REMARK    3  A    between atoms: S_6  and  N_9
REMARK    4  A    between atoms: N_9  and  C_10
REMARK    5  A    between atoms: C_10  and  C_11
REMARK    6  A    between atoms: N_13  and  C_14
REMARK    7  A    between atoms: C_14  and  C_15
REMARK    8  A    between atoms: C_25  and  C_26
REMARK                            x       y       z     vdW  Elec       q    Type
REMARK                         _______ _______ _______ _____ _____    ______ ____
ROOT
ATOM      1  C   UNL     1       3.272   7.847  17.429  0.00  0.00    +0.000 C 
ENDROOT
BRANCH   1   2
ATOM      2  C   UNL     1       3.757   6.547  18.120  0.00  0.00    +0.000 C 
ATOM      3  C   UNL     1       2.529   5.696  18.522  0.00  0.00    +0.000 C 
ATOM      4  N   UNL     1       2.892   4.286  18.377  0.00  0.00    +0.000 NA
ATOM      5  C   UNL     1       3.833   4.273  17.250  0.00  0.00    +0.000 C 
ATOM      6  C   UNL     1       4.698   5.554  17.340  0.00  0.00    +0.000 C 
ATOM      7  C   UNL     1       5.093   5.997  15.923  0.00  0.00    +0.000 C 
ATOM      8  C   UNL     1       6.117   5.117  15.218  0.00  0.00    +0.000 C 
ATOM      9  C   UNL     1       7.383   4.992  16.050  0.00  0.00    +0.000 C 
ATOM     10  C   UNL     1       7.054   4.471  17.440  0.00  0.00    +0.000 C 
ATOM     11  C   UNL     1       6.023   5.361  18.138  0.00  0.00    +0.000 C 
BRANCH   4  12
ATOM     12  C   UNL     1       3.455   3.657  19.569  0.00  0.00    +0.000 C 
BRANCH  12  13
ATOM     13  C   UNL     1       2.536   2.651  20.191  0.00  0.00    +0.000 C 
ATOM     14  C   UNL     1       2.152   2.837  21.641  0.00  0.00    +0.000 C 
ATOM     15  C   UNL     1       1.123   3.033  20.566  0.00  0.00    +0.000 C 
ENDBRANCH  12  13
ENDBRANCH   4  12
ENDBRANCH   1   2
BRANCH   1  16
ATOM     16  N   UNL     1       1.816   8.024  17.573  0.00  0.00    +0.000 NA
ATOM     17  H   UNL     1       1.237   7.627  16.830  0.00  0.00    +0.000 HD
BRANCH  16  18
ATOM     18  S   UNL     1       1.193   9.553  17.979  0.00  0.00    +0.000 S 
ATOM     19  O   UNL     1      -0.086   9.581  17.302  0.00  0.00    +0.000 OA
ATOM     20  O   UNL     1       2.225  10.532  17.717  0.00  0.00    +0.000 OA
BRANCH  18  25
ATOM     21  C   UNL     1       0.049   9.503  23.991  0.00  0.00    +0.000 C 
ATOM     22  C   UNL     1       0.315   9.515  22.514  0.00  0.00    +0.000 A 
ATOM     23  C   UNL     1       1.056   8.503  21.916  0.00  0.00    +0.000 A 
ATOM     24  C   UNL     1       1.323   8.554  20.547  0.00  0.00    +0.000 A 
ATOM     25  C   UNL     1       0.845   9.579  19.734  0.00  0.00    +0.000 A 
ATOM     26  C   UNL     1       0.098  10.614  20.322  0.00  0.00    +0.000 A 
ATOM     27  C   UNL     1      -0.412  11.818  19.575  0.00  0.00    +0.000 C 
ATOM     28  C   UNL     1      -0.144  10.570  21.713  0.00  0.00    +0.000 A 
ENDBRANCH  18  25
ENDBRANCH  16  18
ENDBRANCH   1  16
TORSDOF 6
ENDMDL
MODEL 7
REMARK VINA RESULT:      -7.8      2.085      4.475
REMARK  Name = 
REMARK  8 active torsions:
REMARK  status: ('A' for Active; 'I' for Inactive)
REMARK    1  A    between atoms: C_1  and  C_2
REMARK    2  A    between atoms: C_5  and  S_6
REMARK    3  A    between atoms: S_6  and  N_9
REMARK    4  A    between atoms: N_9  and  C_10
REMARK    5  A    between atoms: C_10  and  C_11
REMARK    6  A    between atoms: N_13  and  C_14
REMARK    7  A    between atoms: C_14  and  C_15
REMARK    8  A    between atoms: C_25  and  C_26
REMARK                            x       y       z     vdW  Elec       q    Type
REMARK                         _______ _______ _______ _____ _____    ______ ____
ROOT
ATOM      1  C   UNL     1       2.544   7.864  18.015  0.00  0.00    +0.000 C 
ENDROOT
BRANCH   1   2
ATOM      2  C   UNL     1       2.962   6.457  18.514  0.00  0.00    +0.000 C 
ATOM      3  C   UNL     1       1.912   5.420  18.048  0.00  0.00    +0.000 C 
ATOM      4  N   UNL     1       2.614   4.169  17.759  0.00  0.00    +0.000 NA
ATOM      5  C   UNL     1       3.929   4.602  17.267  0.00  0.00    +0.000 C 
ATOM      6  C   UNL     1       4.349   5.854  18.075  0.00  0.00    +0.000 C 
ATOM      7  C   UNL     1       5.210   6.763  17.186  0.00  0.00    +0.000 C 
ATOM      8  C   UNL     1       6.610   6.249  16.877  0.00  0.00    +0.000 C 
ATOM      9  C   UNL     1       7.376   5.972  18.160  0.00  0.00    +0.000 C 
ATOM     10  C   UNL     1       6.602   5.004  19.040  0.00  0.00    +0.000 C 
ATOM     11  C   UNL     1       5.196   5.528  19.342  0.00  0.00    +0.000 C 
BRANCH   4  12
ATOM     12  C   UNL     1       2.727   3.240  18.880  0.00  0.00    +0.000 C 
BRANCH  12  13
ATOM     13  C   UNL     1       1.709   3.488  19.951  0.00  0.00    +0.000 C 
ATOM     14  C   UNL     1       1.694   2.564  21.147  0.00  0.00    +0.000 C 
ATOM     15  C   UNL     1       2.134   3.990  21.311  0.00  0.00    +0.000 C 
ENDBRANCH  12  13
ENDBRANCH   4  12
ENDBRANCH   1   2
BRANCH   1  16
ATOM     16  N   UNL     1       1.816   8.613  19.055  0.00  0.00    +0.000 NA
ATOM     17  H   UNL     1       1.208   8.062  19.665  0.00  0.00    +0.000 HD
BRANCH  16  18
ATOM     18  S   UNL     1       1.005  10.048  18.643  0.00  0.00    +0.000 S 
ATOM     19  O   UNL     1       0.048   9.615  17.647  0.00  0.00    +0.000 OA
ATOM     20  O   UNL     1       2.006  11.054  18.363  0.00  0.00    +0.000 OA
BRANCH  18  25
ATOM     21  C   UNL     1      -2.278  12.040  23.408  0.00  0.00    +0.000 C 
ATOM     22  C   UNL     1      -1.460  11.555  22.247  0.00  0.00    +0.000 A 
ATOM     23  C   UNL     1      -1.628  12.102  20.981  0.00  0.00    +0.000 A 
ATOM     24  C   UNL     1      -0.884  11.610  19.908  0.00  0.00    +0.000 A 
ATOM     25  C   UNL     1       0.059  10.596  20.059  0.00  0.00    +0.000 A 
ATOM     26  C   UNL     1       0.239  10.027  21.331  0.00  0.00    +0.000 A 
ATOM     27  C   UNL     1       1.167   8.877  21.619  0.00  0.00    +0.000 C 
ATOM     28  C   UNL     1      -0.538  10.511  22.407  0.00  0.00    +0.000 A 
ENDBRANCH  18  25
ENDBRANCH  16  18
ENDBRANCH   1  16
TORSDOF 6
ENDMDL
MODEL 8
REMARK VINA RESULT:      -7.7      2.453      2.603
REMARK  Name = 
REMARK  8 active torsions:
REMARK  status: ('A' for Active; 'I' for Inactive)
REMARK    1  A    between atoms: C_1  and  C_2
REMARK    2  A    between atoms: C_5  and  S_6
REMARK    3  A    between atoms: S_6  and  N_9
REMARK    4  A    between atoms: N_9  and  C_10
REMARK    5  A    between atoms: C_10  and  C_11
REMARK    6  A    between atoms: N_13  and  C_14
REMARK    7  A    between atoms: C_14  and  C_15
REMARK    8  A    between atoms: C_25  and  C_26
REMARK                            x       y       z     vdW  Elec       q    Type
REMARK                         _______ _______ _______ _____ _____    ______ ____
ROOT
ATOM      1  C   UNL     1       1.634   6.727  20.525  0.00  0.00    +0.000 C 
ENDROOT
BRANCH   1   2
ATOM      2  C   UNL     1       2.328   6.162  19.259  0.00  0.00    +0.000 C 
ATOM      3  C   UNL     1       3.685   6.880  19.061  0.00  0.00    +0.000 C 
ATOM      4  N   UNL     1       4.628   5.910  18.502  0.00  0.00    +0.000 NA
ATOM      5  C   UNL     1       4.213   4.629  19.088  0.00  0.00    +0.000 C 
ATOM      6  C   UNL     1       2.667   4.626  19.176  0.00  0.00    +0.000 C 
ATOM      7  C   UNL     1       2.232   3.789  20.388  0.00  0.00    +0.000 C 
ATOM      8  C   UNL     1       2.424   2.284  20.253  0.00  0.00    +0.000 C 
ATOM      9  C   UNL     1       1.701   1.758  19.024  0.00  0.00    +0.000 C 
ATOM     10  C   UNL     1       2.164   2.498  17.780  0.00  0.00    +0.000 C 
ATOM     11  C   UNL     1       1.969   4.009  17.926  0.00  0.00    +0.000 C 
BRANCH   4  12
ATOM     12  C   UNL     1       4.681   5.855  17.044  0.00  0.00    +0.000 C 
BRANCH  12  13
ATOM     13  C   UNL     1       5.359   4.623  16.528  0.00  0.00    +0.000 C 
ATOM     14  C   UNL     1       5.339   4.370  15.038  0.00  0.00    +0.000 C 
ATOM     15  C   UNL     1       6.629   4.729  15.717  0.00  0.00    +0.000 C 
ENDBRANCH  12  13
ENDBRANCH   4  12
ENDBRANCH   1   2
BRANCH   1  16
ATOM     16  N   UNL     1       1.855   8.178  20.661  0.00  0.00    +0.000 NA
ATOM     17  H   UNL     1       2.814   8.472  20.852  0.00  0.00    +0.000 HD
BRANCH  16  18
ATOM     18  S   UNL     1       0.806   9.099  21.630  0.00  0.00    +0.000 S 
ATOM     19  O   UNL     1       1.611   9.403  22.795  0.00  0.00    +0.000 OA
ATOM     20  O   UNL     1      -0.447   8.383  21.726  0.00  0.00    +0.000 OA
BRANCH  18  25
ATOM     21  C   UNL     1      -0.182  14.388  18.716  0.00  0.00    +0.000 C 
ATOM     22  C   UNL     1       0.066  13.099  19.442  0.00  0.00    +0.000 A 
ATOM     23  C   UNL     1       0.832  12.094  18.864  0.00  0.00    +0.000 A 
ATOM     24  C   UNL     1       1.019  10.888  19.541  0.00  0.00    +0.000 A 
ATOM     25  C   UNL     1       0.486  10.655  20.807  0.00  0.00    +0.000 A 
ATOM     26  C   UNL     1      -0.295  11.658  21.405  0.00  0.00    +0.000 A 
ATOM     27  C   UNL     1      -0.991  11.510  22.732  0.00  0.00    +0.000 C 
ATOM     28  C   UNL     1      -0.503  12.866  20.701  0.00  0.00    +0.000 A 
ENDBRANCH  18  25
ENDBRANCH  16  18
ENDBRANCH   1  16
TORSDOF 6
ENDMDL
MODEL 9
REMARK VINA RESULT:      -7.7      1.672      2.601
REMARK  Name = 
REMARK  8 active torsions:
REMARK  status: ('A' for Active; 'I' for Inactive)
REMARK    1  A    between atoms: C_1  and  C_2
REMARK    2  A    between atoms: C_5  and  S_6
REMARK    3  A    between atoms: S_6  and  N_9
REMARK    4  A    between atoms: N_9  and  C_10
REMARK    5  A    between atoms: C_10  and  C_11
REMARK    6  A    between atoms: N_13  and  C_14
REMARK    7  A    between atoms: C_14  and  C_15
REMARK    8  A    between atoms: C_25  and  C_26
REMARK                            x       y       z     vdW  Elec       q    Type
REMARK                         _______ _______ _______ _____ _____    ______ ____
ROOT
ATOM      1  C   UNL     1       2.838   7.836  18.693  0.00  0.00    +0.000 C 
ENDROOT
BRANCH   1   2
ATOM      2  C   UNL     1       3.088   6.486  17.973  0.00  0.00    +0.000 C 
ATOM      3  C   UNL     1       4.582   6.387  17.585  0.00  0.00    +0.000 C 
ATOM      4  N   UNL     1       4.984   4.984  17.701  0.00  0.00    +0.000 NA
ATOM      5  C   UNL     1       4.167   4.469  18.808  0.00  0.00    +0.000 C 
ATOM      6  C   UNL     1       2.772   5.135  18.718  0.00  0.00    +0.000 C 
ATOM      7  C   UNL     1       2.191   5.283  20.132  0.00  0.00    +0.000 C 
ATOM      8  C   UNL     1       1.748   3.989  20.801  0.00  0.00    +0.000 C 
ATOM      9  C   UNL     1       0.730   3.259  19.940  0.00  0.00    +0.000 C 
ATOM     10  C   UNL     1       1.293   3.010  18.551  0.00  0.00    +0.000 C 
ATOM     11  C   UNL     1       1.738   4.316  17.888  0.00  0.00    +0.000 C 
BRANCH   4  12
ATOM     12  C   UNL     1       4.831   4.185  16.488  0.00  0.00    +0.000 C 
BRANCH  12  13
ATOM     13  C   UNL     1       5.392   4.855  15.271  0.00  0.00    +0.000 C 
ATOM     14  C   UNL     1       6.823   4.556  14.890  0.00  0.00    +0.000 C 
ATOM     15  C   UNL     1       5.701   4.053  14.029  0.00  0.00    +0.000 C 
ENDBRANCH  12  13
ENDBRANCH   4  12
ENDBRANCH   1   2
BRANCH   1  16
ATOM     16  N   UNL     1       1.402   8.170  18.733  0.00  0.00    +0.000 NA
ATOM     17  H   UNL     1       0.778   7.537  18.229  0.00  0.00    +0.000 HD
BRANCH  16  18
ATOM     18  S   UNL     1       0.904   9.767  18.433  0.00  0.00    +0.000 S 
ATOM     19  O   UNL     1      -0.097   9.614  17.398  0.00  0.00    +0.000 OA
ATOM     20  O   UNL     1       2.092  10.570  18.241  0.00  0.00    +0.000 OA
BRANCH  18  25
ATOM     21  C   UNL     1      -2.054  11.982  23.310  0.00  0.00    +0.000 C 
ATOM     22  C   UNL     1      -1.315  11.443  22.121  0.00  0.00    +0.000 A 
ATOM     23  C   UNL     1      -1.576  11.925  20.844  0.00  0.00    +0.000 A 
ATOM     24  C   UNL     1      -0.905  11.382  19.747  0.00  0.00    +0.000 A 
ATOM     25  C   UNL     1       0.055  10.381  19.882  0.00  0.00    +0.000 A 
ATOM     26  C   UNL     1       0.328   9.878  21.166  0.00  0.00    +0.000 A 
ATOM     27  C   UNL     1       1.283   8.748  21.446  0.00  0.00    +0.000 C 
ATOM     28  C   UNL     1      -0.377  10.413  22.268  0.00  0.00    +0.000 A 
ENDBRANCH  18  25
ENDBRANCH  16  18
ENDBRANCH   1  16
TORSDOF 6
ENDMDL
