MODEL 1
REMARK VINA RESULT:      -8.2      0.000      0.000
REMARK  Name = 
REMARK  6 active torsions:
REMARK  status: ('A' for Active; 'I' for Inactive)
REMARK    1  A    between atoms: C_1  and  O_2
REMARK    2  A    between atoms: O_2  and  C_3
REMARK    3  A    between atoms: C_6  and  C_7
REMARK    4  A    between atoms: N_9  and  C_10
REMARK    5  A    between atoms: C_19  and  O_20
REMARK    6  A    between atoms: O_20  and  C_21
REMARK                            x       y       z     vdW  Elec       q    Type
REMARK                         _______ _______ _______ _____ _____    ______ ____
ROOT
ATOM      1  C   UNL     1       4.294   4.524  16.975  0.00  0.00    +0.000 A 
ATOM      2  C   UNL     1       5.005   5.736  17.135  0.00  0.00    +0.000 A 
ATOM      3  C   UNL     1       4.414   6.886  17.635  0.00  0.00    +0.000 A 
ATOM      4  C   UNL     1       3.085   6.838  18.023  0.00  0.00    +0.000 A 
ATOM      5  C   UNL     1       2.359   5.653  17.888  0.00  0.00    +0.000 A 
ATOM      6  C   UNL     1       2.939   4.471  17.354  0.00  0.00    +0.000 A 
ENDROOT
BRANCH   4   7
ATOM      7  C   UNL     1       2.424   8.094  18.437  0.00  0.00    +0.000 C 
ATOM      8  O   UNL     1       2.761   9.130  17.895  0.00  0.00    +0.000 OA
ATOM      9  N   UNL     1       1.525   8.012  19.500  0.00  0.00    +0.000 N 
ATOM     10  H   UNL     1       1.710   7.301  20.197  0.00  0.00    +0.000 HD
BRANCH   9  11
ATOM     11  C   UNL     1       0.814   9.168  19.952  0.00  0.00    +0.000 A 
ATOM     12  C   UNL     1       0.016   9.960  19.117  0.00  0.00    +0.000 A 
ATOM     13  F   UNL     1      -0.197   9.615  17.840  0.00  0.00    +0.000 F 
ATOM     14  C   UNL     1      -0.664  11.077  19.616  0.00  0.00    +0.000 A 
ATOM     15  C   UNL     1      -0.541  11.430  20.960  0.00  0.00    +0.000 A 
ATOM     16  C   UNL     1       0.242  10.647  21.804  0.00  0.00    +0.000 A 
ATOM     17  C   UNL     1       0.891   9.517  21.306  0.00  0.00    +0.000 A 
ATOM     18  F   UNL     1       1.638   8.776  22.137  0.00  0.00    +0.000 F 
ENDBRANCH   9  11
ENDBRANCH   4   7
BRANCH   1  20
ATOM     19  C   UNL     1       6.054   3.834  15.435  0.00  0.00    +0.000 C 
ATOM     20  O   UNL     1       5.147   3.581  16.484  0.00  0.00    +0.000 OA
ENDBRANCH   1  20
BRANCH   6  21
ATOM     21  O   UNL     1       2.179   3.322  17.178  0.00  0.00    +0.000 OA
BRANCH  21  22
ATOM     22  C   UNL     1       2.117   2.411  18.316  0.00  0.00    +0.000 C 
ATOM     23  C   UNL     1       3.381   2.429  19.196  0.00  0.00    +0.000 C 
ATOM     24  C   UNL     1       3.395   3.289  20.451  0.00  0.00    +0.000 C 
ATOM     25  C   UNL     1       2.087   3.398  21.203  0.00  0.00    +0.000 C 
ATOM     26  C   UNL     1       0.850   3.504  20.329  0.00  0.00    +0.000 C 
ATOM     27  C   UNL     1       0.814   2.605  19.098  0.00  0.00    +0.000 C 
ENDBRANCH  21  22
ENDBRANCH   6  21
TORSDOF 5
ENDMDL
MODEL 2
REMARK VINA RESULT:      -8.1      1.409      2.439
REMARK  Name = 
REMARK  6 active torsions:
REMARK  status: ('A' for Active; 'I' for Inactive)
REMARK    1  A    between atoms: C_1  and  O_2
REMARK    2  A    between atoms: O_2  and  C_3
REMARK    3  A    between atoms: C_6  and  C_7
REMARK    4  A    between atoms: N_9  and  C_10
REMARK    5  A    between atoms: C_19  and  O_20
REMARK    6  A    between atoms: O_20  and  C_21
REMARK                            x       y       z     vdW  Elec       q    Type
REMARK                         _______ _______ _______ _____ _____    ______ ____
ROOT
ATOM      1  C   UNL     1       4.894   4.933  17.706  0.00  0.00    +0.000 A 
ATOM      2  C   UNL     1       4.340   6.109  17.148  0.00  0.00    +0.000 A 
ATOM      3  C   UNL     1       3.443   6.911  17.838  0.00  0.00    +0.000 A 
ATOM      4  C   UNL     1       3.100   6.564  19.135  0.00  0.00    +0.000 A 
ATOM      5  C   UNL     1       3.638   5.415  19.717  0.00  0.00    +0.000 A 
ATOM      6  C   UNL     1       4.539   4.567  19.019  0.00  0.00    +0.000 A 
ENDROOT
BRANCH   4   7
ATOM      7  C   UNL     1       2.051   7.348  19.821  0.00  0.00    +0.000 C 
ATOM      8  O   UNL     1       1.357   6.785  20.646  0.00  0.00    +0.000 OA
ATOM      9  N   UNL     1       1.869   8.664  19.396  0.00  0.00    +0.000 N 
ATOM     10  H   UNL     1       2.071   8.859  18.423  0.00  0.00    +0.000 HD
BRANCH   9  11
ATOM     11  C   UNL     1       0.900   9.511  20.022  0.00  0.00    +0.000 A 
ATOM     12  C   UNL     1       0.906   9.815  21.389  0.00  0.00    +0.000 A 
ATOM     13  F   UNL     1       1.898   9.388  22.184  0.00  0.00    +0.000 F 
ATOM     14  C   UNL     1      -0.063  10.656  21.946  0.00  0.00    +0.000 A 
ATOM     15  C   UNL     1      -1.069  11.193  21.142  0.00  0.00    +0.000 A 
ATOM     16  C   UNL     1      -1.083  10.907  19.780  0.00  0.00    +0.000 A 
ATOM     17  C   UNL     1      -0.095  10.093  19.226  0.00  0.00    +0.000 A 
ATOM     18  F   UNL     1      -0.126   9.832  17.912  0.00  0.00    +0.000 F 
ENDBRANCH   9  11
ENDBRANCH   4   7
BRANCH   1  20
ATOM     19  C   UNL     1       7.145   4.544  16.856  0.00  0.00    +0.000 C 
ATOM     20  O   UNL     1       5.747   4.382  16.798  0.00  0.00    +0.000 OA
ENDBRANCH   1  20
BRANCH   6  21
ATOM     21  O   UNL     1       5.015   3.399  19.602  0.00  0.00    +0.000 OA
BRANCH  21  22
ATOM     22  C   UNL     1       4.061   2.302  19.714  0.00  0.00    +0.000 C 
ATOM     23  C   UNL     1       2.995   2.514  20.806  0.00  0.00    +0.000 C 
ATOM     24  C   UNL     1       1.634   3.069  20.412  0.00  0.00    +0.000 C 
ATOM     25  C   UNL     1       1.097   2.635  19.065  0.00  0.00    +0.000 C 
ATOM     26  C   UNL     1       2.133   2.546  17.959  0.00  0.00    +0.000 C 
ATOM     27  C   UNL     1       3.480   1.943  18.342  0.00  0.00    +0.000 C 
ENDBRANCH  21  22
ENDBRANCH   6  21
TORSDOF 5
ENDMDL
MODEL 3
REMARK VINA RESULT:      -8.0      0.179      1.623
REMARK  Name = 
REMARK  6 active torsions:
REMARK  status: ('A' for Active; 'I' for Inactive)
REMARK    1  A    between atoms: C_1  and  O_2
REMARK    2  A    between atoms: O_2  and  C_3
REMARK    3  A    between atoms: C_6  and  C_7
REMARK    4  A    between atoms: N_9  and  C_10
REMARK    5  A    between atoms: C_19  and  O_20
REMARK    6  A    between atoms: O_20  and  C_21
REMARK                            x       y       z     vdW  Elec       q    Type
REMARK                         _______ _______ _______ _____ _____    ______ ____
ROOT
ATOM      1  C   UNL     1       4.148   4.490  17.008  0.00  0.00    +0.000 A 
ATOM      2  C   UNL     1       4.894   5.682  17.156  0.00  0.00    +0.000 A 
ATOM      3  C   UNL     1       4.344   6.848  17.666  0.00  0.00    +0.000 A 
ATOM      4  C   UNL     1       3.020   6.837  18.075  0.00  0.00    +0.000 A 
ATOM      5  C   UNL     1       2.260   5.672  17.951  0.00  0.00    +0.000 A 
ATOM      6  C   UNL     1       2.798   4.475  17.408  0.00  0.00    +0.000 A 
ENDROOT
BRANCH   4   7
ATOM      7  C   UNL     1       2.401   8.111  18.499  0.00  0.00    +0.000 C 
ATOM      8  O   UNL     1       2.805   9.143  17.998  0.00  0.00    +0.000 OA
ATOM      9  N   UNL     1       1.461   8.042  19.526  0.00  0.00    +0.000 N 
ATOM     10  H   UNL     1       1.587   7.305  20.210  0.00  0.00    +0.000 HD
BRANCH   9  11
ATOM     11  C   UNL     1       0.785   9.218  19.984  0.00  0.00    +0.000 A 
ATOM     12  C   UNL     1       0.919   9.731  21.280  0.00  0.00    +0.000 A 
ATOM     13  F   UNL     1       1.777   9.183  22.152  0.00  0.00    +0.000 F 
ATOM     14  C   UNL     1       0.239  10.890  21.671  0.00  0.00    +0.000 A 
ATOM     15  C   UNL     1      -0.603  11.545  20.772  0.00  0.00    +0.000 A 
ATOM     16  C   UNL     1      -0.739  11.051  19.477  0.00  0.00    +0.000 A 
ATOM     17  C   UNL     1      -0.033   9.914  19.086  0.00  0.00    +0.000 A 
ATOM     18  F   UNL     1      -0.176   9.457  17.834  0.00  0.00    +0.000 F 
ENDBRANCH   9  11
ENDBRANCH   4   7
BRANCH   1  20
ATOM     19  C   UNL     1       6.010   3.796  15.595  0.00  0.00    +0.000 C 
ATOM     20  O   UNL     1       4.967   3.525  16.503  0.00  0.00    +0.000 OA
ENDBRANCH   1  20
BRANCH   6  21
ATOM     21  O   UNL     1       2.003   3.347  17.244  0.00  0.00    +0.000 OA
BRANCH  21  22
ATOM     22  C   UNL     1       1.958   2.423  18.371  0.00  0.00    +0.000 C 
ATOM     23  C   UNL     1       3.287   2.320  19.144  0.00  0.00    +0.000 C 
ATOM     24  C   UNL     1       3.473   3.152  20.405  0.00  0.00    +0.000 C 
ATOM     25  C   UNL     1       2.244   3.352  21.264  0.00  0.00    +0.000 C 
ATOM     26  C   UNL     1       0.953   3.576  20.496  0.00  0.00    +0.000 C 
ATOM     27  C   UNL     1       0.743   2.707  19.261  0.00  0.00    +0.000 C 
ENDBRANCH  21  22
ENDBRANCH   6  21
TORSDOF 5
ENDMDL
MODEL 4
REMARK VINA RESULT:      -8.0      1.632      1.905
REMARK  Name = 
REMARK  6 active torsions:
REMARK  status: ('A' for Active; 'I' for Inactive)
REMARK    1  A    between atoms: C_1  and  O_2
REMARK    2  A    between atoms: O_2  and  C_3
REMARK    3  A    between atoms: C_6  and  C_7
REMARK    4  A    between atoms: N_9  and  C_10
REMARK    5  A    between atoms: C_19  and  O_20
REMARK    6  A    between atoms: O_20  and  C_21
REMARK                            x       y       z     vdW  Elec       q    Type
REMARK                         _______ _______ _______ _____ _____    ______ ____
ROOT
ATOM      1  C   UNL     1       4.110   4.669  16.998  0.00  0.00    +0.000 A 
ATOM      2  C   UNL     1       4.769   5.906  17.188  0.00  0.00    +0.000 A 
ATOM      3  C   UNL     1       4.144   7.003  17.761  0.00  0.00    +0.000 A 
ATOM      4  C   UNL     1       2.834   6.875  18.192  0.00  0.00    +0.000 A 
ATOM      5  C   UNL     1       2.160   5.663  18.028  0.00  0.00    +0.000 A 
ATOM      6  C   UNL     1       2.773   4.535  17.421  0.00  0.00    +0.000 A 
ENDROOT
BRANCH   4   7
ATOM      7  C   UNL     1       2.132   8.078  18.687  0.00  0.00    +0.000 C 
ATOM      8  O   UNL     1       1.833   8.129  19.865  0.00  0.00    +0.000 OA
ATOM      9  N   UNL     1       1.773   9.033  17.736  0.00  0.00    +0.000 N 
ATOM     10  H   UNL     1       1.567   8.691  16.805  0.00  0.00    +0.000 HD
BRANCH   9  11
ATOM     11  C   UNL     1       1.118  10.245  18.122  0.00  0.00    +0.000 A 
ATOM     12  C   UNL     1       1.792  11.455  18.330  0.00  0.00    +0.000 A 
ATOM     13  F   UNL     1       3.106  11.562  18.085  0.00  0.00    +0.000 F 
ATOM     14  C   UNL     1       1.099  12.613  18.700  0.00  0.00    +0.000 A 
ATOM     15  C   UNL     1      -0.283  12.572  18.887  0.00  0.00    +0.000 A 
ATOM     16  C   UNL     1      -0.967  11.379  18.675  0.00  0.00    +0.000 A 
ATOM     17  C   UNL     1      -0.274  10.236  18.275  0.00  0.00    +0.000 A 
ATOM     18  F   UNL     1      -0.952   9.098  18.075  0.00  0.00    +0.000 F 
ENDBRANCH   9  11
ENDBRANCH   4   7
BRANCH   1  20
ATOM     19  C   UNL     1       5.932   4.165  15.459  0.00  0.00    +0.000 C 
ATOM     20  O   UNL     1       4.987   3.791  16.435  0.00  0.00    +0.000 OA
ENDBRANCH   1  20
BRANCH   6  21
ATOM     21  O   UNL     1       2.061   3.360  17.218  0.00  0.00    +0.000 OA
BRANCH  21  22
ATOM     22  C   UNL     1       2.100   2.389  18.306  0.00  0.00    +0.000 C 
ATOM     23  C   UNL     1       3.400   2.432  19.131  0.00  0.00    +0.000 C 
ATOM     24  C   UNL     1       3.425   3.224  20.430  0.00  0.00    +0.000 C 
ATOM     25  C   UNL     1       2.148   3.220  21.242  0.00  0.00    +0.000 C 
ATOM     26  C   UNL     1       0.869   3.302  20.429  0.00  0.00    +0.000 C 
ATOM     27  C   UNL     1       0.825   2.468  19.153  0.00  0.00    +0.000 C 
ENDBRANCH  21  22
ENDBRANCH   6  21
TORSDOF 5
ENDMDL
MODEL 5
REMARK VINA RESULT:      -8.0      1.455      1.741
REMARK  Name = 
REMARK  6 active torsions:
REMARK  status: ('A' for Active; 'I' for Inactive)
REMARK    1  A    between atoms: C_1  and  O_2
REMARK    2  A    between atoms: O_2  and  C_3
REMARK    3  A    between atoms: C_6  and  C_7
REMARK    4  A    between atoms: N_9  and  C_10
REMARK    5  A    between atoms: C_19  and  O_20
REMARK    6  A    between atoms: O_20  and  C_21
REMARK                            x       y       z     vdW  Elec       q    Type
REMARK                         _______ _______ _______ _____ _____    ______ ____
ROOT
ATOM      1  C   UNL     1       4.057   4.677  17.011  0.00  0.00    +0.000 A 
ATOM      2  C   UNL     1       4.731   5.904  17.216  0.00  0.00    +0.000 A 
ATOM      3  C   UNL     1       4.127   6.993  17.824  0.00  0.00    +0.000 A 
ATOM      4  C   UNL     1       2.824   6.867  18.277  0.00  0.00    +0.000 A 
ATOM      5  C   UNL     1       2.135   5.665  18.100  0.00  0.00    +0.000 A 
ATOM      6  C   UNL     1       2.727   4.546  17.457  0.00  0.00    +0.000 A 
ENDROOT
BRANCH   4   7
ATOM      7  C   UNL     1       2.142   8.066  18.811  0.00  0.00    +0.000 C 
ATOM      8  O   UNL     1       1.900   8.109  20.002  0.00  0.00    +0.000 OA
ATOM      9  N   UNL     1       1.735   9.024  17.883  0.00  0.00    +0.000 N 
ATOM     10  H   UNL     1       1.486   8.686  16.961  0.00  0.00    +0.000 HD
BRANCH   9  11
ATOM     11  C   UNL     1       1.095  10.232  18.307  0.00  0.00    +0.000 A 
ATOM     12  C   UNL     1      -0.226  10.287  18.768  0.00  0.00    +0.000 A 
ATOM     13  F   UNL     1      -0.947   9.168  18.923  0.00  0.00    +0.000 F 
ATOM     14  C   UNL     1      -0.798  11.497  19.177  0.00  0.00    +0.000 A 
ATOM     15  C   UNL     1      -0.058  12.678  19.113  0.00  0.00    +0.000 A 
ATOM     16  C   UNL     1       1.259  12.637  18.665  0.00  0.00    +0.000 A 
ATOM     17  C   UNL     1       1.833  11.422  18.289  0.00  0.00    +0.000 A 
ATOM     18  F   UNL     1       3.103  11.405  17.863  0.00  0.00    +0.000 F 
ENDBRANCH   9  11
ENDBRANCH   4   7
BRANCH   1  20
ATOM     19  C   UNL     1       5.929   4.209  15.521  0.00  0.00    +0.000 C 
ATOM     20  O   UNL     1       4.915   3.804  16.413  0.00  0.00    +0.000 OA
ENDBRANCH   1  20
BRANCH   6  21
ATOM     21  O   UNL     1       2.000   3.381  17.242  0.00  0.00    +0.000 OA
BRANCH  21  22
ATOM     22  C   UNL     1       2.052   2.386  18.307  0.00  0.00    +0.000 C 
ATOM     23  C   UNL     1       3.382   2.375  19.084  0.00  0.00    +0.000 C 
ATOM     24  C   UNL     1       3.477   3.138  20.397  0.00  0.00    +0.000 C 
ATOM     25  C   UNL     1       2.232   3.152  21.256  0.00  0.00    +0.000 C 
ATOM     26  C   UNL     1       0.926   3.287  20.493  0.00  0.00    +0.000 C 
ATOM     27  C   UNL     1       0.812   2.483  19.203  0.00  0.00    +0.000 C 
ENDBRANCH  21  22
ENDBRANCH   6  21
TORSDOF 5
ENDMDL
MODEL 6
REMARK VINA RESULT:      -7.8      1.428      1.848
REMARK  Name = 
REMARK  6 active torsions:
REMARK  status: ('A' for Active; 'I' for Inactive)
REMARK    1  A    between atoms: C_1  and  O_2
REMARK    2  A    between atoms: O_2  and  C_3
REMARK    3  A    between atoms: C_6  and  C_7
REMARK    4  A    between atoms: N_9  and  C_10
REMARK    5  A    between atoms: C_19  and  O_20
REMARK    6  A    between atoms: O_20  and  C_21
REMARK                            x       y       z     vdW  Elec       q    Type
REMARK                         _______ _______ _______ _____ _____    ______ ____
ROOT
ATOM      1  C   UNL     1       5.013   4.994  17.776  0.00  0.00    +0.000 A 
ATOM      2  C   UNL     1       4.507   6.187  17.210  0.00  0.00    +0.000 A 
ATOM      3  C   UNL     1       3.568   6.978  17.855  0.00  0.00    +0.000 A 
ATOM      4  C   UNL     1       3.132   6.603  19.115  0.00  0.00    +0.000 A 
ATOM      5  C   UNL     1       3.621   5.436  19.705  0.00  0.00    +0.000 A 
ATOM      6  C   UNL     1       4.564   4.598  19.051  0.00  0.00    +0.000 A 
ENDROOT
BRANCH   4   7
ATOM      7  C   UNL     1       2.042   7.378  19.745  0.00  0.00    +0.000 C 
ATOM      8  O   UNL     1       1.277   6.796  20.490  0.00  0.00    +0.000 OA
ATOM      9  N   UNL     1       1.911   8.710  19.356  0.00  0.00    +0.000 N 
ATOM     10  H   UNL     1       2.192   8.937  18.409  0.00  0.00    +0.000 HD
BRANCH   9  11
ATOM     11  C   UNL     1       0.905   9.549  19.933  0.00  0.00    +0.000 A 
ATOM     12  C   UNL     1      -0.130  10.135  19.195  0.00  0.00    +0.000 A 
ATOM     13  F   UNL     1      -0.287   9.861  17.892  0.00  0.00    +0.000 F 
ATOM     14  C   UNL     1      -1.092  10.942  19.815  0.00  0.00    +0.000 A 
ATOM     15  C   UNL     1      -1.019  11.189  21.186  0.00  0.00    +0.000 A 
ATOM     16  C   UNL     1       0.000  10.606  21.934  0.00  0.00    +0.000 A 
ATOM     17  C   UNL     1       0.936   9.778  21.315  0.00  0.00    +0.000 A 
ATOM     18  F   UNL     1       1.907   9.225  22.054  0.00  0.00    +0.000 F 
ENDBRANCH   9  11
ENDBRANCH   4   7
BRANCH   1  20
ATOM     19  C   UNL     1       7.317   4.613  17.075  0.00  0.00    +0.000 C 
ATOM     20  O   UNL     1       5.925   4.458  16.917  0.00  0.00    +0.000 OA
ENDBRANCH   1  20
BRANCH   6  21
ATOM     21  O   UNL     1       4.991   3.413  19.637  0.00  0.00    +0.000 OA
BRANCH  21  22
ATOM     22  C   UNL     1       4.035   2.312  19.630  0.00  0.00    +0.000 C 
ATOM     23  C   UNL     1       2.920   2.450  20.684  0.00  0.00    +0.000 C 
ATOM     24  C   UNL     1       1.578   3.033  20.267  0.00  0.00    +0.000 C 
ATOM     25  C   UNL     1       1.103   2.693  18.871  0.00  0.00    +0.000 C 
ATOM     26  C   UNL     1       2.189   2.679  17.810  0.00  0.00    +0.000 C 
ATOM     27  C   UNL     1       3.518   2.049  18.212  0.00  0.00    +0.000 C 
ENDBRANCH  21  22
ENDBRANCH   6  21
TORSDOF 5
ENDMDL
MODEL 7
REMARK VINA RESULT:      -7.8      1.675      2.378
REMARK  Name = 
REMARK  6 active torsions:
REMARK  status: ('A' for Active; 'I' for Inactive)
REMARK    1  A    between atoms: C_1  and  O_2
REMARK    2  A    between atoms: O_2  and  C_3
REMARK    3  A    between atoms: C_6  and  C_7
REMARK    4  A    between atoms: N_9  and  C_10
REMARK    5  A    between atoms: C_19  and  O_20
REMARK    6  A    between atoms: O_20  and  C_21
REMARK                            x       y       z     vdW  Elec       q    Type
REMARK                         _______ _______ _______ _____ _____    ______ ____
ROOT
ATOM      1  C   UNL     1       4.220   5.759  18.348  0.00  0.00    +0.000 A 
ATOM      2  C   UNL     1       4.293   6.749  17.341  0.00  0.00    +0.000 A 
ATOM      3  C   UNL     1       3.483   7.874  17.342  0.00  0.00    +0.000 A 
ATOM      4  C   UNL     1       2.590   8.053  18.386  0.00  0.00    +0.000 A 
ATOM      5  C   UNL     1       2.503   7.099  19.402  0.00  0.00    +0.000 A 
ATOM      6  C   UNL     1       3.305   5.927  19.406  0.00  0.00    +0.000 A 
ENDROOT
BRANCH   4   7
ATOM      7  C   UNL     1       1.643   9.186  18.319  0.00  0.00    +0.000 C 
ATOM      8  O   UNL     1       1.850  10.063  17.502  0.00  0.00    +0.000 OA
ATOM      9  N   UNL     1       0.628   9.215  19.275  0.00  0.00    +0.000 N 
ATOM     10  H   UNL     1       0.841   8.805  20.176  0.00  0.00    +0.000 HD
BRANCH   9  11
ATOM     11  C   UNL     1      -0.355  10.255  19.272  0.00  0.00    +0.000 A 
ATOM     12  C   UNL     1      -1.303  10.419  18.255  0.00  0.00    +0.000 A 
ATOM     13  F   UNL     1      -1.396   9.535  17.252  0.00  0.00    +0.000 F 
ATOM     14  C   UNL     1      -2.247  11.451  18.308  0.00  0.00    +0.000 A 
ATOM     15  C   UNL     1      -2.244  12.349  19.375  0.00  0.00    +0.000 A 
ATOM     16  C   UNL     1      -1.312  12.193  20.398  0.00  0.00    +0.000 A 
ATOM     17  C   UNL     1      -0.395  11.143  20.355  0.00  0.00    +0.000 A 
ATOM     18  F   UNL     1       0.491  11.009  21.351  0.00  0.00    +0.000 F 
ENDBRANCH   9  11
ENDBRANCH   4   7
BRANCH   1  20
ATOM     19  C   UNL     1       6.431   4.781  18.664  0.00  0.00    +0.000 C 
ATOM     20  O   UNL     1       5.148   4.798  18.081  0.00  0.00    +0.000 OA
ENDBRANCH   1  20
BRANCH   6  21
ATOM     21  O   UNL     1       3.158   4.966  20.399  0.00  0.00    +0.000 OA
BRANCH  21  22
ATOM     22  C   UNL     1       2.240   3.872  20.102  0.00  0.00    +0.000 C 
ATOM     23  C   UNL     1       1.412   4.084  18.820  0.00  0.00    +0.000 C 
ATOM     24  C   UNL     1       1.887   3.448  17.522  0.00  0.00    +0.000 C 
ATOM     25  C   UNL     1       2.551   2.094  17.642  0.00  0.00    +0.000 C 
ATOM     26  C   UNL     1       3.464   1.930  18.844  0.00  0.00    +0.000 C 
ATOM     27  C   UNL     1       2.965   2.523  20.157  0.00  0.00    +0.000 C 
ENDBRANCH  21  22
ENDBRANCH   6  21
TORSDOF 5
ENDMDL
MODEL 8
REMARK VINA RESULT:      -7.8      1.609      2.745
REMARK  Name = 
REMARK  6 active torsions:
REMARK  status: ('A' for Active; 'I' for Inactive)
REMARK    1  A    between atoms: C_1  and  O_2
REMARK    2  A    between atoms: O_2  and  C_3
REMARK    3  A    between atoms: C_6  and  C_7
REMARK    4  A    between atoms: N_9  and  C_10
REMARK    5  A    between atoms: C_19  and  O_20
REMARK    6  A    between atoms: O_20  and  C_21
REMARK                            x       y       z     vdW  Elec       q    Type
REMARK                         _______ _______ _______ _____ _____    ______ ____
ROOT
ATOM      1  C   UNL     1       4.250   5.612  18.479  0.00  0.00    +0.000 A 
ATOM      2  C   UNL     1       4.399   6.586  17.465  0.00  0.00    +0.000 A 
ATOM      3  C   UNL     1       3.621   7.732  17.412  0.00  0.00    +0.000 A 
ATOM      4  C   UNL     1       2.683   7.948  18.409  0.00  0.00    +0.000 A 
ATOM      5  C   UNL     1       2.520   7.010  19.430  0.00  0.00    +0.000 A 
ATOM      6  C   UNL     1       3.289   5.818  19.489  0.00  0.00    +0.000 A 
ENDROOT
BRANCH   4   7
ATOM      7  C   UNL     1       1.772   9.105  18.282  0.00  0.00    +0.000 C 
ATOM      8  O   UNL     1       2.017   9.942  17.434  0.00  0.00    +0.000 OA
ATOM      9  N   UNL     1       0.745   9.203  19.220  0.00  0.00    +0.000 N 
ATOM     10  H   UNL     1       0.932   8.824  20.140  0.00  0.00    +0.000 HD
BRANCH   9  11
ATOM     11  C   UNL     1      -0.206  10.271  19.160  0.00  0.00    +0.000 A 
ATOM     12  C   UNL     1      -0.232  11.335  20.069  0.00  0.00    +0.000 A 
ATOM     13  F   UNL     1       0.712  11.457  21.013  0.00  0.00    +0.000 F 
ATOM     14  C   UNL     1      -1.182  12.357  19.958  0.00  0.00    +0.000 A 
ATOM     15  C   UNL     1      -2.135  12.319  18.940  0.00  0.00    +0.000 A 
ATOM     16  C   UNL     1      -2.116  11.271  18.023  0.00  0.00    +0.000 A 
ATOM     17  C   UNL     1      -1.147  10.273  18.122  0.00  0.00    +0.000 A 
ATOM     18  F   UNL     1      -1.145   9.275  17.228  0.00  0.00    +0.000 F 
ENDBRANCH   9  11
ENDBRANCH   4   7
BRANCH   1  20
ATOM     19  C   UNL     1       5.821   4.429  17.038  0.00  0.00    +0.000 C 
ATOM     20  O   UNL     1       5.163   4.622  18.270  0.00  0.00    +0.000 OA
ENDBRANCH   1  20
BRANCH   6  21
ATOM     21  O   UNL     1       3.067   4.875  20.484  0.00  0.00    +0.000 OA
BRANCH  21  22
ATOM     22  C   UNL     1       2.169   3.777  20.141  0.00  0.00    +0.000 C 
ATOM     23  C   UNL     1       1.357   4.018  18.854  0.00  0.00    +0.000 C 
ATOM     24  C   UNL     1       1.859   3.429  17.544  0.00  0.00    +0.000 C 
ATOM     25  C   UNL     1       2.540   2.081  17.632  0.00  0.00    +0.000 C 
ATOM     26  C   UNL     1       3.439   1.893  18.841  0.00  0.00    +0.000 C 
ATOM     27  C   UNL     1       2.913   2.438  20.164  0.00  0.00    +0.000 C 
ENDBRANCH  21  22
ENDBRANCH   6  21
TORSDOF 5
ENDMDL
MODEL 9
REMARK VINA RESULT:      -7.8      2.126      3.312
REMARK  Name = 
REMARK  6 active torsions:
REMARK  status: ('A' for Active; 'I' for Inactive)
REMARK    1  A    between atoms: C_1  and  O_2
REMARK    2  A    between atoms: O_2  and  C_3
REMARK    3  A    between atoms: C_6  and  C_7
REMARK    4  A    between atoms: N_9  and  C_10
REMARK    5  A    between atoms: C_19  and  O_20
REMARK    6  A    between atoms: O_20  and  C_21
REMARK                            x       y       z     vdW  Elec       q    Type
REMARK                         _______ _______ _______ _____ _____    ______ ____
ROOT
ATOM      1  C   UNL     1       3.290   6.978  18.053  0.00  0.00    +0.000 A 
ATOM      2  C   UNL     1       2.892   8.190  17.442  0.00  0.00    +0.000 A 
ATOM      3  C   UNL     1       2.029   9.085  18.056  0.00  0.00    +0.000 A 
ATOM      4  C   UNL     1       1.564   8.798  19.328  0.00  0.00    +0.000 A 
ATOM      5  C   UNL     1       1.947   7.614  19.962  0.00  0.00    +0.000 A 
ATOM      6  C   UNL     1       2.810   6.672  19.342  0.00  0.00    +0.000 A 
ENDROOT
BRANCH   4   7
ATOM      7  C   UNL     1       0.549   9.690  19.927  0.00  0.00    +0.000 C 
ATOM      8  O   UNL     1      -0.485   9.881  19.315  0.00  0.00    +0.000 OA
ATOM      9  N   UNL     1       0.897  10.332  21.115  0.00  0.00    +0.000 N 
ATOM     10  H   UNL     1       1.878  10.548  21.244  0.00  0.00    +0.000 HD
BRANCH   9  11
ATOM     11  C   UNL     1      -0.031  11.191  21.786  0.00  0.00    +0.000 A 
ATOM     12  C   UNL     1      -0.978  10.733  22.710  0.00  0.00    +0.000 A 
ATOM     13  F   UNL     1      -1.006   9.447  23.088  0.00  0.00    +0.000 F 
ATOM     14  C   UNL     1      -1.857  11.620  23.343  0.00  0.00    +0.000 A 
ATOM     15  C   UNL     1      -1.811  12.982  23.045  0.00  0.00    +0.000 A 
ATOM     16  C   UNL     1      -0.869  13.453  22.135  0.00  0.00    +0.000 A 
ATOM     17  C   UNL     1       0.025  12.567  21.532  0.00  0.00    +0.000 A 
ATOM     18  F   UNL     1       0.925  13.041  20.661  0.00  0.00    +0.000 F 
ENDBRANCH   9  11
ENDBRANCH   4   7
BRANCH   1  20
ATOM     19  C   UNL     1       5.506   6.684  17.081  0.00  0.00    +0.000 C 
ATOM     20  O   UNL     1       4.148   6.331  17.216  0.00  0.00    +0.000 OA
ENDBRANCH   1  20
BRANCH   6  21
ATOM     21  O   UNL     1       3.130   5.476  19.972  0.00  0.00    +0.000 OA
BRANCH  21  22
ATOM     22  C   UNL     1       2.198   4.373  19.769  0.00  0.00    +0.000 C 
ATOM     23  C   UNL     1       1.652   4.276  18.331  0.00  0.00    +0.000 C 
ATOM     24  C   UNL     1       2.312   3.314  17.354  0.00  0.00    +0.000 C 
ATOM     25  C   UNL     1       2.825   2.015  17.935  0.00  0.00    +0.000 C 
ATOM     26  C   UNL     1       3.474   2.135  19.303  0.00  0.00    +0.000 C 
ATOM     27  C   UNL     1       2.784   3.060  20.299  0.00  0.00    +0.000 C 
ENDBRANCH  21  22
ENDBRANCH   6  21
TORSDOF 5
ENDMDL
