MODEL 1
REMARK VINA RESULT:      -7.5      0.000      0.000
REMARK  Name = 
REMARK  8 active torsions:
REMARK  status: ('A' for Active; 'I' for Inactive)
REMARK    1  A    between atoms: C_2  and  S_4
REMARK    2  A    between atoms: S_4  and  C_5
REMARK    3  A    between atoms: C_5  and  C_6
REMARK    4  A    between atoms: C_12  and  S_13
REMARK    5  A    between atoms: S_13  and  C_14
REMARK    6  A    between atoms: C_21  and  C_22
REMARK    7  A    between atoms: C_22  and  S_23
REMARK    8  A    between atoms: S_23  and  C_24
REMARK                            x       y       z     vdW  Elec       q    Type
REMARK                         _______ _______ _______ _____ _____    ______ ____
ROOT
ATOM      1  S   UNL     1       4.430   3.333  17.184  0.00  0.00    +0.000 S 
ENDROOT
BRANCH   1   2
ATOM      2  C   UNL     1       5.716   4.565  17.503  0.00  0.00    +0.000 A 
ATOM      3  C   UNL     1       6.211   4.639  18.814  0.00  0.00    +0.000 A 
ATOM      4  C   UNL     1       7.150   5.607  19.171  0.00  0.00    +0.000 A 
ATOM      5  F   UNL     1       7.599   5.674  20.450  0.00  0.00    +0.000 F 
ATOM      6  C   UNL     1       7.616   6.512  18.221  0.00  0.00    +0.000 A 
ATOM      7  F   UNL     1       8.523   7.458  18.572  0.00  0.00    +0.000 F 
ATOM      8  C   UNL     1       7.138   6.456  16.910  0.00  0.00    +0.000 A 
ATOM      9  C   UNL     1       6.177   5.499  16.526  0.00  0.00    +0.000 A 
BRANCH   9  10
ATOM     10  C   UNL     1       5.677   5.526  15.091  0.00  0.00    +0.000 C 
BRANCH  10  11
ATOM     11  S   UNL     1       6.150   3.995  14.204  0.00  0.00    +0.000 S 
BRANCH  11  12
ATOM     12  C   UNL     1       7.336   4.772  13.073  0.00  0.00    +0.000 C 
ATOM     13  N   UNL     1       7.347   4.469  11.824  0.00  0.00    +0.000 NA
ATOM     14  N   UNL     1       8.303   5.673  13.584  0.00  0.00    +0.000 N 
ATOM     15  H   UNL     1       6.678   3.798  11.430  0.00  0.00    +0.000 HD
ATOM     16  H   UNL     1       8.315   5.905  14.586  0.00  0.00    +0.000 HD
ATOM     17  H   UNL     1       9.026   6.070  12.965  0.00  0.00    +0.000 HD
ENDBRANCH  11  12
ENDBRANCH  10  11
ENDBRANCH   9  10
ENDBRANCH   1   2
BRANCH   1  24
ATOM     18  C   UNL     1       2.452   4.403  19.027  0.00  0.00    +0.000 A 
ATOM     19  C   UNL     1       1.787   4.291  20.267  0.00  0.00    +0.000 A 
ATOM     20  C   UNL     1       2.083   3.259  21.165  0.00  0.00    +0.000 A 
ATOM     21  F   UNL     1       1.424   3.169  22.348  0.00  0.00    +0.000 F 
ATOM     22  C   UNL     1       3.040   2.309  20.836  0.00  0.00    +0.000 A 
ATOM     23  C   UNL     1       3.722   2.397  19.629  0.00  0.00    +0.000 A 
ATOM     24  C   UNL     1       3.474   3.431  18.717  0.00  0.00    +0.000 A 
BRANCH  18  25
ATOM     25  C   UNL     1       2.004   5.548  18.114  0.00  0.00    +0.000 C 
BRANCH  25  26
ATOM     26  S   UNL     1       3.052   7.043  18.254  0.00  0.00    +0.000 S 
BRANCH  26  28
ATOM     27  N   UNL     1       1.434   9.072  18.837  0.00  0.00    +0.000 NA
ATOM     28  C   UNL     1       2.009   8.037  19.336  0.00  0.00    +0.000 C 
ATOM     29  N   UNL     1       1.904   7.752  20.723  0.00  0.00    +0.000 N 
ATOM     30  H   UNL     1       0.869   9.708  19.419  0.00  0.00    +0.000 HD
ATOM     31  H   UNL     1       1.355   8.369  21.343  0.00  0.00    +0.000 HD
ATOM     32  H   UNL     1       2.390   6.944  21.134  0.00  0.00    +0.000 HD
ENDBRANCH  26  28
ENDBRANCH  25  26
ENDBRANCH  18  25
ENDBRANCH   1  24
TORSDOF 8
ENDMDL
MODEL 2
REMARK VINA RESULT:      -7.4      3.763      5.520
REMARK  Name = 
REMARK  8 active torsions:
REMARK  status: ('A' for Active; 'I' for Inactive)
REMARK    1  A    between atoms: C_2  and  S_4
REMARK    2  A    between atoms: S_4  and  C_5
REMARK    3  A    between atoms: C_5  and  C_6
REMARK    4  A    between atoms: C_12  and  S_13
REMARK    5  A    between atoms: S_13  and  C_14
REMARK    6  A    between atoms: C_21  and  C_22
REMARK    7  A    between atoms: C_22  and  S_23
REMARK    8  A    between atoms: S_23  and  C_24
REMARK                            x       y       z     vdW  Elec       q    Type
REMARK                         _______ _______ _______ _____ _____    ______ ____
ROOT
ATOM      1  S   UNL     1       2.838   7.871  17.641  0.00  0.00    +0.000 S 
ENDROOT
BRANCH   1   2
ATOM      2  C   UNL     1       3.008   6.082  17.849  0.00  0.00    +0.000 A 
ATOM      3  C   UNL     1       1.823   5.348  18.017  0.00  0.00    +0.000 A 
ATOM      4  C   UNL     1       1.859   3.975  18.259  0.00  0.00    +0.000 A 
ATOM      5  F   UNL     1       0.702   3.289  18.439  0.00  0.00    +0.000 F 
ATOM      6  C   UNL     1       3.080   3.310  18.328  0.00  0.00    +0.000 A 
ATOM      7  F   UNL     1       3.115   1.976  18.571  0.00  0.00    +0.000 F 
ATOM      8  C   UNL     1       4.272   4.019  18.163  0.00  0.00    +0.000 A 
ATOM      9  C   UNL     1       4.265   5.410  17.934  0.00  0.00    +0.000 A 
BRANCH   9  10
ATOM     10  C   UNL     1       5.603   6.119  17.804  0.00  0.00    +0.000 C 
BRANCH  10  11
ATOM     11  S   UNL     1       6.990   4.933  17.973  0.00  0.00    +0.000 S 
BRANCH  11  12
ATOM     12  C   UNL     1       7.903   5.863  19.233  0.00  0.00    +0.000 C 
ATOM     13  N   UNL     1       8.047   5.392  20.420  0.00  0.00    +0.000 NA
ATOM     14  N   UNL     1       8.405   7.152  18.925  0.00  0.00    +0.000 N 
ATOM     15  H   UNL     1       7.669   4.474  20.681  0.00  0.00    +0.000 HD
ATOM     16  H   UNL     1       8.276   7.546  17.984  0.00  0.00    +0.000 HD
ATOM     17  H   UNL     1       8.867   7.720  19.652  0.00  0.00    +0.000 HD
ENDBRANCH  11  12
ENDBRANCH  10  11
ENDBRANCH   9  10
ENDBRANCH   1   2
BRANCH   1  24
ATOM     18  C   UNL     1       0.804   9.294  19.155  0.00  0.00    +0.000 A 
ATOM     19  C   UNL     1       0.108   9.449  20.374  0.00  0.00    +0.000 A 
ATOM     20  C   UNL     1       0.390   8.646  21.484  0.00  0.00    +0.000 A 
ATOM     21  F   UNL     1      -0.298   8.810  22.642  0.00  0.00    +0.000 F 
ATOM     22  C   UNL     1       1.364   7.661  21.396  0.00  0.00    +0.000 A 
ATOM     23  C   UNL     1       2.076   7.489  20.215  0.00  0.00    +0.000 A 
ATOM     24  C   UNL     1       1.842   8.292  19.092  0.00  0.00    +0.000 A 
BRANCH  18  25
ATOM     25  C   UNL     1       0.370  10.202  18.001  0.00  0.00    +0.000 C 
BRANCH  25  26
ATOM     26  S   UNL     1      -1.434  10.171  17.690  0.00  0.00    +0.000 S 
BRANCH  26  28
ATOM     27  N   UNL     1      -2.942  12.141  18.649  0.00  0.00    +0.000 NA
ATOM     28  C   UNL     1      -1.829  11.890  18.059  0.00  0.00    +0.000 C 
ATOM     29  N   UNL     1      -0.991  12.949  17.619  0.00  0.00    +0.000 N 
ATOM     30  H   UNL     1      -3.247  13.107  18.838  0.00  0.00    +0.000 HD
ATOM     31  H   UNL     1      -1.264  13.932  17.780  0.00  0.00    +0.000 HD
ATOM     32  H   UNL     1      -0.116  12.755  17.115  0.00  0.00    +0.000 HD
ENDBRANCH  26  28
ENDBRANCH  25  26
ENDBRANCH  18  25
ENDBRANCH   1  24
TORSDOF 8
ENDMDL
MODEL 3
REMARK VINA RESULT:      -7.2      0.815      1.111
REMARK  Name = 
REMARK  8 active torsions:
REMARK  status: ('A' for Active; 'I' for Inactive)
REMARK    1  A    between atoms: C_2  and  S_4
REMARK    2  A    between atoms: S_4  and  C_5
REMARK    3  A    between atoms: C_5  and  C_6
REMARK    4  A    between atoms: C_12  and  S_13
REMARK    5  A    between atoms: S_13  and  C_14
REMARK    6  A    between atoms: C_21  and  C_22
REMARK    7  A    between atoms: C_22  and  S_23
REMARK    8  A    between atoms: S_23  and  C_24
REMARK                            x       y       z     vdW  Elec       q    Type
REMARK                         _______ _______ _______ _____ _____    ______ ____
ROOT
ATOM      1  S   UNL     1       4.003   3.699  17.092  0.00  0.00    +0.000 S 
ENDROOT
BRANCH   1   2
ATOM      2  C   UNL     1       5.445   4.724  17.469  0.00  0.00    +0.000 A 
ATOM      3  C   UNL     1       5.876   4.745  18.805  0.00  0.00    +0.000 A 
ATOM      4  C   UNL     1       6.933   5.563  19.204  0.00  0.00    +0.000 A 
ATOM      5  F   UNL     1       7.319   5.584  20.505  0.00  0.00    +0.000 F 
ATOM      6  C   UNL     1       7.584   6.368  18.272  0.00  0.00    +0.000 A 
ATOM      7  F   UNL     1       8.606   7.170  18.663  0.00  0.00    +0.000 F 
ATOM      8  C   UNL     1       7.173   6.363  16.937  0.00  0.00    +0.000 A 
ATOM      9  C   UNL     1       6.097   5.558  16.510  0.00  0.00    +0.000 A 
BRANCH   9  10
ATOM     10  C   UNL     1       5.684   5.636  15.049  0.00  0.00    +0.000 C 
BRANCH  10  11
ATOM     11  S   UNL     1       6.103   4.085  14.167  0.00  0.00    +0.000 S 
BRANCH  11  12
ATOM     12  C   UNL     1       7.354   4.806  13.071  0.00  0.00    +0.000 C 
ATOM     13  N   UNL     1       8.207   5.657  13.518  0.00  0.00    +0.000 NA
ATOM     14  N   UNL     1       7.349   4.476  11.692  0.00  0.00    +0.000 N 
ATOM     15  H   UNL     1       8.217   5.937  14.505  0.00  0.00    +0.000 HD
ATOM     16  H   UNL     1       6.657   3.812  11.321  0.00  0.00    +0.000 HD
ATOM     17  H   UNL     1       8.011   4.930  11.044  0.00  0.00    +0.000 HD
ENDBRANCH  11  12
ENDBRANCH  10  11
ENDBRANCH   9  10
ENDBRANCH   1   2
BRANCH   1  24
ATOM     18  C   UNL     1       2.515   4.793  19.337  0.00  0.00    +0.000 A 
ATOM     19  C   UNL     1       1.883   4.567  20.579  0.00  0.00    +0.000 A 
ATOM     20  C   UNL     1       1.864   3.299  21.170  0.00  0.00    +0.000 A 
ATOM     21  F   UNL     1       1.244   3.105  22.360  0.00  0.00    +0.000 F 
ATOM     22  C   UNL     1       2.464   2.226  20.524  0.00  0.00    +0.000 A 
ATOM     23  C   UNL     1       3.105   2.417  19.306  0.00  0.00    +0.000 A 
ATOM     24  C   UNL     1       3.170   3.676  18.698  0.00  0.00    +0.000 A 
BRANCH  18  25
ATOM     25  C   UNL     1       2.425   6.215  18.775  0.00  0.00    +0.000 C 
BRANCH  25  26
ATOM     26  S   UNL     1       1.976   7.468  20.032  0.00  0.00    +0.000 S 
BRANCH  26  28
ATOM     27  N   UNL     1       0.819   9.771  19.374  0.00  0.00    +0.000 NA
ATOM     28  C   UNL     1       1.624   8.864  18.949  0.00  0.00    +0.000 C 
ATOM     29  N   UNL     1       2.131   8.914  17.623  0.00  0.00    +0.000 N 
ATOM     30  H   UNL     1       0.538  10.565  18.780  0.00  0.00    +0.000 HD
ATOM     31  H   UNL     1       1.867   9.687  16.992  0.00  0.00    +0.000 HD
ATOM     32  H   UNL     1       2.747   8.172  17.266  0.00  0.00    +0.000 HD
ENDBRANCH  26  28
ENDBRANCH  25  26
ENDBRANCH  18  25
ENDBRANCH   1  24
TORSDOF 8
ENDMDL
MODEL 4
REMARK VINA RESULT:      -7.2      2.882      6.869
REMARK  Name = 
REMARK  8 active torsions:
REMARK  status: ('A' for Active; 'I' for Inactive)
REMARK    1  A    between atoms: C_2  and  S_4
REMARK    2  A    between atoms: S_4  and  C_5
REMARK    3  A    between atoms: C_5  and  C_6
REMARK    4  A    between atoms: C_12  and  S_13
REMARK    5  A    between atoms: S_13  and  C_14
REMARK    6  A    between atoms: C_21  and  C_22
REMARK    7  A    between atoms: C_22  and  S_23
REMARK    8  A    between atoms: S_23  and  C_24
REMARK                            x       y       z     vdW  Elec       q    Type
REMARK                         _______ _______ _______ _____ _____    ______ ____
ROOT
ATOM      1  S   UNL     1       3.135   4.976  17.613  0.00  0.00    +0.000 S 
ENDROOT
BRANCH   1   2
ATOM      2  C   UNL     1       2.420   6.361  18.531  0.00  0.00    +0.000 A 
ATOM      3  C   UNL     1       2.314   7.585  17.852  0.00  0.00    +0.000 A 
ATOM      4  C   UNL     1       1.843   8.726  18.501  0.00  0.00    +0.000 A 
ATOM      5  F   UNL     1       1.769   9.904  17.830  0.00  0.00    +0.000 F 
ATOM      6  C   UNL     1       1.462   8.662  19.839  0.00  0.00    +0.000 A 
ATOM      7  F   UNL     1       1.013   9.774  20.472  0.00  0.00    +0.000 F 
ATOM      8  C   UNL     1       1.558   7.455  20.535  0.00  0.00    +0.000 A 
ATOM      9  C   UNL     1       2.045   6.290  19.908  0.00  0.00    +0.000 A 
BRANCH   9  10
ATOM     10  C   UNL     1       2.158   5.024  20.742  0.00  0.00    +0.000 C 
BRANCH  10  11
ATOM     11  S   UNL     1       0.905   3.790  20.228  0.00  0.00    +0.000 S 
BRANCH  11  12
ATOM     12  C   UNL     1       2.079   2.491  19.756  0.00  0.00    +0.000 C 
ATOM     13  N   UNL     1       1.748   1.585  18.906  0.00  0.00    +0.000 NA
ATOM     14  N   UNL     1       3.351   2.437  20.379  0.00  0.00    +0.000 N 
ATOM     15  H   UNL     1       0.824   1.581  18.460  0.00  0.00    +0.000 HD
ATOM     16  H   UNL     1       3.617   3.146  21.075  0.00  0.00    +0.000 HD
ATOM     17  H   UNL     1       4.002   1.665  20.170  0.00  0.00    +0.000 HD
ENDBRANCH  11  12
ENDBRANCH  10  11
ENDBRANCH   9  10
ENDBRANCH   1   2
BRANCH   1  24
ATOM     18  C   UNL     1       5.878   5.548  16.838  0.00  0.00    +0.000 A 
ATOM     19  C   UNL     1       7.210   5.795  17.238  0.00  0.00    +0.000 A 
ATOM     20  C   UNL     1       7.577   5.802  18.589  0.00  0.00    +0.000 A 
ATOM     21  F   UNL     1       8.862   6.050  18.949  0.00  0.00    +0.000 F 
ATOM     22  C   UNL     1       6.619   5.576  19.568  0.00  0.00    +0.000 A 
ATOM     23  C   UNL     1       5.302   5.319  19.207  0.00  0.00    +0.000 A 
ATOM     24  C   UNL     1       4.902   5.275  17.866  0.00  0.00    +0.000 A 
BRANCH  18  25
ATOM     25  C   UNL     1       5.596   5.615  15.334  0.00  0.00    +0.000 C 
BRANCH  25  26
ATOM     26  S   UNL     1       6.036   4.078  14.442  0.00  0.00    +0.000 S 
BRANCH  26  28
ATOM     27  N   UNL     1       7.138   4.333  12.035  0.00  0.00    +0.000 NA
ATOM     28  C   UNL     1       7.204   4.752  13.248  0.00  0.00    +0.000 C 
ATOM     29  N   UNL     1       8.238   5.639  13.648  0.00  0.00    +0.000 N 
ATOM     30  H   UNL     1       7.813   4.641  11.320  0.00  0.00    +0.000 HD
ATOM     31  H   UNL     1       8.940   5.965  12.965  0.00  0.00    +0.000 HD
ATOM     32  H   UNL     1       8.317   5.951  14.626  0.00  0.00    +0.000 HD
ENDBRANCH  26  28
ENDBRANCH  25  26
ENDBRANCH  18  25
ENDBRANCH   1  24
TORSDOF 8
ENDMDL
MODEL 5
REMARK VINA RESULT:      -7.1      3.193      5.082
REMARK  Name = 
REMARK  8 active torsions:
REMARK  status: ('A' for Active; 'I' for Inactive)
REMARK    1  A    between atoms: C_2  and  S_4
REMARK    2  A    between atoms: S_4  and  C_5
REMARK    3  A    between atoms: C_5  and  C_6
REMARK    4  A    between atoms: C_12  and  S_13
REMARK    5  A    between atoms: S_13  and  C_14
REMARK    6  A    between atoms: C_21  and  C_22
REMARK    7  A    between atoms: C_22  and  S_23
REMARK    8  A    between atoms: S_23  and  C_24
REMARK                            x       y       z     vdW  Elec       q    Type
REMARK                         _______ _______ _______ _____ _____    ______ ____
ROOT
ATOM      1  S   UNL     1       2.875   7.926  17.739  0.00  0.00    +0.000 S 
ENDROOT
BRANCH   1   2
ATOM      2  C   UNL     1       2.997   6.129  17.913  0.00  0.00    +0.000 A 
ATOM      3  C   UNL     1       1.815   5.441  18.230  0.00  0.00    +0.000 A 
ATOM      4  C   UNL     1       1.826   4.065  18.456  0.00  0.00    +0.000 A 
ATOM      5  F   UNL     1       0.675   3.424  18.781  0.00  0.00    +0.000 F 
ATOM      6  C   UNL     1       3.018   3.351  18.362  0.00  0.00    +0.000 A 
ATOM      7  F   UNL     1       3.029   2.014  18.591  0.00  0.00    +0.000 F 
ATOM      8  C   UNL     1       4.207   4.014  18.047  0.00  0.00    +0.000 A 
ATOM      9  C   UNL     1       4.226   5.407  17.829  0.00  0.00    +0.000 A 
BRANCH   9  10
ATOM     10  C   UNL     1       5.564   6.063  17.531  0.00  0.00    +0.000 C 
BRANCH  10  11
ATOM     11  S   UNL     1       6.906   4.817  17.475  0.00  0.00    +0.000 S 
BRANCH  11  12
ATOM     12  C   UNL     1       6.935   4.627  15.673  0.00  0.00    +0.000 C 
ATOM     13  N   UNL     1       7.570   5.466  14.934  0.00  0.00    +0.000 NA
ATOM     14  N   UNL     1       6.195   3.580  15.067  0.00  0.00    +0.000 N 
ATOM     15  H   UNL     1       8.091   6.250  15.342  0.00  0.00    +0.000 HD
ATOM     16  H   UNL     1       5.667   2.917  15.649  0.00  0.00    +0.000 HD
ATOM     17  H   UNL     1       6.148   3.501  14.040  0.00  0.00    +0.000 HD
ENDBRANCH  11  12
ENDBRANCH  10  11
ENDBRANCH   9  10
ENDBRANCH   1   2
BRANCH   1  24
ATOM     18  C   UNL     1       0.741   9.304  19.152  0.00  0.00    +0.000 A 
ATOM     19  C   UNL     1      -0.008   9.454  20.340  0.00  0.00    +0.000 A 
ATOM     20  C   UNL     1       0.255   8.673  21.472  0.00  0.00    +0.000 A 
ATOM     21  F   UNL     1      -0.483   8.831  22.600  0.00  0.00    +0.000 F 
ATOM     22  C   UNL     1       1.261   7.718  21.436  0.00  0.00    +0.000 A 
ATOM     23  C   UNL     1       2.023   7.553  20.286  0.00  0.00    +0.000 A 
ATOM     24  C   UNL     1       1.810   8.334  19.144  0.00  0.00    +0.000 A 
BRANCH  18  25
ATOM     25  C   UNL     1       0.325  10.184  17.969  0.00  0.00    +0.000 C 
BRANCH  25  26
ATOM     26  S   UNL     1      -1.475  10.156  17.638  0.00  0.00    +0.000 S 
BRANCH  26  28
ATOM     27  N   UNL     1      -1.043  12.778  17.549  0.00  0.00    +0.000 NA
ATOM     28  C   UNL     1      -1.865  11.884  17.966  0.00  0.00    +0.000 C 
ATOM     29  N   UNL     1      -2.990  12.249  18.752  0.00  0.00    +0.000 N 
ATOM     30  H   UNL     1      -1.185  13.779  17.753  0.00  0.00    +0.000 HD
ATOM     31  H   UNL     1      -3.164  13.239  18.987  0.00  0.00    +0.000 HD
ATOM     32  H   UNL     1      -3.633  11.533  19.117  0.00  0.00    +0.000 HD
ENDBRANCH  26  28
ENDBRANCH  25  26
ENDBRANCH  18  25
ENDBRANCH   1  24
TORSDOF 8
ENDMDL
MODEL 6
REMARK VINA RESULT:      -7.1      3.349      5.260
REMARK  Name = 
REMARK  8 active torsions:
REMARK  status: ('A' for Active; 'I' for Inactive)
REMARK    1  A    between atoms: C_2  and  S_4
REMARK    2  A    between atoms: S_4  and  C_5
REMARK    3  A    between atoms: C_5  and  C_6
REMARK    4  A    between atoms: C_12  and  S_13
REMARK    5  A    between atoms: S_13  and  C_14
REMARK    6  A    between atoms: C_21  and  C_22
REMARK    7  A    between atoms: C_22  and  S_23
REMARK    8  A    between atoms: S_23  and  C_24
REMARK                            x       y       z     vdW  Elec       q    Type
REMARK                         _______ _______ _______ _____ _____    ______ ____
ROOT
ATOM      1  S   UNL     1       2.890   7.763  17.817  0.00  0.00    +0.000 S 
ENDROOT
BRANCH   1   2
ATOM      2  C   UNL     1       3.018   5.980  18.094  0.00  0.00    +0.000 A 
ATOM      3  C   UNL     1       1.839   5.231  17.954  0.00  0.00    +0.000 A 
ATOM      4  C   UNL     1       1.825   3.862  18.219  0.00  0.00    +0.000 A 
ATOM      5  F   UNL     1       0.669   3.161  18.098  0.00  0.00    +0.000 F 
ATOM      6  C   UNL     1       2.991   3.216  18.622  0.00  0.00    +0.000 A 
ATOM      7  F   UNL     1       2.974   1.886  18.888  0.00  0.00    +0.000 F 
ATOM      8  C   UNL     1       4.176   3.941  18.767  0.00  0.00    +0.000 A 
ATOM      9  C   UNL     1       4.215   5.329  18.521  0.00  0.00    +0.000 A 
BRANCH   9  10
ATOM     10  C   UNL     1       5.532   6.056  18.739  0.00  0.00    +0.000 C 
BRANCH  10  11
ATOM     11  S   UNL     1       6.301   6.510  17.139  0.00  0.00    +0.000 S 
BRANCH  11  12
ATOM     12  C   UNL     1       7.330   5.026  16.978  0.00  0.00    +0.000 C 
ATOM     13  N   UNL     1       7.632   4.559  15.819  0.00  0.00    +0.000 NA
ATOM     14  N   UNL     1       7.751   4.337  18.143  0.00  0.00    +0.000 N 
ATOM     15  H   UNL     1       7.317   5.020  14.958  0.00  0.00    +0.000 HD
ATOM     16  H   UNL     1       7.497   4.691  19.074  0.00  0.00    +0.000 HD
ATOM     17  H   UNL     1       8.279   3.454  18.065  0.00  0.00    +0.000 HD
ENDBRANCH  11  12
ENDBRANCH  10  11
ENDBRANCH   9  10
ENDBRANCH   1   2
BRANCH   1  24
ATOM     18  C   UNL     1       1.013   9.411  19.305  0.00  0.00    +0.000 A 
ATOM     19  C   UNL     1       0.271   9.609  20.490  0.00  0.00    +0.000 A 
ATOM     20  C   UNL     1       0.346   8.708  21.559  0.00  0.00    +0.000 A 
ATOM     21  F   UNL     1      -0.382   8.916  22.684  0.00  0.00    +0.000 F 
ATOM     22  C   UNL     1       1.154   7.583  21.460  0.00  0.00    +0.000 A 
ATOM     23  C   UNL     1       1.906   7.365  20.312  0.00  0.00    +0.000 A 
ATOM     24  C   UNL     1       1.880   8.258  19.234  0.00  0.00    +0.000 A 
BRANCH  18  25
ATOM     25  C   UNL     1       0.808  10.443  18.192  0.00  0.00    +0.000 C 
BRANCH  25  26
ATOM     26  S   UNL     1       0.447  12.125  18.817  0.00  0.00    +0.000 S 
BRANCH  26  28
ATOM     27  N   UNL     1      -2.143  12.632  19.149  0.00  0.00    +0.000 NA
ATOM     28  C   UNL     1      -1.266  12.281  18.279  0.00  0.00    +0.000 C 
ATOM     29  N   UNL     1      -1.660  11.925  16.962  0.00  0.00    +0.000 N 
ATOM     30  H   UNL     1      -3.145  12.686  18.914  0.00  0.00    +0.000 HD
ATOM     31  H   UNL     1      -2.654  11.957  16.687  0.00  0.00    +0.000 HD
ATOM     32  H   UNL     1      -0.966  11.610  16.271  0.00  0.00    +0.000 HD
ENDBRANCH  26  28
ENDBRANCH  25  26
ENDBRANCH  18  25
ENDBRANCH   1  24
TORSDOF 8
ENDMDL
MODEL 7
REMARK VINA RESULT:      -7.0      3.286      5.228
REMARK  Name = 
REMARK  8 active torsions:
REMARK  status: ('A' for Active; 'I' for Inactive)
REMARK    1  A    between atoms: C_2  and  S_4
REMARK    2  A    between atoms: S_4  and  C_5
REMARK    3  A    between atoms: C_5  and  C_6
REMARK    4  A    between atoms: C_12  and  S_13
REMARK    5  A    between atoms: S_13  and  C_14
REMARK    6  A    between atoms: C_21  and  C_22
REMARK    7  A    between atoms: C_22  and  S_23
REMARK    8  A    between atoms: S_23  and  C_24
REMARK                            x       y       z     vdW  Elec       q    Type
REMARK                         _______ _______ _______ _____ _____    ______ ____
ROOT
ATOM      1  S   UNL     1       3.154   7.422  17.937  0.00  0.00    +0.000 S 
ENDROOT
BRANCH   1   2
ATOM      2  C   UNL     1       3.149   5.641  18.256  0.00  0.00    +0.000 A 
ATOM      3  C   UNL     1       1.945   4.959  18.020  0.00  0.00    +0.000 A 
ATOM      4  C   UNL     1       1.824   3.599  18.308  0.00  0.00    +0.000 A 
ATOM      5  F   UNL     1       0.644   2.964  18.091  0.00  0.00    +0.000 F 
ATOM      6  C   UNL     1       2.908   2.896  18.828  0.00  0.00    +0.000 A 
ATOM      7  F   UNL     1       2.787   1.576  19.115  0.00  0.00    +0.000 F 
ATOM      8  C   UNL     1       4.116   3.554  19.070  0.00  0.00    +0.000 A 
ATOM      9  C   UNL     1       4.260   4.931  18.804  0.00  0.00    +0.000 A 
BRANCH   9  10
ATOM     10  C   UNL     1       5.593   5.585  19.131  0.00  0.00    +0.000 C 
BRANCH  10  11
ATOM     11  S   UNL     1       6.914   4.966  18.022  0.00  0.00    +0.000 S 
BRANCH  11  12
ATOM     12  C   UNL     1       6.820   6.318  16.818  0.00  0.00    +0.000 C 
ATOM     13  N   UNL     1       7.514   7.389  16.977  0.00  0.00    +0.000 NA
ATOM     14  N   UNL     1       5.923   6.221  15.725  0.00  0.00    +0.000 N 
ATOM     15  H   UNL     1       8.151   7.500  17.774  0.00  0.00    +0.000 HD
ATOM     16  H   UNL     1       5.348   5.378  15.601  0.00  0.00    +0.000 HD
ATOM     17  H   UNL     1       5.809   7.010  15.070  0.00  0.00    +0.000 HD
ENDBRANCH  11  12
ENDBRANCH  10  11
ENDBRANCH   9  10
ENDBRANCH   1   2
BRANCH   1  24
ATOM     18  C   UNL     1       1.330   9.252  19.270  0.00  0.00    +0.000 A 
ATOM     19  C   UNL     1       0.497   9.517  20.379  0.00  0.00    +0.000 A 
ATOM     20  C   UNL     1       0.361   8.599  21.427  0.00  0.00    +0.000 A 
ATOM     21  F   UNL     1      -0.451   8.874  22.478  0.00  0.00    +0.000 F 
ATOM     22  C   UNL     1       1.045   7.392  21.382  0.00  0.00    +0.000 A 
ATOM     23  C   UNL     1       1.882   7.105  20.311  0.00  0.00    +0.000 A 
ATOM     24  C   UNL     1       2.065   8.009  19.258  0.00  0.00    +0.000 A 
BRANCH  18  25
ATOM     25  C   UNL     1       1.356  10.314  18.167  0.00  0.00    +0.000 C 
BRANCH  25  26
ATOM     26  S   UNL     1       1.378  12.029  18.809  0.00  0.00    +0.000 S 
BRANCH  26  28
ATOM     27  N   UNL     1      -1.022  11.710  17.709  0.00  0.00    +0.000 NA
ATOM     28  C   UNL     1      -0.307  12.521  18.402  0.00  0.00    +0.000 C 
ATOM     29  N   UNL     1      -0.801  13.808  18.742  0.00  0.00    +0.000 N 
ATOM     30  H   UNL     1      -1.974  11.958  17.400  0.00  0.00    +0.000 HD
ATOM     31  H   UNL     1      -1.745  14.100  18.445  0.00  0.00    +0.000 HD
ATOM     32  H   UNL     1      -0.219  14.474  19.267  0.00  0.00    +0.000 HD
ENDBRANCH  26  28
ENDBRANCH  25  26
ENDBRANCH  18  25
ENDBRANCH   1  24
TORSDOF 8
ENDMDL
MODEL 8
REMARK VINA RESULT:      -7.0      3.216      5.399
REMARK  Name = 
REMARK  8 active torsions:
REMARK  status: ('A' for Active; 'I' for Inactive)
REMARK    1  A    between atoms: C_2  and  S_4
REMARK    2  A    between atoms: S_4  and  C_5
REMARK    3  A    between atoms: C_5  and  C_6
REMARK    4  A    between atoms: C_12  and  S_13
REMARK    5  A    between atoms: S_13  and  C_14
REMARK    6  A    between atoms: C_21  and  C_22
REMARK    7  A    between atoms: C_22  and  S_23
REMARK    8  A    between atoms: S_23  and  C_24
REMARK                            x       y       z     vdW  Elec       q    Type
REMARK                         _______ _______ _______ _____ _____    ______ ____
ROOT
ATOM      1  S   UNL     1       2.587   7.805  18.195  0.00  0.00    +0.000 S 
ENDROOT
BRANCH   1   2
ATOM      2  C   UNL     1       2.796   6.126  18.836  0.00  0.00    +0.000 A 
ATOM      3  C   UNL     1       1.696   5.559  19.497  0.00  0.00    +0.000 A 
ATOM      4  C   UNL     1       1.788   4.298  20.089  0.00  0.00    +0.000 A 
ATOM      5  F   UNL     1       0.718   3.778  20.741  0.00  0.00    +0.000 F 
ATOM      6  C   UNL     1       2.979   3.581  20.022  0.00  0.00    +0.000 A 
ATOM      7  F   UNL     1       3.070   2.359  20.605  0.00  0.00    +0.000 F 
ATOM      8  C   UNL     1       4.087   4.125  19.369  0.00  0.00    +0.000 A 
ATOM      9  C   UNL     1       4.026   5.403  18.776  0.00  0.00    +0.000 A 
BRANCH   9  10
ATOM     10  C   UNL     1       5.285   5.945  18.118  0.00  0.00    +0.000 C 
BRANCH  10  11
ATOM     11  S   UNL     1       5.221   5.719  16.301  0.00  0.00    +0.000 S 
BRANCH  11  12
ATOM     12  C   UNL     1       6.927   5.135  16.107  0.00  0.00    +0.000 C 
ATOM     13  N   UNL     1       7.559   5.311  15.002  0.00  0.00    +0.000 NA
ATOM     14  N   UNL     1       7.545   4.418  17.163  0.00  0.00    +0.000 N 
ATOM     15  H   UNL     1       7.128   5.801  14.210  0.00  0.00    +0.000 HD
ATOM     16  H   UNL     1       7.039   4.254  18.042  0.00  0.00    +0.000 HD
ATOM     17  H   UNL     1       8.489   4.021  17.041  0.00  0.00    +0.000 HD
ENDBRANCH  11  12
ENDBRANCH  10  11
ENDBRANCH   9  10
ENDBRANCH   1   2
BRANCH   1  24
ATOM     18  C   UNL     1       0.400   9.378  19.289  0.00  0.00    +0.000 A 
ATOM     19  C   UNL     1      -0.299   9.826  20.431  0.00  0.00    +0.000 A 
ATOM     20  C   UNL     1       0.095   9.454  21.722  0.00  0.00    +0.000 A 
ATOM     21  F   UNL     1      -0.597   9.892  22.803  0.00  0.00    +0.000 F 
ATOM     22  C   UNL     1       1.188   8.616  21.897  0.00  0.00    +0.000 A 
ATOM     23  C   UNL     1       1.905   8.167  20.794  0.00  0.00    +0.000 A 
ATOM     24  C   UNL     1       1.559   8.540  19.490  0.00  0.00    +0.000 A 
BRANCH  18  25
ATOM     25  C   UNL     1      -0.159   9.816  17.932  0.00  0.00    +0.000 C 
BRANCH  25  26
ATOM     26  S   UNL     1      -1.982   9.986  17.917  0.00  0.00    +0.000 S 
BRANCH  26  28
ATOM     27  N   UNL     1      -2.924  11.549  15.982  0.00  0.00    +0.000 NA
ATOM     28  C   UNL     1      -2.130  11.524  16.991  0.00  0.00    +0.000 C 
ATOM     29  N   UNL     1      -1.317  12.648  17.296  0.00  0.00    +0.000 N 
ATOM     30  H   UNL     1      -3.011  12.383  15.383  0.00  0.00    +0.000 HD
ATOM     31  H   UNL     1      -1.366  13.501  16.716  0.00  0.00    +0.000 HD
ATOM     32  H   UNL     1      -0.654  12.622  18.082  0.00  0.00    +0.000 HD
ENDBRANCH  26  28
ENDBRANCH  25  26
ENDBRANCH  18  25
ENDBRANCH   1  24
TORSDOF 8
ENDMDL
MODEL 9
REMARK VINA RESULT:      -7.0      3.343      5.195
REMARK  Name = 
REMARK  8 active torsions:
REMARK  status: ('A' for Active; 'I' for Inactive)
REMARK    1  A    between atoms: C_2  and  S_4
REMARK    2  A    between atoms: S_4  and  C_5
REMARK    3  A    between atoms: C_5  and  C_6
REMARK    4  A    between atoms: C_12  and  S_13
REMARK    5  A    between atoms: S_13  and  C_14
REMARK    6  A    between atoms: C_21  and  C_22
REMARK    7  A    between atoms: C_22  and  S_23
REMARK    8  A    between atoms: S_23  and  C_24
REMARK                            x       y       z     vdW  Elec       q    Type
REMARK                         _______ _______ _______ _____ _____    ______ ____
ROOT
ATOM      1  S   UNL     1       2.989   7.483  17.781  0.00  0.00    +0.000 S 
ENDROOT
BRANCH   1   2
ATOM      2  C   UNL     1       3.099   5.713  18.137  0.00  0.00    +0.000 A 
ATOM      3  C   UNL     1       1.928   4.958  17.967  0.00  0.00    +0.000 A 
ATOM      4  C   UNL     1       1.898   3.601  18.288  0.00  0.00    +0.000 A 
ATOM      5  F   UNL     1       0.749   2.895  18.134  0.00  0.00    +0.000 F 
ATOM      6  C   UNL     1       3.040   2.973  18.778  0.00  0.00    +0.000 A 
ATOM      7  F   UNL     1       3.007   1.655  19.097  0.00  0.00    +0.000 F 
ATOM      8  C   UNL     1       4.217   3.704  18.955  0.00  0.00    +0.000 A 
ATOM      9  C   UNL     1       4.271   5.080  18.653  0.00  0.00    +0.000 A 
BRANCH   9  10
ATOM     10  C   UNL     1       5.576   5.817  18.910  0.00  0.00    +0.000 C 
BRANCH  10  11
ATOM     11  S   UNL     1       6.419   6.221  17.335  0.00  0.00    +0.000 S 
BRANCH  11  12
ATOM     12  C   UNL     1       7.066   4.557  17.016  0.00  0.00    +0.000 C 
ATOM     13  N   UNL     1       8.112   4.131  17.629  0.00  0.00    +0.000 NA
ATOM     14  N   UNL     1       6.449   3.743  16.033  0.00  0.00    +0.000 N 
ATOM     15  H   UNL     1       8.597   4.708  18.325  0.00  0.00    +0.000 HD
ATOM     16  H   UNL     1       5.624   4.084  15.523  0.00  0.00    +0.000 HD
ATOM     17  H   UNL     1       6.847   2.823  15.793  0.00  0.00    +0.000 HD
ENDBRANCH  11  12
ENDBRANCH  10  11
ENDBRANCH   9  10
ENDBRANCH   1   2
BRANCH   1  24
ATOM     18  C   UNL     1       1.229   9.271  19.250  0.00  0.00    +0.000 A 
ATOM     19  C   UNL     1       0.492   9.526  20.427  0.00  0.00    +0.000 A 
ATOM     20  C   UNL     1       0.487   8.623  21.496  0.00  0.00    +0.000 A 
ATOM     21  F   UNL     1      -0.235   8.887  22.614  0.00  0.00    +0.000 F 
ATOM     22  C   UNL     1       1.207   7.440  21.406  0.00  0.00    +0.000 A 
ATOM     23  C   UNL     1       1.952   7.163  20.266  0.00  0.00    +0.000 A 
ATOM     24  C   UNL     1       2.005   8.055  19.187  0.00  0.00    +0.000 A 
BRANCH  18  25
ATOM     25  C   UNL     1       1.115  10.315  18.135  0.00  0.00    +0.000 C 
BRANCH  25  26
ATOM     26  S   UNL     1       0.349  11.885  18.683  0.00  0.00    +0.000 S 
BRANCH  26  28
ATOM     27  N   UNL     1       1.781  14.077  19.151  0.00  0.00    +0.000 NA
ATOM     28  C   UNL     1       1.752  12.993  18.462  0.00  0.00    +0.000 C 
ATOM     29  N   UNL     1       2.747  12.737  17.481  0.00  0.00    +0.000 N 
ATOM     30  H   UNL     1       2.530  14.774  19.030  0.00  0.00    +0.000 HD
ATOM     31  H   UNL     1       3.509  13.414  17.321  0.00  0.00    +0.000 HD
ATOM     32  H   UNL     1       2.709  11.887  16.902  0.00  0.00    +0.000 HD
ENDBRANCH  26  28
ENDBRANCH  25  26
ENDBRANCH  18  25
ENDBRANCH   1  24
TORSDOF 8
ENDMDL
