MODEL 1
REMARK VINA RESULT:      -7.9      0.000      0.000
REMARK  Name = 
REMARK  4 active torsions:
REMARK  status: ('A' for Active; 'I' for Inactive)
REMARK    1  A    between atoms: C_2  and  C_3
REMARK    2  A    between atoms: C_6  and  C_7
REMARK    3  A    between atoms: C_7  and  O_8
REMARK    4  A    between atoms: O_8  and  C_9
REMARK                            x       y       z     vdW  Elec       q    Type
REMARK                         _______ _______ _______ _____ _____    ______ ____
ROOT
ATOM      1  C   UNL     1       3.218   6.784  18.820  0.00  0.00    +0.000 A 
ATOM      2  C   UNL     1       3.212   7.499  17.636  0.00  0.00    +0.000 A 
ATOM      3  C   UNL     1       2.282   8.552  17.792  0.00  0.00    +0.000 A 
ATOM      4  C   UNL     1       1.810   8.460  19.084  0.00  0.00    +0.000 A 
ATOM      5  O   UNL     1       2.397   7.407  19.720  0.00  0.00    +0.000 OA
ENDROOT
BRANCH   1   7
ATOM      6  O   UNL     1       5.198   5.649  19.288  0.00  0.00    +0.000 OA
ATOM      7  C   UNL     1       3.971   5.591  19.173  0.00  0.00    +0.000 C 
ATOM      8  N   UNL     1       3.303   4.360  19.329  0.00  0.00    +0.000 N 
ATOM      9  C   UNL     1       1.884   4.141  19.048  0.00  0.00    +0.000 C 
ATOM     10  C   UNL     1       1.057   4.162  20.332  0.00  0.00    +0.000 C 
ATOM     11  C   UNL     1       1.196   2.902  21.189  0.00  0.00    +0.000 C 
ATOM     12  C   UNL     1       2.629   2.506  21.552  0.00  0.00    +0.000 C 
ATOM     13  C   UNL     1       3.441   2.043  20.344  0.00  0.00    +0.000 C 
ATOM     14  C   UNL     1       4.128   3.186  19.597  0.00  0.00    +0.000 C 
ENDBRANCH   1   7
BRANCH   4  15
ATOM     15  C   UNL     1       0.852   9.268  19.878  0.00  0.00    +0.000 C 
BRANCH  15  16
ATOM     16  O   UNL     1       0.631  10.481  19.161  0.00  0.00    +0.000 OA
BRANCH  16  17
ATOM     17  C   UNL     1      -0.634  10.701  18.674  0.00  0.00    +0.000 A 
ATOM     18  C   UNL     1      -1.138  10.129  17.500  0.00  0.00    +0.000 A 
ATOM     19  C   UNL     1      -2.446  10.400  17.091  0.00  0.00    +0.000 A 
ATOM     20 CL   UNL     1      -3.052   9.677  15.652  0.00  0.00    +0.000 Cl
ATOM     21  C   UNL     1      -3.266  11.247  17.836  0.00  0.00    +0.000 A 
ATOM     22  C   UNL     1      -2.769  11.833  19.001  0.00  0.00    +0.000 A 
ATOM     23  C   UNL     1      -1.462  11.562  19.414  0.00  0.00    +0.000 A 
ATOM     24 CL   UNL     1      -0.907  12.321  20.866  0.00  0.00    +0.000 Cl
ENDBRANCH  16  17
ENDBRANCH  15  16
ENDBRANCH   4  15
TORSDOF 4
ENDMDL
MODEL 2
REMARK VINA RESULT:      -7.7      6.265      8.186
REMARK  Name = 
REMARK  4 active torsions:
REMARK  status: ('A' for Active; 'I' for Inactive)
REMARK    1  A    between atoms: C_2  and  C_3
REMARK    2  A    between atoms: C_6  and  C_7
REMARK    3  A    between atoms: C_7  and  O_8
REMARK    4  A    between atoms: O_8  and  C_9
REMARK                            x       y       z     vdW  Elec       q    Type
REMARK                         _______ _______ _______ _____ _____    ______ ____
ROOT
ATOM      1  C   UNL     1       6.560   6.140  17.354  0.00  0.00    +0.000 A 
ATOM      2  C   UNL     1       7.444   5.745  18.342  0.00  0.00    +0.000 A 
ATOM      3  C   UNL     1       8.247   6.866  18.652  0.00  0.00    +0.000 A 
ATOM      4  C   UNL     1       7.774   7.904  17.878  0.00  0.00    +0.000 A 
ATOM      5  O   UNL     1       6.732   7.476  17.111  0.00  0.00    +0.000 OA
ENDROOT
BRANCH   1   7
ATOM      6  O   UNL     1       5.587   5.252  15.432  0.00  0.00    +0.000 OA
ATOM      7  C   UNL     1       5.544   5.364  16.661  0.00  0.00    +0.000 C 
ATOM      8  N   UNL     1       4.485   4.787  17.387  0.00  0.00    +0.000 N 
ATOM      9  C   UNL     1       4.240   4.999  18.814  0.00  0.00    +0.000 C 
ATOM     10  C   UNL     1       4.761   3.827  19.643  0.00  0.00    +0.000 C 
ATOM     11  C   UNL     1       3.893   2.570  19.568  0.00  0.00    +0.000 C 
ATOM     12  C   UNL     1       3.594   2.057  18.158  0.00  0.00    +0.000 C 
ATOM     13  C   UNL     1       2.690   2.999  17.364  0.00  0.00    +0.000 C 
ATOM     14  C   UNL     1       3.453   4.095  16.621  0.00  0.00    +0.000 C 
ENDBRANCH   1   7
BRANCH   4  15
ATOM     15  C   UNL     1       8.151   9.334  17.751  0.00  0.00    +0.000 C 
BRANCH  15  16
ATOM     16  O   UNL     1       8.831   9.696  18.951  0.00  0.00    +0.000 OA
BRANCH  16  17
ATOM     17  C   UNL     1       9.552  10.865  18.937  0.00  0.00    +0.000 A 
ATOM     18  C   UNL     1      10.164  11.400  17.798  0.00  0.00    +0.000 A 
ATOM     19  C   UNL     1      10.864  12.607  17.877  0.00  0.00    +0.000 A 
ATOM     20 CL   UNL     1      11.599  13.256  16.464  0.00  0.00    +0.000 Cl
ATOM     21  C   UNL     1      10.972  13.291  19.087  0.00  0.00    +0.000 A 
ATOM     22  C   UNL     1      10.376  12.759  20.232  0.00  0.00    +0.000 A 
ATOM     23  C   UNL     1       9.673  11.555  20.156  0.00  0.00    +0.000 A 
ATOM     24 CL   UNL     1       8.959  10.949  21.611  0.00  0.00    +0.000 Cl
ENDBRANCH  16  17
ENDBRANCH  15  16
ENDBRANCH   4  15
TORSDOF 4
ENDMDL
MODEL 3
REMARK VINA RESULT:      -7.6      1.322      1.606
REMARK  Name = 
REMARK  4 active torsions:
REMARK  status: ('A' for Active; 'I' for Inactive)
REMARK    1  A    between atoms: C_2  and  C_3
REMARK    2  A    between atoms: C_6  and  C_7
REMARK    3  A    between atoms: C_7  and  O_8
REMARK    4  A    between atoms: O_8  and  C_9
REMARK                            x       y       z     vdW  Elec       q    Type
REMARK                         _______ _______ _______ _____ _____    ______ ____
ROOT
ATOM      1  C   UNL     1       2.705   6.911  18.903  0.00  0.00    +0.000 A 
ATOM      2  C   UNL     1       2.207   7.007  20.191  0.00  0.00    +0.000 A 
ATOM      3  C   UNL     1       1.491   8.224  20.268  0.00  0.00    +0.000 A 
ATOM      4  C   UNL     1       1.540   8.780  19.008  0.00  0.00    +0.000 A 
ATOM      5  O   UNL     1       2.251   7.973  18.170  0.00  0.00    +0.000 OA
ENDROOT
BRANCH   1   7
ATOM      6  O   UNL     1       4.729   6.095  18.089  0.00  0.00    +0.000 OA
ATOM      7  C   UNL     1       3.535   5.875  18.311  0.00  0.00    +0.000 C 
ATOM      8  N   UNL     1       2.962   4.642  17.941  0.00  0.00    +0.000 N 
ATOM      9  C   UNL     1       1.532   4.338  17.996  0.00  0.00    +0.000 C 
ATOM     10  C   UNL     1       1.187   3.534  19.248  0.00  0.00    +0.000 C 
ATOM     11  C   UNL     1       1.610   2.065  19.186  0.00  0.00    +0.000 C 
ATOM     12  C   UNL     1       3.082   1.815  18.852  0.00  0.00    +0.000 C 
ATOM     13  C   UNL     1       3.440   2.210  17.420  0.00  0.00    +0.000 C 
ATOM     14  C   UNL     1       3.832   3.680  17.272  0.00  0.00    +0.000 C 
ENDBRANCH   1   7
BRANCH   4  15
ATOM     15  C   UNL     1       0.971  10.017  18.418  0.00  0.00    +0.000 C 
BRANCH  15  16
ATOM     16  O   UNL     1      -0.209  10.329  19.157  0.00  0.00    +0.000 OA
BRANCH  16  17
ATOM     17  C   UNL     1      -1.346  10.604  18.439  0.00  0.00    +0.000 A 
ATOM     18  C   UNL     1      -1.626  10.076  17.172  0.00  0.00    +0.000 A 
ATOM     19  C   UNL     1      -2.820  10.400  16.524  0.00  0.00    +0.000 A 
ATOM     20 CL   UNL     1      -3.152   9.732  14.974  0.00  0.00    +0.000 Cl
ATOM     21  C   UNL     1      -3.745  11.257  17.118  0.00  0.00    +0.000 A 
ATOM     22  C   UNL     1      -3.471  11.798  18.375  0.00  0.00    +0.000 A 
ATOM     23  C   UNL     1      -2.279  11.475  19.028  0.00  0.00    +0.000 A 
ATOM     24 CL   UNL     1      -1.998  12.180  20.582  0.00  0.00    +0.000 Cl
ENDBRANCH  16  17
ENDBRANCH  15  16
ENDBRANCH   4  15
TORSDOF 4
ENDMDL
MODEL 4
REMARK VINA RESULT:      -7.5      2.585      4.560
REMARK  Name = 
REMARK  4 active torsions:
REMARK  status: ('A' for Active; 'I' for Inactive)
REMARK    1  A    between atoms: C_2  and  C_3
REMARK    2  A    between atoms: C_6  and  C_7
REMARK    3  A    between atoms: C_7  and  O_8
REMARK    4  A    between atoms: O_8  and  C_9
REMARK                            x       y       z     vdW  Elec       q    Type
REMARK                         _______ _______ _______ _____ _____    ______ ____
ROOT
ATOM      1  C   UNL     1       2.797   4.302  18.969  0.00  0.00    +0.000 A 
ATOM      2  C   UNL     1       2.397   3.412  19.950  0.00  0.00    +0.000 A 
ATOM      3  C   UNL     1       1.815   4.175  20.988  0.00  0.00    +0.000 A 
ATOM      4  C   UNL     1       1.838   5.486  20.562  0.00  0.00    +0.000 A 
ATOM      5  O   UNL     1       2.406   5.563  19.325  0.00  0.00    +0.000 OA
ENDROOT
BRANCH   1   7
ATOM      6  O   UNL     1       2.825   3.722  16.712  0.00  0.00    +0.000 OA
ATOM      7  C   UNL     1       3.477   4.041  17.710  0.00  0.00    +0.000 C 
ATOM      8  N   UNL     1       4.883   4.099  17.647  0.00  0.00    +0.000 N 
ATOM      9  C   UNL     1       5.762   4.294  18.801  0.00  0.00    +0.000 C 
ATOM     10  C   UNL     1       6.223   5.747  18.902  0.00  0.00    +0.000 C 
ATOM     11  C   UNL     1       7.293   6.139  17.881  0.00  0.00    +0.000 C 
ATOM     12  C   UNL     1       6.945   5.853  16.419  0.00  0.00    +0.000 C 
ATOM     13  C   UNL     1       6.878   4.358  16.107  0.00  0.00    +0.000 C 
ATOM     14  C   UNL     1       5.506   3.740  16.377  0.00  0.00    +0.000 C 
ENDBRANCH   1   7
BRANCH   4  15
ATOM     15  C   UNL     1       1.359   6.759  21.155  0.00  0.00    +0.000 C 
BRANCH  15  16
ATOM     16  O   UNL     1       1.649   7.793  20.217  0.00  0.00    +0.000 OA
BRANCH  16  17
ATOM     17  C   UNL     1       0.986   8.985  20.371  0.00  0.00    +0.000 A 
ATOM     18  C   UNL     1       0.319   9.372  21.540  0.00  0.00    +0.000 A 
ATOM     19  C   UNL     1      -0.315  10.615  21.609  0.00  0.00    +0.000 A 
ATOM     20 CL   UNL     1      -1.118  11.078  23.059  0.00  0.00    +0.000 Cl
ATOM     21  C   UNL     1      -0.303  11.484  20.519  0.00  0.00    +0.000 A 
ATOM     22  C   UNL     1       0.348  11.103  19.345  0.00  0.00    +0.000 A 
ATOM     23  C   UNL     1       0.985   9.863  19.272  0.00  0.00    +0.000 A 
ATOM     24 CL   UNL     1       1.773   9.450  17.788  0.00  0.00    +0.000 Cl
ENDBRANCH  16  17
ENDBRANCH  15  16
ENDBRANCH   4  15
TORSDOF 4
ENDMDL
MODEL 5
REMARK VINA RESULT:      -7.5      6.388      8.199
REMARK  Name = 
REMARK  4 active torsions:
REMARK  status: ('A' for Active; 'I' for Inactive)
REMARK    1  A    between atoms: C_2  and  C_3
REMARK    2  A    between atoms: C_6  and  C_7
REMARK    3  A    between atoms: C_7  and  O_8
REMARK    4  A    between atoms: O_8  and  C_9
REMARK                            x       y       z     vdW  Elec       q    Type
REMARK                         _______ _______ _______ _____ _____    ______ ____
ROOT
ATOM      1  C   UNL     1       7.391   6.644  17.507  0.00  0.00    +0.000 A 
ATOM      2  C   UNL     1       8.076   6.618  18.709  0.00  0.00    +0.000 A 
ATOM      3  C   UNL     1       8.561   7.927  18.937  0.00  0.00    +0.000 A 
ATOM      4  C   UNL     1       8.099   8.696  17.891  0.00  0.00    +0.000 A 
ATOM      5  O   UNL     1       7.364   7.929  17.037  0.00  0.00    +0.000 OA
ENDROOT
BRANCH   1   7
ATOM      6  O   UNL     1       7.329   4.946  15.913  0.00  0.00    +0.000 OA
ATOM      7  C   UNL     1       6.729   5.559  16.800  0.00  0.00    +0.000 C 
ATOM      8  N   UNL     1       5.386   5.248  17.091  0.00  0.00    +0.000 N 
ATOM      9  C   UNL     1       4.529   6.018  17.993  0.00  0.00    +0.000 C 
ATOM     10  C   UNL     1       4.439   5.356  19.367  0.00  0.00    +0.000 C 
ATOM     11  C   UNL     1       3.551   4.111  19.407  0.00  0.00    +0.000 C 
ATOM     12  C   UNL     1       3.887   3.028  18.379  0.00  0.00    +0.000 C 
ATOM     13  C   UNL     1       3.595   3.462  16.944  0.00  0.00    +0.000 C 
ATOM     14  C   UNL     1       4.756   4.208  16.284  0.00  0.00    +0.000 C 
ENDBRANCH   1   7
BRANCH   4  15
ATOM     15  C   UNL     1       8.222  10.136  17.553  0.00  0.00    +0.000 C 
BRANCH  15  16
ATOM     16  O   UNL     1       9.375  10.629  18.234  0.00  0.00    +0.000 OA
BRANCH  16  17
ATOM     17  C   UNL     1       9.527  11.991  18.308  0.00  0.00    +0.000 A 
ATOM     18  C   UNL     1       8.529  12.915  17.976  0.00  0.00    +0.000 A 
ATOM     19  C   UNL     1       8.771  14.286  18.099  0.00  0.00    +0.000 A 
ATOM     20 CL   UNL     1       7.528  15.406  17.698  0.00  0.00    +0.000 Cl
ATOM     21  C   UNL     1      10.006  14.755  18.544  0.00  0.00    +0.000 A 
ATOM     22  C   UNL     1      11.012  13.843  18.866  0.00  0.00    +0.000 A 
ATOM     23  C   UNL     1      10.773  12.472  18.746  0.00  0.00    +0.000 A 
ATOM     24 CL   UNL     1      12.061  11.394  19.160  0.00  0.00    +0.000 Cl
ENDBRANCH  16  17
ENDBRANCH  15  16
ENDBRANCH   4  15
TORSDOF 4
ENDMDL
MODEL 6
REMARK VINA RESULT:      -7.5      2.555      4.775
REMARK  Name = 
REMARK  4 active torsions:
REMARK  status: ('A' for Active; 'I' for Inactive)
REMARK    1  A    between atoms: C_2  and  C_3
REMARK    2  A    between atoms: C_6  and  C_7
REMARK    3  A    between atoms: C_7  and  O_8
REMARK    4  A    between atoms: O_8  and  C_9
REMARK                            x       y       z     vdW  Elec       q    Type
REMARK                         _______ _______ _______ _____ _____    ______ ____
ROOT
ATOM      1  C   UNL     1       3.067   3.628  19.313  0.00  0.00    +0.000 A 
ATOM      2  C   UNL     1       2.909   2.946  20.507  0.00  0.00    +0.000 A 
ATOM      3  C   UNL     1       2.256   3.824  21.402  0.00  0.00    +0.000 A 
ATOM      4  C   UNL     1       1.997   4.976  20.691  0.00  0.00    +0.000 A 
ATOM      5  O   UNL     1       2.461   4.850  19.415  0.00  0.00    +0.000 OA
ENDROOT
BRANCH   1   7
ATOM      6  O   UNL     1       3.314   2.169  17.513  0.00  0.00    +0.000 OA
ATOM      7  C   UNL     1       3.705   3.193  18.080  0.00  0.00    +0.000 C 
ATOM      8  N   UNL     1       4.803   3.912  17.567  0.00  0.00    +0.000 N 
ATOM      9  C   UNL     1       5.456   5.032  18.245  0.00  0.00    +0.000 C 
ATOM     10  C   UNL     1       4.980   6.370  17.683  0.00  0.00    +0.000 C 
ATOM     11  C   UNL     1       5.560   6.717  16.311  0.00  0.00    +0.000 C 
ATOM     12  C   UNL     1       5.373   5.654  15.227  0.00  0.00    +0.000 C 
ATOM     13  C   UNL     1       6.181   4.385  15.495  0.00  0.00    +0.000 C 
ATOM     14  C   UNL     1       5.451   3.372  16.376  0.00  0.00    +0.000 C 
ENDBRANCH   1   7
BRANCH   4  15
ATOM     15  C   UNL     1       1.319   6.252  21.030  0.00  0.00    +0.000 C 
BRANCH  15  16
ATOM     16  O   UNL     1       1.901   7.265  20.213  0.00  0.00    +0.000 OA
BRANCH  16  17
ATOM     17  C   UNL     1       1.325   8.511  20.249  0.00  0.00    +0.000 A 
ATOM     18  C   UNL     1       0.676   9.047  21.368  0.00  0.00    +0.000 A 
ATOM     19  C   UNL     1       0.133  10.333  21.317  0.00  0.00    +0.000 A 
ATOM     20 CL   UNL     1      -0.649  10.979  22.706  0.00  0.00    +0.000 Cl
ATOM     21  C   UNL     1       0.219  11.098  20.154  0.00  0.00    +0.000 A 
ATOM     22  C   UNL     1       0.853  10.568  19.030  0.00  0.00    +0.000 A 
ATOM     23  C   UNL     1       1.399   9.284  19.078  0.00  0.00    +0.000 A 
ATOM     24 CL   UNL     1       2.170   8.685  17.649  0.00  0.00    +0.000 Cl
ENDBRANCH  16  17
ENDBRANCH  15  16
ENDBRANCH   4  15
TORSDOF 4
ENDMDL
MODEL 7
REMARK VINA RESULT:      -7.4      1.632      2.826
REMARK  Name = 
REMARK  4 active torsions:
REMARK  status: ('A' for Active; 'I' for Inactive)
REMARK    1  A    between atoms: C_2  and  C_3
REMARK    2  A    between atoms: C_6  and  C_7
REMARK    3  A    between atoms: C_7  and  O_8
REMARK    4  A    between atoms: O_8  and  C_9
REMARK                            x       y       z     vdW  Elec       q    Type
REMARK                         _______ _______ _______ _____ _____    ______ ____
ROOT
ATOM      1  C   UNL     1       2.954   7.057  18.390  0.00  0.00    +0.000 A 
ATOM      2  C   UNL     1       2.628   8.122  17.569  0.00  0.00    +0.000 A 
ATOM      3  C   UNL     1       1.805   8.990  18.323  0.00  0.00    +0.000 A 
ATOM      4  C   UNL     1       1.719   8.440  19.583  0.00  0.00    +0.000 A 
ATOM      5  O   UNL     1       2.438   7.282  19.637  0.00  0.00    +0.000 OA
ENDROOT
BRANCH   1   7
ATOM      6  O   UNL     1       4.971   5.973  17.960  0.00  0.00    +0.000 OA
ATOM      7  C   UNL     1       3.748   5.875  18.095  0.00  0.00    +0.000 C 
ATOM      8  N   UNL     1       3.113   4.631  17.910  0.00  0.00    +0.000 N 
ATOM      9  C   UNL     1       1.664   4.433  17.874  0.00  0.00    +0.000 C 
ATOM     10  C   UNL     1       1.145   3.914  19.214  0.00  0.00    +0.000 C 
ATOM     11  C   UNL     1       1.453   2.439  19.477  0.00  0.00    +0.000 C 
ATOM     12  C   UNL     1       2.924   2.038  19.351  0.00  0.00    +0.000 C 
ATOM     13  C   UNL     1       3.439   2.119  17.914  0.00  0.00    +0.000 C 
ATOM     14  C   UNL     1       3.959   3.504  17.530  0.00  0.00    +0.000 C 
ENDBRANCH   1   7
BRANCH   4  15
ATOM     15  C   UNL     1       1.046   8.863  20.836  0.00  0.00    +0.000 C 
BRANCH  15  16
ATOM     16  O   UNL     1      -0.310   9.158  20.504  0.00  0.00    +0.000 OA
BRANCH  16  17
ATOM     17  C   UNL     1      -0.707  10.470  20.590  0.00  0.00    +0.000 A 
ATOM     18  C   UNL     1      -0.601  11.252  21.746  0.00  0.00    +0.000 A 
ATOM     19  C   UNL     1      -1.018  12.585  21.733  0.00  0.00    +0.000 A 
ATOM     20 CL   UNL     1      -0.868  13.534  23.161  0.00  0.00    +0.000 Cl
ATOM     21  C   UNL     1      -1.551  13.155  20.578  0.00  0.00    +0.000 A 
ATOM     22  C   UNL     1      -1.672  12.381  19.424  0.00  0.00    +0.000 A 
ATOM     23  C   UNL     1      -1.255  11.048  19.432  0.00  0.00    +0.000 A 
ATOM     24 CL   UNL     1      -1.433  10.142  17.969  0.00  0.00    +0.000 Cl
ENDBRANCH  16  17
ENDBRANCH  15  16
ENDBRANCH   4  15
TORSDOF 4
ENDMDL
MODEL 8
REMARK VINA RESULT:      -7.4      2.224      2.587
REMARK  Name = 
REMARK  4 active torsions:
REMARK  status: ('A' for Active; 'I' for Inactive)
REMARK    1  A    between atoms: C_2  and  C_3
REMARK    2  A    between atoms: C_6  and  C_7
REMARK    3  A    between atoms: C_7  and  O_8
REMARK    4  A    between atoms: O_8  and  C_9
REMARK                            x       y       z     vdW  Elec       q    Type
REMARK                         _______ _______ _______ _____ _____    ______ ____
ROOT
ATOM      1  C   UNL     1       2.994   6.950  18.390  0.00  0.00    +0.000 A 
ATOM      2  C   UNL     1       2.631   8.008  17.576  0.00  0.00    +0.000 A 
ATOM      3  C   UNL     1       1.826   8.872  18.354  0.00  0.00    +0.000 A 
ATOM      4  C   UNL     1       1.786   8.325  19.618  0.00  0.00    +0.000 A 
ATOM      5  O   UNL     1       2.517   7.175  19.653  0.00  0.00    +0.000 OA
ENDROOT
BRANCH   1   7
ATOM      6  O   UNL     1       5.015   5.869  17.970  0.00  0.00    +0.000 OA
ATOM      7  C   UNL     1       3.789   5.774  18.074  0.00  0.00    +0.000 C 
ATOM      8  N   UNL     1       3.152   4.540  17.831  0.00  0.00    +0.000 N 
ATOM      9  C   UNL     1       1.703   4.352  17.755  0.00  0.00    +0.000 C 
ATOM     10  C   UNL     1       1.151   3.791  19.064  0.00  0.00    +0.000 C 
ATOM     11  C   UNL     1       1.445   2.306  19.284  0.00  0.00    +0.000 C 
ATOM     12  C   UNL     1       2.916   1.901  19.178  0.00  0.00    +0.000 C 
ATOM     13  C   UNL     1       3.465   2.028  17.758  0.00  0.00    +0.000 C 
ATOM     14  C   UNL     1       4.001   3.422  17.433  0.00  0.00    +0.000 C 
ENDBRANCH   1   7
BRANCH   4  15
ATOM     15  C   UNL     1       1.151   8.748  20.891  0.00  0.00    +0.000 C 
BRANCH  15  16
ATOM     16  O   UNL     1      -0.129   9.283  20.563  0.00  0.00    +0.000 OA
BRANCH  16  17
ATOM     17  C   UNL     1      -0.304  10.636  20.719  0.00  0.00    +0.000 A 
ATOM     18  C   UNL     1      -0.197  11.570  19.681  0.00  0.00    +0.000 A 
ATOM     19  C   UNL     1      -0.409  12.928  19.933  0.00  0.00    +0.000 A 
ATOM     20 CL   UNL     1      -0.286  14.059  18.643  0.00  0.00    +0.000 Cl
ATOM     21  C   UNL     1      -0.719  13.376  21.217  0.00  0.00    +0.000 A 
ATOM     22  C   UNL     1      -0.816  12.454  22.260  0.00  0.00    +0.000 A 
ATOM     23  C   UNL     1      -0.608  11.096  22.012  0.00  0.00    +0.000 A 
ATOM     24 CL   UNL     1      -0.741  10.006  23.349  0.00  0.00    +0.000 Cl
ENDBRANCH  16  17
ENDBRANCH  15  16
ENDBRANCH   4  15
TORSDOF 4
ENDMDL
MODEL 9
REMARK VINA RESULT:      -7.4      0.798      2.225
REMARK  Name = 
REMARK  4 active torsions:
REMARK  status: ('A' for Active; 'I' for Inactive)
REMARK    1  A    between atoms: C_2  and  C_3
REMARK    2  A    between atoms: C_6  and  C_7
REMARK    3  A    between atoms: C_7  and  O_8
REMARK    4  A    between atoms: O_8  and  C_9
REMARK                            x       y       z     vdW  Elec       q    Type
REMARK                         _______ _______ _______ _____ _____    ______ ____
ROOT
ATOM      1  C   UNL     1       3.295   6.760  18.768  0.00  0.00    +0.000 A 
ATOM      2  C   UNL     1       3.314   7.436  17.560  0.00  0.00    +0.000 A 
ATOM      3  C   UNL     1       2.399   8.508  17.672  0.00  0.00    +0.000 A 
ATOM      4  C   UNL     1       1.912   8.467  18.960  0.00  0.00    +0.000 A 
ATOM      5  O   UNL     1       2.474   7.425  19.638  0.00  0.00    +0.000 OA
ENDROOT
BRANCH   1   7
ATOM      6  O   UNL     1       5.248   5.615  19.316  0.00  0.00    +0.000 OA
ATOM      7  C   UNL     1       4.024   5.567  19.169  0.00  0.00    +0.000 C 
ATOM      8  N   UNL     1       3.338   4.348  19.333  0.00  0.00    +0.000 N 
ATOM      9  C   UNL     1       1.925   4.137  19.017  0.00  0.00    +0.000 C 
ATOM     10  C   UNL     1       1.064   4.196  20.277  0.00  0.00    +0.000 C 
ATOM     11  C   UNL     1       1.164   2.955  21.165  0.00  0.00    +0.000 C 
ATOM     12  C   UNL     1       2.581   2.552  21.577  0.00  0.00    +0.000 C 
ATOM     13  C   UNL     1       3.422   2.053  20.403  0.00  0.00    +0.000 C 
ATOM     14  C   UNL     1       4.142   3.172  19.650  0.00  0.00    +0.000 C 
ENDBRANCH   1   7
BRANCH   4  15
ATOM     15  C   UNL     1       0.958   9.315  19.717  0.00  0.00    +0.000 C 
BRANCH  15  16
ATOM     16  O   UNL     1       0.087   9.920  18.762  0.00  0.00    +0.000 OA
BRANCH  16  17
ATOM     17  C   UNL     1      -0.888  10.758  19.243  0.00  0.00    +0.000 A 
ATOM     18  C   UNL     1      -0.840  11.390  20.492  0.00  0.00    +0.000 A 
ATOM     19  C   UNL     1      -1.874  12.241  20.890  0.00  0.00    +0.000 A 
ATOM     20 CL   UNL     1      -1.790  13.018  22.423  0.00  0.00    +0.000 Cl
ATOM     21  C   UNL     1      -2.970  12.468  20.060  0.00  0.00    +0.000 A 
ATOM     22  C   UNL     1      -3.034  11.833  18.818  0.00  0.00    +0.000 A 
ATOM     23  C   UNL     1      -2.001  10.984  18.416  0.00  0.00    +0.000 A 
ATOM     24 CL   UNL     1      -2.142  10.228  16.866  0.00  0.00    +0.000 Cl
ENDBRANCH  16  17
ENDBRANCH  15  16
ENDBRANCH   4  15
TORSDOF 4
ENDMDL
