MODEL 1
REMARK VINA RESULT:      -7.4      0.000      0.000
REMARK  Name = 
REMARK  8 active torsions:
REMARK  status: ('A' for Active; 'I' for Inactive)
REMARK    1  A    between atoms: C_1  and  O_2
REMARK    2  A    between atoms: O_2  and  C_3
REMARK    3  A    between atoms: C_3  and  C_5
REMARK    4  A    between atoms: C_8  and  C_10
REMARK    5  A    between atoms: C_12  and  O_13
REMARK    6  A    between atoms: O_13  and  C_14
REMARK    7  A    between atoms: C_16  and  O_17
REMARK    8  A    between atoms: O_17  and  C_18
REMARK                            x       y       z     vdW  Elec       q    Type
REMARK                         _______ _______ _______ _____ _____    ______ ____
ROOT
ATOM      1  C   UNL     1       2.120   5.205  20.135  0.00  0.00    +0.000 A 
ATOM      2  C   UNL     1       2.955   5.238  19.037  0.00  0.00    +0.000 A 
ATOM      3  N   UNL     1       3.015   6.518  18.521  0.00  0.00    +0.000 N 
ATOM      4  C   UNL     1       3.789   6.897  17.401  0.00  0.00    +0.000 C 
ATOM      5  O   UNL     1       3.404   7.851  16.730  0.00  0.00    +0.000 OA
ATOM      6  C   UNL     1       2.222   7.341  19.319  0.00  0.00    +0.000 A 
ATOM      7  C   UNL     1       1.998   8.731  19.270  0.00  0.00    +0.000 A 
ATOM      8  C   UNL     1       1.196   9.315  20.254  0.00  0.00    +0.000 A 
ATOM      9  C   UNL     1       0.626   8.544  21.260  0.00  0.00    +0.000 A 
ATOM     10  C   UNL     1       0.849   7.164  21.304  0.00  0.00    +0.000 A 
ATOM     11  C   UNL     1       1.669   6.548  20.333  0.00  0.00    +0.000 A 
ENDROOT
BRANCH   4  12
ATOM     12  C   UNL     1       5.054   6.211  17.018  0.00  0.00    +0.000 A 
ATOM     13  C   UNL     1       5.945   5.799  18.013  0.00  0.00    +0.000 A 
ATOM     14  C   UNL     1       7.090   5.075  17.668  0.00  0.00    +0.000 A 
ATOM     15  C   UNL     1       7.327   4.762  16.328  0.00  0.00    +0.000 A 
ATOM     16  C   UNL     1       6.441   5.169  15.327  0.00  0.00    +0.000 A 
ATOM     17  C   UNL     1       5.302   5.890  15.675  0.00  0.00    +0.000 A 
BRANCH  14  18
ATOM     18  O   UNL     1       7.887   4.729  18.725  0.00  0.00    +0.000 OA
ATOM     19  C   UNL     1       8.016   5.686  19.769  0.00  0.00    +0.000 C 
ENDBRANCH  14  18
BRANCH  16  20
ATOM     20  O   UNL     1       6.790   4.792  14.060  0.00  0.00    +0.000 OA
ATOM     21  C   UNL     1       6.030   3.753  13.455  0.00  0.00    +0.000 C 
ENDBRANCH  16  20
ENDBRANCH   4  12
BRANCH   1  22
ATOM     22  C   UNL     1       1.815   4.015  20.916  0.00  0.00    +0.000 C 
ATOM     23  O   UNL     1       2.345   3.742  21.980  0.00  0.00    +0.000 OA
BRANCH  22  25
ATOM     24  C   UNL     1       1.392   2.134  19.575  0.00  0.00    +0.000 C 
ATOM     25  O   UNL     1       0.867   3.236  20.308  0.00  0.00    +0.000 OA
ENDBRANCH  22  25
ENDBRANCH   1  22
TORSDOF 5
ENDMDL
MODEL 2
REMARK VINA RESULT:      -7.2      0.232      2.574
REMARK  Name = 
REMARK  8 active torsions:
REMARK  status: ('A' for Active; 'I' for Inactive)
REMARK    1  A    between atoms: C_1  and  O_2
REMARK    2  A    between atoms: O_2  and  C_3
REMARK    3  A    between atoms: C_3  and  C_5
REMARK    4  A    between atoms: C_8  and  C_10
REMARK    5  A    between atoms: C_12  and  O_13
REMARK    6  A    between atoms: O_13  and  C_14
REMARK    7  A    between atoms: C_16  and  O_17
REMARK    8  A    between atoms: O_17  and  C_18
REMARK                            x       y       z     vdW  Elec       q    Type
REMARK                         _______ _______ _______ _____ _____    ______ ____
ROOT
ATOM      1  C   UNL     1       2.022   5.166  20.254  0.00  0.00    +0.000 A 
ATOM      2  C   UNL     1       2.878   5.166  19.171  0.00  0.00    +0.000 A 
ATOM      3  N   UNL     1       2.960   6.433  18.627  0.00  0.00    +0.000 N 
ATOM      4  C   UNL     1       3.760   6.778  17.514  0.00  0.00    +0.000 C 
ATOM      5  O   UNL     1       3.397   7.720  16.814  0.00  0.00    +0.000 OA
ATOM      6  C   UNL     1       2.160   7.281  19.390  0.00  0.00    +0.000 A 
ATOM      7  C   UNL     1       1.950   8.672  19.305  0.00  0.00    +0.000 A 
ATOM      8  C   UNL     1       1.136   9.286  20.260  0.00  0.00    +0.000 A 
ATOM      9  C   UNL     1       0.539   8.544  21.272  0.00  0.00    +0.000 A 
ATOM     10  C   UNL     1       0.748   7.163  21.353  0.00  0.00    +0.000 A 
ATOM     11  C   UNL     1       1.580   6.517  20.412  0.00  0.00    +0.000 A 
ENDROOT
BRANCH   4  12
ATOM     12  C   UNL     1       5.025   6.072  17.171  0.00  0.00    +0.000 A 
ATOM     13  C   UNL     1       5.346   5.842  15.831  0.00  0.00    +0.000 A 
ATOM     14  C   UNL     1       6.573   5.261  15.498  0.00  0.00    +0.000 A 
ATOM     15  C   UNL     1       7.472   4.925  16.512  0.00  0.00    +0.000 A 
ATOM     16  C   UNL     1       7.159   5.152  17.854  0.00  0.00    +0.000 A 
ATOM     17  C   UNL     1       5.936   5.730  18.182  0.00  0.00    +0.000 A 
BRANCH  14  18
ATOM     18  O   UNL     1       6.776   5.083  14.156  0.00  0.00    +0.000 OA
ATOM     19  C   UNL     1       6.193   3.925  13.569  0.00  0.00    +0.000 C 
ENDBRANCH  14  18
BRANCH  16  20
ATOM     20  O   UNL     1       8.130   4.781  18.743  0.00  0.00    +0.000 OA
ATOM     21  C   UNL     1       8.190   5.487  19.977  0.00  0.00    +0.000 C 
ENDBRANCH  16  20
ENDBRANCH   4  12
BRANCH   1  22
ATOM     22  C   UNL     1       1.691   3.997  21.056  0.00  0.00    +0.000 C 
ATOM     23  O   UNL     1       2.300   3.662  22.058  0.00  0.00    +0.000 OA
BRANCH  22  25
ATOM     24  C   UNL     1       0.925   2.485  19.430  0.00  0.00    +0.000 C 
ATOM     25  O   UNL     1       0.618   3.316  20.545  0.00  0.00    +0.000 OA
ENDBRANCH  22  25
ENDBRANCH   1  22
TORSDOF 5
ENDMDL
MODEL 3
REMARK VINA RESULT:      -7.1      2.975      4.532
REMARK  Name = 
REMARK  8 active torsions:
REMARK  status: ('A' for Active; 'I' for Inactive)
REMARK    1  A    between atoms: C_1  and  O_2
REMARK    2  A    between atoms: O_2  and  C_3
REMARK    3  A    between atoms: C_3  and  C_5
REMARK    4  A    between atoms: C_8  and  C_10
REMARK    5  A    between atoms: C_12  and  O_13
REMARK    6  A    between atoms: O_13  and  C_14
REMARK    7  A    between atoms: C_16  and  O_17
REMARK    8  A    between atoms: O_17  and  C_18
REMARK                            x       y       z     vdW  Elec       q    Type
REMARK                         _______ _______ _______ _____ _____    ______ ____
ROOT
ATOM      1  C   UNL     1       4.493   1.852  20.087  0.00  0.00    +0.000 A 
ATOM      2  C   UNL     1       4.762   2.297  18.808  0.00  0.00    +0.000 A 
ATOM      3  N   UNL     1       3.708   3.053  18.333  0.00  0.00    +0.000 N 
ATOM      4  C   UNL     1       3.669   3.666  17.060  0.00  0.00    +0.000 C 
ATOM      5  O   UNL     1       2.570   3.853  16.545  0.00  0.00    +0.000 OA
ATOM      6  C   UNL     1       2.744   3.124  19.337  0.00  0.00    +0.000 A 
ATOM      7  C   UNL     1       1.522   3.824  19.392  0.00  0.00    +0.000 A 
ATOM      8  C   UNL     1       0.773   3.772  20.570  0.00  0.00    +0.000 A 
ATOM      9  C   UNL     1       1.218   3.044  21.667  0.00  0.00    +0.000 A 
ATOM     10  C   UNL     1       2.431   2.350  21.609  0.00  0.00    +0.000 A 
ATOM     11  C   UNL     1       3.218   2.397  20.437  0.00  0.00    +0.000 A 
ENDROOT
BRANCH   4  12
ATOM     12  C   UNL     1       4.890   4.114  16.336  0.00  0.00    +0.000 A 
ATOM     13  C   UNL     1       5.175   3.589  15.073  0.00  0.00    +0.000 A 
ATOM     14  C   UNL     1       6.269   4.070  14.348  0.00  0.00    +0.000 A 
ATOM     15  C   UNL     1       7.063   5.082  14.892  0.00  0.00    +0.000 A 
ATOM     16  C   UNL     1       6.784   5.613  16.154  0.00  0.00    +0.000 A 
ATOM     17  C   UNL     1       5.694   5.131  16.873  0.00  0.00    +0.000 A 
BRANCH  14  18
ATOM     18  O   UNL     1       6.450   3.480  13.127  0.00  0.00    +0.000 OA
ATOM     19  C   UNL     1       5.306   3.385  12.287  0.00  0.00    +0.000 C 
ENDBRANCH  14  18
BRANCH  16  20
ATOM     20  O   UNL     1       7.636   6.601  16.565  0.00  0.00    +0.000 OA
ATOM     21  C   UNL     1       7.655   6.911  17.953  0.00  0.00    +0.000 C 
ENDBRANCH  16  20
ENDBRANCH   4  12
BRANCH   1  22
ATOM     22  C   UNL     1       5.380   1.017  20.883  0.00  0.00    +0.000 C 
ATOM     23  O   UNL     1       5.840   1.347  21.964  0.00  0.00    +0.000 OA
BRANCH  22  25
ATOM     24  C   UNL     1       6.358  -1.109  21.076  0.00  0.00    +0.000 C 
ATOM     25  O   UNL     1       5.641  -0.179  20.270  0.00  0.00    +0.000 OA
ENDBRANCH  22  25
ENDBRANCH   1  22
TORSDOF 5
ENDMDL
MODEL 4
REMARK VINA RESULT:      -6.9      2.927      3.778
REMARK  Name = 
REMARK  8 active torsions:
REMARK  status: ('A' for Active; 'I' for Inactive)
REMARK    1  A    between atoms: C_1  and  O_2
REMARK    2  A    between atoms: O_2  and  C_3
REMARK    3  A    between atoms: C_3  and  C_5
REMARK    4  A    between atoms: C_8  and  C_10
REMARK    5  A    between atoms: C_12  and  O_13
REMARK    6  A    between atoms: O_13  and  C_14
REMARK    7  A    between atoms: C_16  and  O_17
REMARK    8  A    between atoms: O_17  and  C_18
REMARK                            x       y       z     vdW  Elec       q    Type
REMARK                         _______ _______ _______ _____ _____    ______ ____
ROOT
ATOM      1  C   UNL     1       4.475   1.860  20.078  0.00  0.00    +0.000 A 
ATOM      2  C   UNL     1       4.729   2.339  18.809  0.00  0.00    +0.000 A 
ATOM      3  N   UNL     1       3.661   3.093  18.360  0.00  0.00    +0.000 N 
ATOM      4  C   UNL     1       3.605   3.736  17.103  0.00  0.00    +0.000 C 
ATOM      5  O   UNL     1       2.500   3.921  16.600  0.00  0.00    +0.000 OA
ATOM      6  C   UNL     1       2.704   3.127  19.372  0.00  0.00    +0.000 A 
ATOM      7  C   UNL     1       1.473   3.808  19.452  0.00  0.00    +0.000 A 
ATOM      8  C   UNL     1       0.733   3.718  20.634  0.00  0.00    +0.000 A 
ATOM      9  C   UNL     1       1.195   2.970  21.709  0.00  0.00    +0.000 A 
ATOM     10  C   UNL     1       2.417   2.293  21.627  0.00  0.00    +0.000 A 
ATOM     11  C   UNL     1       3.195   2.379  20.451  0.00  0.00    +0.000 A 
ENDROOT
BRANCH   4  12
ATOM     12  C   UNL     1       4.815   4.218  16.381  0.00  0.00    +0.000 A 
ATOM     13  C   UNL     1       5.708   5.076  17.028  0.00  0.00    +0.000 A 
ATOM     14  C   UNL     1       6.891   5.461  16.391  0.00  0.00    +0.000 A 
ATOM     15  C   UNL     1       7.173   4.973  15.113  0.00  0.00    +0.000 A 
ATOM     16  C   UNL     1       6.286   4.114  14.460  0.00  0.00    +0.000 A 
ATOM     17  C   UNL     1       5.109   3.734  15.098  0.00  0.00    +0.000 A 
BRANCH  14  18
ATOM     18  O   UNL     1       7.686   6.303  17.120  0.00  0.00    +0.000 OA
ATOM     19  C   UNL     1       7.648   6.153  18.535  0.00  0.00    +0.000 C 
ENDBRANCH  14  18
BRANCH  16  20
ATOM     20  O   UNL     1       6.686   3.708  13.217  0.00  0.00    +0.000 OA
ATOM     21  C   UNL     1       5.676   3.270  12.316  0.00  0.00    +0.000 C 
ENDBRANCH  16  20
ENDBRANCH   4  12
BRANCH   1  22
ATOM     22  C   UNL     1       5.378   1.018  20.848  0.00  0.00    +0.000 C 
ATOM     23  O   UNL     1       5.874   1.345  21.914  0.00  0.00    +0.000 OA
BRANCH  22  25
ATOM     24  C   UNL     1       6.347  -1.115  21.011  0.00  0.00    +0.000 C 
ATOM     25  O   UNL     1       5.609  -0.182  20.229  0.00  0.00    +0.000 OA
ENDBRANCH  22  25
ENDBRANCH   1  22
TORSDOF 5
ENDMDL
MODEL 5
REMARK VINA RESULT:      -6.8      2.894      6.723
REMARK  Name = 
REMARK  8 active torsions:
REMARK  status: ('A' for Active; 'I' for Inactive)
REMARK    1  A    between atoms: C_1  and  O_2
REMARK    2  A    between atoms: O_2  and  C_3
REMARK    3  A    between atoms: C_3  and  C_5
REMARK    4  A    between atoms: C_8  and  C_10
REMARK    5  A    between atoms: C_12  and  O_13
REMARK    6  A    between atoms: O_13  and  C_14
REMARK    7  A    between atoms: C_16  and  O_17
REMARK    8  A    between atoms: O_17  and  C_18
REMARK                            x       y       z     vdW  Elec       q    Type
REMARK                         _______ _______ _______ _____ _____    ______ ____
ROOT
ATOM      1  C   UNL     1       2.292   5.736  19.676  0.00  0.00    +0.000 A 
ATOM      2  C   UNL     1       1.787   7.018  19.602  0.00  0.00    +0.000 A 
ATOM      3  N   UNL     1       2.401   7.716  18.579  0.00  0.00    +0.000 N 
ATOM      4  C   UNL     1       2.106   9.053  18.230  0.00  0.00    +0.000 C 
ATOM      5  O   UNL     1       2.995   9.721  17.708  0.00  0.00    +0.000 OA
ATOM      6  C   UNL     1       3.306   6.858  17.957  0.00  0.00    +0.000 A 
ATOM      7  C   UNL     1       4.127   7.048  16.828  0.00  0.00    +0.000 A 
ATOM      8  C   UNL     1       4.898   5.975  16.373  0.00  0.00    +0.000 A 
ATOM      9  C   UNL     1       4.863   4.746  17.019  0.00  0.00    +0.000 A 
ATOM     10  C   UNL     1       4.048   4.561  18.141  0.00  0.00    +0.000 A 
ATOM     11  C   UNL     1       3.244   5.621  18.614  0.00  0.00    +0.000 A 
ENDROOT
BRANCH   4  12
ATOM     12  C   UNL     1       0.768   9.672  18.440  0.00  0.00    +0.000 A 
ATOM     13  C   UNL     1       0.587  10.586  19.481  0.00  0.00    +0.000 A 
ATOM     14  C   UNL     1      -0.640  11.239  19.630  0.00  0.00    +0.000 A 
ATOM     15  C   UNL     1      -1.671  10.978  18.726  0.00  0.00    +0.000 A 
ATOM     16  C   UNL     1      -1.498  10.066  17.682  0.00  0.00    +0.000 A 
ATOM     17  C   UNL     1      -0.275   9.417  17.538  0.00  0.00    +0.000 A 
BRANCH  14  18
ATOM     18  O   UNL     1      -0.700  12.109  20.685  0.00  0.00    +0.000 OA
ATOM     19  C   UNL     1      -1.290  11.619  21.884  0.00  0.00    +0.000 C 
ENDBRANCH  14  18
BRANCH  16  20
ATOM     20  O   UNL     1      -2.585   9.908  16.868  0.00  0.00    +0.000 OA
ATOM     21  C   UNL     1      -2.777  10.870  15.838  0.00  0.00    +0.000 C 
ENDBRANCH  16  20
ENDBRANCH   4  12
BRANCH   1  22
ATOM     22  C   UNL     1       1.882   4.733  20.647  0.00  0.00    +0.000 C 
ATOM     23  O   UNL     1       2.513   4.461  21.656  0.00  0.00    +0.000 OA
BRANCH  22  25
ATOM     24  C   UNL     1       0.872   2.907  19.570  0.00  0.00    +0.000 C 
ATOM     25  O   UNL     1       0.708   4.125  20.288  0.00  0.00    +0.000 OA
ENDBRANCH  22  25
ENDBRANCH   1  22
TORSDOF 5
ENDMDL
MODEL 6
REMARK VINA RESULT:      -6.8      2.592      4.959
REMARK  Name = 
REMARK  8 active torsions:
REMARK  status: ('A' for Active; 'I' for Inactive)
REMARK    1  A    between atoms: C_1  and  O_2
REMARK    2  A    between atoms: O_2  and  C_3
REMARK    3  A    between atoms: C_3  and  C_5
REMARK    4  A    between atoms: C_8  and  C_10
REMARK    5  A    between atoms: C_12  and  O_13
REMARK    6  A    between atoms: O_13  and  C_14
REMARK    7  A    between atoms: C_16  and  O_17
REMARK    8  A    between atoms: O_17  and  C_18
REMARK                            x       y       z     vdW  Elec       q    Type
REMARK                         _______ _______ _______ _____ _____    ______ ____
ROOT
ATOM      1  C   UNL     1       0.945   9.360  21.455  0.00  0.00    +0.000 A 
ATOM      2  C   UNL     1       1.301   8.179  20.836  0.00  0.00    +0.000 A 
ATOM      3  N   UNL     1       1.704   8.423  19.537  0.00  0.00    +0.000 N 
ATOM      4  C   UNL     1       2.144   7.430  18.633  0.00  0.00    +0.000 C 
ATOM      5  O   UNL     1       1.984   7.633  17.432  0.00  0.00    +0.000 OA
ATOM      6  C   UNL     1       1.633   9.797  19.317  0.00  0.00    +0.000 A 
ATOM      7  C   UNL     1       1.995  10.569  18.195  0.00  0.00    +0.000 A 
ATOM      8  C   UNL     1       1.881  11.959  18.273  0.00  0.00    +0.000 A 
ATOM      9  C   UNL     1       1.416  12.572  19.430  0.00  0.00    +0.000 A 
ATOM     10  C   UNL     1       1.056  11.804  20.542  0.00  0.00    +0.000 A 
ATOM     11  C   UNL     1       1.176  10.397  20.498  0.00  0.00    +0.000 A 
ENDROOT
BRANCH   4  12
ATOM     12  C   UNL     1       2.810   6.171  19.069  0.00  0.00    +0.000 A 
ATOM     13  C   UNL     1       2.033   5.066  19.425  0.00  0.00    +0.000 A 
ATOM     14  C   UNL     1       2.650   3.855  19.748  0.00  0.00    +0.000 A 
ATOM     15  C   UNL     1       4.042   3.758  19.700  0.00  0.00    +0.000 A 
ATOM     16  C   UNL     1       4.826   4.858  19.344  0.00  0.00    +0.000 A 
ATOM     17  C   UNL     1       4.208   6.064  19.024  0.00  0.00    +0.000 A 
BRANCH  14  18
ATOM     18  O   UNL     1       1.788   2.845  20.082  0.00  0.00    +0.000 OA
ATOM     19  C   UNL     1       1.434   2.735  21.456  0.00  0.00    +0.000 C 
ENDBRANCH  14  18
BRANCH  16  20
ATOM     20  O   UNL     1       6.174   4.626  19.334  0.00  0.00    +0.000 OA
ATOM     21  C   UNL     1       7.011   5.657  18.822  0.00  0.00    +0.000 C 
ENDBRANCH  16  20
ENDBRANCH   4  12
BRANCH   1  22
ATOM     22  C   UNL     1       0.458   9.471  22.822  0.00  0.00    +0.000 C 
ATOM     23  O   UNL     1       1.177   9.436  23.808  0.00  0.00    +0.000 OA
BRANCH  22  25
ATOM     24  C   UNL     1      -1.349  10.932  23.162  0.00  0.00    +0.000 C 
ATOM     25  O   UNL     1      -0.904   9.612  22.869  0.00  0.00    +0.000 OA
ENDBRANCH  22  25
ENDBRANCH   1  22
TORSDOF 5
ENDMDL
MODEL 7
REMARK VINA RESULT:      -6.8      2.911      7.140
REMARK  Name = 
REMARK  8 active torsions:
REMARK  status: ('A' for Active; 'I' for Inactive)
REMARK    1  A    between atoms: C_1  and  O_2
REMARK    2  A    between atoms: O_2  and  C_3
REMARK    3  A    between atoms: C_3  and  C_5
REMARK    4  A    between atoms: C_8  and  C_10
REMARK    5  A    between atoms: C_12  and  O_13
REMARK    6  A    between atoms: O_13  and  C_14
REMARK    7  A    between atoms: C_16  and  O_17
REMARK    8  A    between atoms: O_17  and  C_18
REMARK                            x       y       z     vdW  Elec       q    Type
REMARK                         _______ _______ _______ _____ _____    ______ ____
ROOT
ATOM      1  C   UNL     1       2.286   5.701  19.661  0.00  0.00    +0.000 A 
ATOM      2  C   UNL     1       1.796   6.989  19.580  0.00  0.00    +0.000 A 
ATOM      3  N   UNL     1       2.425   7.675  18.559  0.00  0.00    +0.000 N 
ATOM      4  C   UNL     1       2.148   9.015  18.203  0.00  0.00    +0.000 C 
ATOM      5  O   UNL     1       3.048   9.671  17.685  0.00  0.00    +0.000 OA
ATOM      6  C   UNL     1       3.323   6.805  17.946  0.00  0.00    +0.000 A 
ATOM      7  C   UNL     1       4.154   6.982  16.821  0.00  0.00    +0.000 A 
ATOM      8  C   UNL     1       4.916   5.899  16.374  0.00  0.00    +0.000 A 
ATOM      9  C   UNL     1       4.861   4.672  17.024  0.00  0.00    +0.000 A 
ATOM     10  C   UNL     1       4.037   4.500  18.141  0.00  0.00    +0.000 A 
ATOM     11  C   UNL     1       3.243   5.571  18.606  0.00  0.00    +0.000 A 
ENDROOT
BRANCH   4  12
ATOM     12  C   UNL     1       0.816   9.650  18.403  0.00  0.00    +0.000 A 
ATOM     13  C   UNL     1      -0.186   9.468  17.446  0.00  0.00    +0.000 A 
ATOM     14  C   UNL     1      -1.465   9.985  17.669  0.00  0.00    +0.000 A 
ATOM     15  C   UNL     1      -1.731  10.673  18.855  0.00  0.00    +0.000 A 
ATOM     16  C   UNL     1      -0.735  10.859  19.817  0.00  0.00    +0.000 A 
ATOM     17  C   UNL     1       0.538  10.343  19.591  0.00  0.00    +0.000 A 
BRANCH  14  18
ATOM     18  O   UNL     1      -2.362   9.746  16.664  0.00  0.00    +0.000 OA
ATOM     19  C   UNL     1      -2.717  10.855  15.846  0.00  0.00    +0.000 C 
ENDBRANCH  14  18
BRANCH  16  20
ATOM     20  O   UNL     1      -1.131  11.545  20.932  0.00  0.00    +0.000 OA
ATOM     21  C   UNL     1      -2.195  12.477  20.782  0.00  0.00    +0.000 C 
ENDBRANCH  16  20
ENDBRANCH   4  12
BRANCH   1  22
ATOM     22  C   UNL     1       1.858   4.705  20.633  0.00  0.00    +0.000 C 
ATOM     23  O   UNL     1       2.468   4.444  21.657  0.00  0.00    +0.000 OA
BRANCH  22  25
ATOM     24  C   UNL     1       0.873   2.873  19.543  0.00  0.00    +0.000 C 
ATOM     25  O   UNL     1       0.692   4.092  20.255  0.00  0.00    +0.000 OA
ENDBRANCH  22  25
ENDBRANCH   1  22
TORSDOF 5
ENDMDL
MODEL 8
REMARK VINA RESULT:      -6.8      2.557      6.396
REMARK  Name = 
REMARK  8 active torsions:
REMARK  status: ('A' for Active; 'I' for Inactive)
REMARK    1  A    between atoms: C_1  and  O_2
REMARK    2  A    between atoms: O_2  and  C_3
REMARK    3  A    between atoms: C_3  and  C_5
REMARK    4  A    between atoms: C_8  and  C_10
REMARK    5  A    between atoms: C_12  and  O_13
REMARK    6  A    between atoms: O_13  and  C_14
REMARK    7  A    between atoms: C_16  and  O_17
REMARK    8  A    between atoms: O_17  and  C_18
REMARK                            x       y       z     vdW  Elec       q    Type
REMARK                         _______ _______ _______ _____ _____    ______ ____
ROOT
ATOM      1  C   UNL     1       2.368   5.065  19.838  0.00  0.00    +0.000 A 
ATOM      2  C   UNL     1       1.954   6.382  19.852  0.00  0.00    +0.000 A 
ATOM      3  N   UNL     1       2.570   7.087  18.836  0.00  0.00    +0.000 N 
ATOM      4  C   UNL     1       2.357   8.458  18.566  0.00  0.00    +0.000 C 
ATOM      5  O   UNL     1       3.267   9.089  18.035  0.00  0.00    +0.000 OA
ATOM      6  C   UNL     1       3.381   6.201  18.129  0.00  0.00    +0.000 A 
ATOM      7  C   UNL     1       4.162   6.392  16.972  0.00  0.00    +0.000 A 
ATOM      8  C   UNL     1       4.833   5.294  16.428  0.00  0.00    +0.000 A 
ATOM      9  C   UNL     1       4.738   4.038  17.014  0.00  0.00    +0.000 A 
ATOM     10  C   UNL     1       3.963   3.852  18.164  0.00  0.00    +0.000 A 
ATOM     11  C   UNL     1       3.260   4.940  18.728  0.00  0.00    +0.000 A 
ENDROOT
BRANCH   4  12
ATOM     12  C   UNL     1       1.078   9.157  18.871  0.00  0.00    +0.000 A 
ATOM     13  C   UNL     1       0.737   9.423  20.200  0.00  0.00    +0.000 A 
ATOM     14  C   UNL     1      -0.416  10.157  20.490  0.00  0.00    +0.000 A 
ATOM     15  C   UNL     1      -1.212  10.629  19.444  0.00  0.00    +0.000 A 
ATOM     16  C   UNL     1      -0.878  10.368  18.113  0.00  0.00    +0.000 A 
ATOM     17  C   UNL     1       0.271   9.635  17.828  0.00  0.00    +0.000 A 
BRANCH  14  18
ATOM     18  O   UNL     1      -0.649  10.353  21.825  0.00  0.00    +0.000 OA
ATOM     19  C   UNL     1       0.178   9.631  22.730  0.00  0.00    +0.000 C 
ENDBRANCH  14  18
BRANCH  16  20
ATOM     20  O   UNL     1      -1.740  10.891  17.189  0.00  0.00    +0.000 OA
ATOM     21  C   UNL     1      -2.491   9.973  16.403  0.00  0.00    +0.000 C 
ENDBRANCH  16  20
ENDBRANCH   4  12
BRANCH   1  22
ATOM     22  C   UNL     1       1.931   4.044  20.778  0.00  0.00    +0.000 C 
ATOM     23  O   UNL     1       2.582   3.683  21.746  0.00  0.00    +0.000 OA
BRANCH  22  25
ATOM     24  C   UNL     1       0.742   2.557  19.404  0.00  0.00    +0.000 C 
ATOM     25  O   UNL     1       0.707   3.531  20.442  0.00  0.00    +0.000 OA
ENDBRANCH  22  25
ENDBRANCH   1  22
TORSDOF 5
ENDMDL
MODEL 9
REMARK VINA RESULT:      -6.8      2.533      6.475
REMARK  Name = 
REMARK  8 active torsions:
REMARK  status: ('A' for Active; 'I' for Inactive)
REMARK    1  A    between atoms: C_1  and  O_2
REMARK    2  A    between atoms: O_2  and  C_3
REMARK    3  A    between atoms: C_3  and  C_5
REMARK    4  A    between atoms: C_8  and  C_10
REMARK    5  A    between atoms: C_12  and  O_13
REMARK    6  A    between atoms: O_13  and  C_14
REMARK    7  A    between atoms: C_16  and  O_17
REMARK    8  A    between atoms: O_17  and  C_18
REMARK                            x       y       z     vdW  Elec       q    Type
REMARK                         _______ _______ _______ _____ _____    ______ ____
ROOT
ATOM      1  C   UNL     1       2.639   4.805  18.854  0.00  0.00    +0.000 A 
ATOM      2  C   UNL     1       2.199   6.091  19.096  0.00  0.00    +0.000 A 
ATOM      3  N   UNL     1       2.852   6.983  18.267  0.00  0.00    +0.000 N 
ATOM      4  C   UNL     1       2.626   8.378  18.253  0.00  0.00    +0.000 C 
ATOM      5  O   UNL     1       3.550   9.108  17.901  0.00  0.00    +0.000 OA
ATOM      6  C   UNL     1       3.716   6.257  17.450  0.00  0.00    +0.000 A 
ATOM      7  C   UNL     1       4.551   6.673  16.394  0.00  0.00    +0.000 A 
ATOM      8  C   UNL     1       5.269   5.705  15.687  0.00  0.00    +0.000 A 
ATOM      9  C   UNL     1       5.169   4.359  16.018  0.00  0.00    +0.000 A 
ATOM     10  C   UNL     1       4.340   3.949  17.068  0.00  0.00    +0.000 A 
ATOM     11  C   UNL     1       3.589   4.903  17.790  0.00  0.00    +0.000 A 
ENDROOT
BRANCH   4  12
ATOM     12  C   UNL     1       1.320   8.994  18.616  0.00  0.00    +0.000 A 
ATOM     13  C   UNL     1       1.066   9.338  19.947  0.00  0.00    +0.000 A 
ATOM     14  C   UNL     1      -0.120   9.998  20.282  0.00  0.00    +0.000 A 
ATOM     15  C   UNL     1      -1.036  10.317  19.278  0.00  0.00    +0.000 A 
ATOM     16  C   UNL     1      -0.789   9.978  17.945  0.00  0.00    +0.000 A 
ATOM     17  C   UNL     1       0.392   9.319  17.616  0.00  0.00    +0.000 A 
BRANCH  14  18
ATOM     18  O   UNL     1      -0.259  10.282  21.613  0.00  0.00    +0.000 OA
ATOM     19  C   UNL     1      -0.421   9.172  22.490  0.00  0.00    +0.000 C 
ENDBRANCH  14  18
BRANCH  16  20
ATOM     20  O   UNL     1      -1.765  10.352  17.064  0.00  0.00    +0.000 OA
ATOM     21  C   UNL     1      -3.061   9.792  17.247  0.00  0.00    +0.000 C 
ENDBRANCH  16  20
ENDBRANCH   4  12
BRANCH   1  22
ATOM     22  C   UNL     1       2.175   3.619  19.558  0.00  0.00    +0.000 C 
ATOM     23  O   UNL     1       1.698   2.640  19.006  0.00  0.00    +0.000 OA
BRANCH  22  25
ATOM     24  C   UNL     1       1.688   2.715  21.670  0.00  0.00    +0.000 C 
ATOM     25  O   UNL     1       2.331   3.736  20.914  0.00  0.00    +0.000 OA
ENDBRANCH  22  25
ENDBRANCH   1  22
TORSDOF 5
ENDMDL
