MODEL 1
REMARK VINA RESULT:      -8.3      0.000      0.000
REMARK  Name = 
REMARK  9 active torsions:
REMARK  status: ('A' for Active; 'I' for Inactive)
REMARK    1  A    between atoms: C_1  and  C_2
REMARK    2  A    between atoms: C_2  and  C_3
REMARK    3  A    between atoms: C_9  and  S_10
REMARK    4  A    between atoms: S_10  and  N_13
REMARK    5  A    between atoms: N_13  and  C_14
REMARK    6  A    between atoms: C_14  and  C_15
REMARK    7  A    between atoms: C_19  and  O_20
REMARK    8  A    between atoms: O_20  and  C_21
REMARK    9  A    between atoms: C_26  and  C_27
REMARK                            x       y       z     vdW  Elec       q    Type
REMARK                         _______ _______ _______ _____ _____    ______ ____
ROOT
ATOM      1  C   UNL     1       1.159   9.329  21.166  0.00  0.00    +0.000 C 
ATOM      2  O   UNL     1       1.188   8.778  22.267  0.00  0.00    +0.000 OA
ATOM      3  N   UNL     1       1.467   8.692  19.968  0.00  0.00    +0.000 N 
ATOM      4  C   UNL     1       1.761   7.309  19.858  0.00  0.00    +0.000 A 
ATOM      5  C   UNL     1       1.666   6.301  20.811  0.00  0.00    +0.000 A 
ATOM      6  C   UNL     1       1.947   4.975  20.438  0.00  0.00    +0.000 A 
ATOM      7  C   UNL     1       2.331   4.680  19.119  0.00  0.00    +0.000 A 
ATOM      8  C   UNL     1       2.446   5.698  18.169  0.00  0.00    +0.000 A 
ATOM      9  C   UNL     1       2.162   6.999  18.560  0.00  0.00    +0.000 A 
ATOM     10  C   UNL     1       2.215   8.209  17.692  0.00  0.00    +0.000 C 
ATOM     11  C   UNL     1       1.711   9.327  18.635  0.00  0.00    +0.000 C 
ATOM     12  C   UNL     1       0.497  10.004  17.998  0.00  0.00    +0.000 C 
ENDROOT
BRANCH   7  13
ATOM     13  S   UNL     1       2.515   2.993  18.582  0.00  0.00    +0.000 S 
ATOM     14  O   UNL     1       2.256   2.133  19.715  0.00  0.00    +0.000 OA
ATOM     15  O   UNL     1       1.780   2.860  17.344  0.00  0.00    +0.000 OA
BRANCH  13  16
ATOM     16  N   UNL     1       4.161   2.901  18.192  0.00  0.00    +0.000 NA
ATOM     17  H   UNL     1       4.340   3.152  17.219  0.00  0.00    +0.000 HD
BRANCH  16  18
ATOM     18  C   UNL     1       5.061   3.592  19.127  0.00  0.00    +0.000 C 
BRANCH  18  19
ATOM     19  C   UNL     1       5.975   4.575  18.434  0.00  0.00    +0.000 A 
ATOM     20  C   UNL     1       6.650   5.567  19.160  0.00  0.00    +0.000 A 
ATOM     21  C   UNL     1       7.413   6.529  18.497  0.00  0.00    +0.000 A 
ATOM     22  C   UNL     1       7.501   6.509  17.104  0.00  0.00    +0.000 A 
ATOM     23  C   UNL     1       6.840   5.526  16.366  0.00  0.00    +0.000 A 
ATOM     24  C   UNL     1       6.090   4.556  17.035  0.00  0.00    +0.000 A 
BRANCH  23  25
ATOM     25  O   UNL     1       6.980   5.626  15.008  0.00  0.00    +0.000 OA
ATOM     26  C   UNL     1       6.542   4.514  14.238  0.00  0.00    +0.000 C 
ENDBRANCH  23  25
ENDBRANCH  18  19
ENDBRANCH  16  18
ENDBRANCH  13  16
ENDBRANCH   7  13
BRANCH   1  28
ATOM     27  C   UNL     1      -0.688  11.048  21.521  0.00  0.00    +0.000 C 
ATOM     28  C   UNL     1       0.737  10.788  21.059  0.00  0.00    +0.000 C 
ENDBRANCH   1  28
TORSDOF 6
ENDMDL
MODEL 2
REMARK VINA RESULT:      -7.8      1.245      1.729
REMARK  Name = 
REMARK  9 active torsions:
REMARK  status: ('A' for Active; 'I' for Inactive)
REMARK    1  A    between atoms: C_1  and  C_2
REMARK    2  A    between atoms: C_2  and  C_3
REMARK    3  A    between atoms: C_9  and  S_10
REMARK    4  A    between atoms: S_10  and  N_13
REMARK    5  A    between atoms: N_13  and  C_14
REMARK    6  A    between atoms: C_14  and  C_15
REMARK    7  A    between atoms: C_19  and  O_20
REMARK    8  A    between atoms: O_20  and  C_21
REMARK    9  A    between atoms: C_26  and  C_27
REMARK                            x       y       z     vdW  Elec       q    Type
REMARK                         _______ _______ _______ _____ _____    ______ ____
ROOT
ATOM      1  C   UNL     1       1.056   9.702  21.422  0.00  0.00    +0.000 C 
ATOM      2  O   UNL     1       1.217   9.104  22.487  0.00  0.00    +0.000 OA
ATOM      3  N   UNL     1       1.316   9.149  20.172  0.00  0.00    +0.000 N 
ATOM      4  C   UNL     1       1.710   7.802  19.966  0.00  0.00    +0.000 A 
ATOM      5  C   UNL     1       1.772   6.746  20.869  0.00  0.00    +0.000 A 
ATOM      6  C   UNL     1       2.126   5.467  20.405  0.00  0.00    +0.000 A 
ATOM      7  C   UNL     1       2.426   5.268  19.047  0.00  0.00    +0.000 A 
ATOM      8  C   UNL     1       2.382   6.335  18.147  0.00  0.00    +0.000 A 
ATOM      9  C   UNL     1       2.029   7.588  18.627  0.00  0.00    +0.000 A 
ATOM     10  C   UNL     1       1.916   8.838  17.823  0.00  0.00    +0.000 C 
ATOM     11  C   UNL     1       1.402   9.864  18.860  0.00  0.00    +0.000 C 
ATOM     12  C   UNL     1       0.090  10.467  18.354  0.00  0.00    +0.000 C 
ENDROOT
BRANCH   7  13
ATOM     13  S   UNL     1       2.699   3.629  18.408  0.00  0.00    +0.000 S 
ATOM     14  O   UNL     1       2.237   2.681  19.398  0.00  0.00    +0.000 OA
ATOM     15  O   UNL     1       2.200   3.614  17.052  0.00  0.00    +0.000 OA
BRANCH  13  16
ATOM     16  N   UNL     1       4.389   3.540  18.314  0.00  0.00    +0.000 NA
ATOM     17  H   UNL     1       4.725   2.578  18.350  0.00  0.00    +0.000 HD
BRANCH  16  18
ATOM     18  C   UNL     1       4.990   4.307  17.214  0.00  0.00    +0.000 C 
BRANCH  18  19
ATOM     19  C   UNL     1       6.133   5.182  17.672  0.00  0.00    +0.000 A 
ATOM     20  C   UNL     1       6.973   4.782  18.722  0.00  0.00    +0.000 A 
ATOM     21  C   UNL     1       7.962   5.643  19.200  0.00  0.00    +0.000 A 
ATOM     22  C   UNL     1       8.114   6.910  18.635  0.00  0.00    +0.000 A 
ATOM     23  C   UNL     1       7.292   7.323  17.586  0.00  0.00    +0.000 A 
ATOM     24  C   UNL     1       6.313   6.452  17.101  0.00  0.00    +0.000 A 
BRANCH  23  25
ATOM     25  O   UNL     1       7.520   8.594  17.135  0.00  0.00    +0.000 OA
ATOM     26  C   UNL     1       8.310   9.435  17.966  0.00  0.00    +0.000 C 
ENDBRANCH  23  25
ENDBRANCH  18  19
ENDBRANCH  16  18
ENDBRANCH  13  16
ENDBRANCH   7  13
BRANCH   1  28
ATOM     27  C   UNL     1      -0.886  11.243  22.011  0.00  0.00    +0.000 C 
ATOM     28  C   UNL     1       0.513  11.124  21.426  0.00  0.00    +0.000 C 
ENDBRANCH   1  28
TORSDOF 6
ENDMDL
MODEL 3
REMARK VINA RESULT:      -7.6      1.049      1.715
REMARK  Name = 
REMARK  9 active torsions:
REMARK  status: ('A' for Active; 'I' for Inactive)
REMARK    1  A    between atoms: C_1  and  C_2
REMARK    2  A    between atoms: C_2  and  C_3
REMARK    3  A    between atoms: C_9  and  S_10
REMARK    4  A    between atoms: S_10  and  N_13
REMARK    5  A    between atoms: N_13  and  C_14
REMARK    6  A    between atoms: C_14  and  C_15
REMARK    7  A    between atoms: C_19  and  O_20
REMARK    8  A    between atoms: O_20  and  C_21
REMARK    9  A    between atoms: C_26  and  C_27
REMARK                            x       y       z     vdW  Elec       q    Type
REMARK                         _______ _______ _______ _____ _____    ______ ____
ROOT
ATOM      1  C   UNL     1       1.204   9.331  21.221  0.00  0.00    +0.000 C 
ATOM      2  O   UNL     1       1.178   8.806  22.335  0.00  0.00    +0.000 OA
ATOM      3  N   UNL     1       1.526   8.655  20.048  0.00  0.00    +0.000 N 
ATOM      4  C   UNL     1       1.773   7.260  19.979  0.00  0.00    +0.000 A 
ATOM      5  C   UNL     1       1.611   6.279  20.951  0.00  0.00    +0.000 A 
ATOM      6  C   UNL     1       1.855   4.935  20.618  0.00  0.00    +0.000 A 
ATOM      7  C   UNL     1       2.270   4.595  19.320  0.00  0.00    +0.000 A 
ATOM      8  C   UNL     1       2.452   5.585  18.351  0.00  0.00    +0.000 A 
ATOM      9  C   UNL     1       2.204   6.905  18.703  0.00  0.00    +0.000 A 
ATOM     10  C   UNL     1       2.328   8.091  17.809  0.00  0.00    +0.000 C 
ATOM     11  C   UNL     1       1.836   9.248  18.710  0.00  0.00    +0.000 C 
ATOM     12  C   UNL     1       0.668   9.953  18.018  0.00  0.00    +0.000 C 
ENDROOT
BRANCH   7  13
ATOM     13  S   UNL     1       2.410   2.890  18.828  0.00  0.00    +0.000 S 
ATOM     14  O   UNL     1       1.868   2.073  19.891  0.00  0.00    +0.000 OA
ATOM     15  O   UNL     1       1.915   2.799  17.472  0.00  0.00    +0.000 OA
BRANCH  13  16
ATOM     16  N   UNL     1       4.086   2.655  18.759  0.00  0.00    +0.000 NA
ATOM     17  H   UNL     1       4.379   1.826  19.276  0.00  0.00    +0.000 HD
BRANCH  16  18
ATOM     18  C   UNL     1       4.666   2.712  17.409  0.00  0.00    +0.000 C 
BRANCH  18  19
ATOM     19  C   UNL     1       5.209   4.079  17.066  0.00  0.00    +0.000 A 
ATOM     20  C   UNL     1       4.874   4.706  15.857  0.00  0.00    +0.000 A 
ATOM     21  C   UNL     1       5.460   5.924  15.509  0.00  0.00    +0.000 A 
ATOM     22  C   UNL     1       6.386   6.520  16.365  0.00  0.00    +0.000 A 
ATOM     23  C   UNL     1       6.727   5.914  17.576  0.00  0.00    +0.000 A 
ATOM     24  C   UNL     1       6.127   4.702  17.926  0.00  0.00    +0.000 A 
BRANCH  23  25
ATOM     25  O   UNL     1       7.665   6.581  18.316  0.00  0.00    +0.000 OA
ATOM     26  C   UNL     1       7.937   7.925  17.940  0.00  0.00    +0.000 C 
ENDBRANCH  23  25
ENDBRANCH  18  19
ENDBRANCH  16  18
ENDBRANCH  13  16
ENDBRANCH   7  13
BRANCH   1  28
ATOM     27  C   UNL     1      -0.616  11.107  21.388  0.00  0.00    +0.000 C 
ATOM     28  C   UNL     1       0.839  10.801  21.067  0.00  0.00    +0.000 C 
ENDBRANCH   1  28
TORSDOF 6
ENDMDL
MODEL 4
REMARK VINA RESULT:      -7.6      3.474      8.773
REMARK  Name = 
REMARK  9 active torsions:
REMARK  status: ('A' for Active; 'I' for Inactive)
REMARK    1  A    between atoms: C_1  and  C_2
REMARK    2  A    between atoms: C_2  and  C_3
REMARK    3  A    between atoms: C_9  and  S_10
REMARK    4  A    between atoms: S_10  and  N_13
REMARK    5  A    between atoms: N_13  and  C_14
REMARK    6  A    between atoms: C_14  and  C_15
REMARK    7  A    between atoms: C_19  and  O_20
REMARK    8  A    between atoms: O_20  and  C_21
REMARK    9  A    between atoms: C_26  and  C_27
REMARK                            x       y       z     vdW  Elec       q    Type
REMARK                         _______ _______ _______ _____ _____    ______ ____
ROOT
ATOM      1  C   UNL     1       4.882   5.679  16.368  0.00  0.00    +0.000 C 
ATOM      2  O   UNL     1       5.033   6.731  15.745  0.00  0.00    +0.000 OA
ATOM      3  N   UNL     1       4.156   5.571  17.550  0.00  0.00    +0.000 N 
ATOM      4  C   UNL     1       3.425   6.638  18.132  0.00  0.00    +0.000 A 
ATOM      5  C   UNL     1       3.144   7.902  17.628  0.00  0.00    +0.000 A 
ATOM      6  C   UNL     1       2.325   8.771  18.371  0.00  0.00    +0.000 A 
ATOM      7  C   UNL     1       1.813   8.365  19.614  0.00  0.00    +0.000 A 
ATOM      8  C   UNL     1       2.114   7.102  20.128  0.00  0.00    +0.000 A 
ATOM      9  C   UNL     1       2.923   6.261  19.376  0.00  0.00    +0.000 A 
ATOM     10  C   UNL     1       3.342   4.880  19.749  0.00  0.00    +0.000 C 
ATOM     11  C   UNL     1       4.134   4.417  18.503  0.00  0.00    +0.000 C 
ATOM     12  C   UNL     1       3.503   3.132  17.964  0.00  0.00    +0.000 C 
ENDROOT
BRANCH   7  13
ATOM     13  S   UNL     1       0.633   9.376  20.483  0.00  0.00    +0.000 S 
ATOM     14  O   UNL     1      -0.434   8.518  20.948  0.00  0.00    +0.000 OA
ATOM     15  O   UNL     1       1.383  10.215  21.391  0.00  0.00    +0.000 OA
BRANCH  13  16
ATOM     16  N   UNL     1       0.030  10.384  19.262  0.00  0.00    +0.000 NA
ATOM     17  H   UNL     1       0.091   9.949  18.341  0.00  0.00    +0.000 HD
BRANCH  16  18
ATOM     18  C   UNL     1      -1.297  10.957  19.529  0.00  0.00    +0.000 C 
BRANCH  18  19
ATOM     19  C   UNL     1      -2.234  10.826  18.351  0.00  0.00    +0.000 A 
ATOM     20  C   UNL     1      -1.873  10.078  17.221  0.00  0.00    +0.000 A 
ATOM     21  C   UNL     1      -2.706  10.046  16.102  0.00  0.00    +0.000 A 
ATOM     22  C   UNL     1      -3.902  10.766  16.103  0.00  0.00    +0.000 A 
ATOM     23  C   UNL     1      -4.280  11.511  17.221  0.00  0.00    +0.000 A 
ATOM     24  C   UNL     1      -3.451  11.528  18.345  0.00  0.00    +0.000 A 
BRANCH  23  25
ATOM     25  O   UNL     1      -5.459  12.193  17.093  0.00  0.00    +0.000 OA
ATOM     26  C   UNL     1      -6.590  11.643  17.757  0.00  0.00    +0.000 C 
ENDBRANCH  23  25
ENDBRANCH  18  19
ENDBRANCH  16  18
ENDBRANCH  13  16
ENDBRANCH   7  13
BRANCH   1  28
ATOM     27  C   UNL     1       6.868   4.563  15.225  0.00  0.00    +0.000 C 
ATOM     28  C   UNL     1       5.484   4.388  15.832  0.00  0.00    +0.000 C 
ENDBRANCH   1  28
TORSDOF 6
ENDMDL
MODEL 5
REMARK VINA RESULT:      -7.6      2.459      4.663
REMARK  Name = 
REMARK  9 active torsions:
REMARK  status: ('A' for Active; 'I' for Inactive)
REMARK    1  A    between atoms: C_1  and  C_2
REMARK    2  A    between atoms: C_2  and  C_3
REMARK    3  A    between atoms: C_9  and  S_10
REMARK    4  A    between atoms: S_10  and  N_13
REMARK    5  A    between atoms: N_13  and  C_14
REMARK    6  A    between atoms: C_14  and  C_15
REMARK    7  A    between atoms: C_19  and  O_20
REMARK    8  A    between atoms: O_20  and  C_21
REMARK    9  A    between atoms: C_26  and  C_27
REMARK                            x       y       z     vdW  Elec       q    Type
REMARK                         _______ _______ _______ _____ _____    ______ ____
ROOT
ATOM      1  C   UNL     1       0.085  10.071  19.337  0.00  0.00    +0.000 C 
ATOM      2  O   UNL     1       0.087  10.506  18.184  0.00  0.00    +0.000 OA
ATOM      3  N   UNL     1       0.888   9.022  19.775  0.00  0.00    +0.000 N 
ATOM      4  C   UNL     1       1.873   8.390  18.974  0.00  0.00    +0.000 A 
ATOM      5  C   UNL     1       2.351   8.734  17.714  0.00  0.00    +0.000 A 
ATOM      6  C   UNL     1       3.397   7.984  17.149  0.00  0.00    +0.000 A 
ATOM      7  C   UNL     1       3.939   6.892  17.847  0.00  0.00    +0.000 A 
ATOM      8  C   UNL     1       3.443   6.536  19.103  0.00  0.00    +0.000 A 
ATOM      9  C   UNL     1       2.411   7.292  19.642  0.00  0.00    +0.000 A 
ATOM     10  C   UNL     1       1.763   7.076  20.966  0.00  0.00    +0.000 C 
ATOM     11  C   UNL     1       0.774   8.262  21.059  0.00  0.00    +0.000 C 
ATOM     12  C   UNL     1       1.077   9.063  22.326  0.00  0.00    +0.000 C 
ENDROOT
BRANCH   7  13
ATOM     13  S   UNL     1       5.378   6.045  17.231  0.00  0.00    +0.000 S 
ATOM     14  O   UNL     1       6.087   6.949  16.352  0.00  0.00    +0.000 OA
ATOM     15  O   UNL     1       6.025   5.427  18.367  0.00  0.00    +0.000 OA
BRANCH  13  16
ATOM     16  N   UNL     1       4.709   4.795  16.303  0.00  0.00    +0.000 NA
ATOM     17  H   UNL     1       5.102   4.762  15.363  0.00  0.00    +0.000 HD
BRANCH  16  18
ATOM     18  C   UNL     1       4.695   3.477  16.955  0.00  0.00    +0.000 C 
BRANCH  18  19
ATOM     19  C   UNL     1       3.491   3.281  17.845  0.00  0.00    +0.000 A 
ATOM     20  C   UNL     1       2.200   3.583  17.389  0.00  0.00    +0.000 A 
ATOM     21  C   UNL     1       1.108   3.491  18.254  0.00  0.00    +0.000 A 
ATOM     22  C   UNL     1       1.301   3.102  19.580  0.00  0.00    +0.000 A 
ATOM     23  C   UNL     1       2.578   2.792  20.050  0.00  0.00    +0.000 A 
ATOM     24  C   UNL     1       3.666   2.871  19.177  0.00  0.00    +0.000 A 
BRANCH  23  25
ATOM     25  O   UNL     1       2.644   2.449  21.373  0.00  0.00    +0.000 OA
ATOM     26  C   UNL     1       1.445   2.579  22.126  0.00  0.00    +0.000 C 
ENDBRANCH  23  25
ENDBRANCH  18  19
ENDBRANCH  16  18
ENDBRANCH  13  16
ENDBRANCH   7  13
BRANCH   1  28
ATOM     27  C   UNL     1      -1.530  11.959  19.900  0.00  0.00    +0.000 C 
ATOM     28  C   UNL     1      -0.815  10.708  20.386  0.00  0.00    +0.000 C 
ENDBRANCH   1  28
TORSDOF 6
ENDMDL
MODEL 6
REMARK VINA RESULT:      -7.5      1.117      1.987
REMARK  Name = 
REMARK  9 active torsions:
REMARK  status: ('A' for Active; 'I' for Inactive)
REMARK    1  A    between atoms: C_1  and  C_2
REMARK    2  A    between atoms: C_2  and  C_3
REMARK    3  A    between atoms: C_9  and  S_10
REMARK    4  A    between atoms: S_10  and  N_13
REMARK    5  A    between atoms: N_13  and  C_14
REMARK    6  A    between atoms: C_14  and  C_15
REMARK    7  A    between atoms: C_19  and  O_20
REMARK    8  A    between atoms: O_20  and  C_21
REMARK    9  A    between atoms: C_26  and  C_27
REMARK                            x       y       z     vdW  Elec       q    Type
REMARK                         _______ _______ _______ _____ _____    ______ ____
ROOT
ATOM      1  C   UNL     1       0.690   9.125  21.038  0.00  0.00    +0.000 C 
ATOM      2  O   UNL     1       0.496   8.652  22.159  0.00  0.00    +0.000 OA
ATOM      3  N   UNL     1       1.362   8.459  20.017  0.00  0.00    +0.000 N 
ATOM      4  C   UNL     1       1.822   7.121  20.111  0.00  0.00    +0.000 A 
ATOM      5  C   UNL     1       1.596   6.171  21.100  0.00  0.00    +0.000 A 
ATOM      6  C   UNL     1       2.104   4.871  20.932  0.00  0.00    +0.000 A 
ATOM      7  C   UNL     1       2.843   4.546  19.782  0.00  0.00    +0.000 A 
ATOM      8  C   UNL     1       3.086   5.509  18.800  0.00  0.00    +0.000 A 
ATOM      9  C   UNL     1       2.573   6.785  18.987  0.00  0.00    +0.000 A 
ATOM     10  C   UNL     1       2.715   7.936  18.051  0.00  0.00    +0.000 C 
ATOM     11  C   UNL     1       1.869   9.036  18.733  0.00  0.00    +0.000 C 
ATOM     12  C   UNL     1       0.792   9.512  17.756  0.00  0.00    +0.000 C 
ENDROOT
BRANCH   7  13
ATOM     13  S   UNL     1       3.339   2.866  19.465  0.00  0.00    +0.000 S 
ATOM     14  O   UNL     1       3.863   2.316  20.695  0.00  0.00    +0.000 OA
ATOM     15  O   UNL     1       2.254   2.232  18.751  0.00  0.00    +0.000 OA
BRANCH  13  16
ATOM     16  N   UNL     1       4.613   3.053  18.364  0.00  0.00    +0.000 NA
ATOM     17  H   UNL     1       5.345   2.356  18.502  0.00  0.00    +0.000 HD
BRANCH  16  18
ATOM     18  C   UNL     1       4.206   3.170  16.956  0.00  0.00    +0.000 C 
BRANCH  18  19
ATOM     19  C   UNL     1       5.209   3.931  16.122  0.00  0.00    +0.000 A 
ATOM     20  C   UNL     1       5.467   3.566  14.793  0.00  0.00    +0.000 A 
ATOM     21  C   UNL     1       6.466   4.216  14.066  0.00  0.00    +0.000 A 
ATOM     22  C   UNL     1       7.216   5.229  14.664  0.00  0.00    +0.000 A 
ATOM     23  C   UNL     1       6.968   5.610  15.984  0.00  0.00    +0.000 A 
ATOM     24  C   UNL     1       5.957   4.968  16.703  0.00  0.00    +0.000 A 
BRANCH  23  25
ATOM     25  O   UNL     1       7.784   6.596  16.467  0.00  0.00    +0.000 OA
ATOM     26  C   UNL     1       7.210   7.496  17.407  0.00  0.00    +0.000 C 
ENDBRANCH  23  25
ENDBRANCH  18  19
ENDBRANCH  16  18
ENDBRANCH  13  16
ENDBRANCH   7  13
BRANCH   1  28
ATOM     27  C   UNL     1      -0.337  11.290  21.905  0.00  0.00    +0.000 C 
ATOM     28  C   UNL     1       0.155  10.508  20.697  0.00  0.00    +0.000 C 
ENDBRANCH   1  28
TORSDOF 6
ENDMDL
MODEL 7
REMARK VINA RESULT:      -7.4      3.521      8.284
REMARK  Name = 
REMARK  9 active torsions:
REMARK  status: ('A' for Active; 'I' for Inactive)
REMARK    1  A    between atoms: C_1  and  C_2
REMARK    2  A    between atoms: C_2  and  C_3
REMARK    3  A    between atoms: C_9  and  S_10
REMARK    4  A    between atoms: S_10  and  N_13
REMARK    5  A    between atoms: N_13  and  C_14
REMARK    6  A    between atoms: C_14  and  C_15
REMARK    7  A    between atoms: C_19  and  O_20
REMARK    8  A    between atoms: O_20  and  C_21
REMARK    9  A    between atoms: C_26  and  C_27
REMARK                            x       y       z     vdW  Elec       q    Type
REMARK                         _______ _______ _______ _____ _____    ______ ____
ROOT
ATOM      1  C   UNL     1       3.140   4.100  19.643  0.00  0.00    +0.000 C 
ATOM      2  O   UNL     1       2.462   3.830  20.635  0.00  0.00    +0.000 OA
ATOM      3  N   UNL     1       3.140   5.340  19.012  0.00  0.00    +0.000 N 
ATOM      4  C   UNL     1       2.431   6.472  19.490  0.00  0.00    +0.000 A 
ATOM      5  C   UNL     1       1.750   6.654  20.688  0.00  0.00    +0.000 A 
ATOM      6  C   UNL     1       1.182   7.909  20.971  0.00  0.00    +0.000 A 
ATOM      7  C   UNL     1       1.292   8.958  20.043  0.00  0.00    +0.000 A 
ATOM      8  C   UNL     1       1.959   8.766  18.831  0.00  0.00    +0.000 A 
ATOM      9  C   UNL     1       2.514   7.519  18.574  0.00  0.00    +0.000 A 
ATOM     10  C   UNL     1       3.269   7.128  17.351  0.00  0.00    +0.000 C 
ATOM     11  C   UNL     1       3.715   5.682  17.674  0.00  0.00    +0.000 C 
ATOM     12  C   UNL     1       5.239   5.597  17.572  0.00  0.00    +0.000 C 
ENDROOT
BRANCH   7  13
ATOM     13  S   UNL     1       0.739  10.599  20.456  0.00  0.00    +0.000 S 
ATOM     14  O   UNL     1       0.959  10.801  21.871  0.00  0.00    +0.000 OA
ATOM     15  O   UNL     1       1.293  11.494  19.466  0.00  0.00    +0.000 OA
BRANCH  13  16
ATOM     16  N   UNL     1      -0.929  10.516  20.169  0.00  0.00    +0.000 NA
ATOM     17  H   UNL     1      -1.438  10.142  20.970  0.00  0.00    +0.000 HD
BRANCH  16  18
ATOM     18  C   UNL     1      -1.531  11.750  19.645  0.00  0.00    +0.000 C 
BRANCH  18  19
ATOM     19  C   UNL     1      -2.484  11.492  18.502  0.00  0.00    +0.000 A 
ATOM     20  C   UNL     1      -3.850  11.787  18.621  0.00  0.00    +0.000 A 
ATOM     21  C   UNL     1      -4.735  11.453  17.594  0.00  0.00    +0.000 A 
ATOM     22  C   UNL     1      -4.260  10.818  16.446  0.00  0.00    +0.000 A 
ATOM     23  C   UNL     1      -2.903  10.522  16.308  0.00  0.00    +0.000 A 
ATOM     24  C   UNL     1      -2.019  10.872  17.332  0.00  0.00    +0.000 A 
BRANCH  23  25
ATOM     25  O   UNL     1      -2.564   9.876  15.151  0.00  0.00    +0.000 OA
ATOM     26  C   UNL     1      -3.398  10.108  14.022  0.00  0.00    +0.000 C 
ENDBRANCH  23  25
ENDBRANCH  18  19
ENDBRANCH  16  18
ENDBRANCH  13  16
ENDBRANCH   7  13
BRANCH   1  28
ATOM     27  C   UNL     1       3.349   1.945  18.299  0.00  0.00    +0.000 C 
ATOM     28  C   UNL     1       4.071   3.050  19.054  0.00  0.00    +0.000 C 
ENDBRANCH   1  28
TORSDOF 6
ENDMDL
MODEL 8
REMARK VINA RESULT:      -7.2      2.130      3.043
REMARK  Name = 
REMARK  9 active torsions:
REMARK  status: ('A' for Active; 'I' for Inactive)
REMARK    1  A    between atoms: C_1  and  C_2
REMARK    2  A    between atoms: C_2  and  C_3
REMARK    3  A    between atoms: C_9  and  S_10
REMARK    4  A    between atoms: S_10  and  N_13
REMARK    5  A    between atoms: N_13  and  C_14
REMARK    6  A    between atoms: C_14  and  C_15
REMARK    7  A    between atoms: C_19  and  O_20
REMARK    8  A    between atoms: O_20  and  C_21
REMARK    9  A    between atoms: C_26  and  C_27
REMARK                            x       y       z     vdW  Elec       q    Type
REMARK                         _______ _______ _______ _____ _____    ______ ____
ROOT
ATOM      1  C   UNL     1      -0.887  11.029  22.669  0.00  0.00    +0.000 C 
ATOM      2  O   UNL     1      -0.488  10.291  23.572  0.00  0.00    +0.000 OA
ATOM      3  N   UNL     1      -0.481  10.926  21.342  0.00  0.00    +0.000 N 
ATOM      4  C   UNL     1       0.369   9.903  20.850  0.00  0.00    +0.000 A 
ATOM      5  C   UNL     1       0.838   8.756  21.481  0.00  0.00    +0.000 A 
ATOM      6  C   UNL     1       1.619   7.842  20.752  0.00  0.00    +0.000 A 
ATOM      7  C   UNL     1       1.930   8.098  19.406  0.00  0.00    +0.000 A 
ATOM      8  C   UNL     1       1.475   9.261  18.781  0.00  0.00    +0.000 A 
ATOM      9  C   UNL     1       0.704  10.148  19.520  0.00  0.00    +0.000 A 
ATOM     10  C   UNL     1       0.121  11.427  19.027  0.00  0.00    +0.000 C 
ATOM     11  C   UNL     1      -0.700  11.917  20.243  0.00  0.00    +0.000 C 
ATOM     12  C   UNL     1      -2.156  12.111  19.814  0.00  0.00    +0.000 C 
ENDROOT
BRANCH   7  13
ATOM     13  S   UNL     1       2.762   6.873  18.418  0.00  0.00    +0.000 S 
ATOM     14  O   UNL     1       1.764   5.962  17.903  0.00  0.00    +0.000 OA
ATOM     15  O   UNL     1       3.669   7.580  17.542  0.00  0.00    +0.000 OA
BRANCH  13  16
ATOM     16  N   UNL     1       3.712   6.054  19.557  0.00  0.00    +0.000 NA
ATOM     17  H   UNL     1       3.321   6.113  20.497  0.00  0.00    +0.000 HD
BRANCH  16  18
ATOM     18  C   UNL     1       4.081   4.680  19.186  0.00  0.00    +0.000 C 
BRANCH  18  19
ATOM     19  C   UNL     1       5.188   4.633  18.159  0.00  0.00    +0.000 A 
ATOM     20  C   UNL     1       6.535   4.642  18.549  0.00  0.00    +0.000 A 
ATOM     21  C   UNL     1       7.546   4.697  17.588  0.00  0.00    +0.000 A 
ATOM     22  C   UNL     1       7.217   4.748  16.233  0.00  0.00    +0.000 A 
ATOM     23  C   UNL     1       5.882   4.734  15.827  0.00  0.00    +0.000 A 
ATOM     24  C   UNL     1       4.873   4.664  16.791  0.00  0.00    +0.000 A 
BRANCH  23  25
ATOM     25  O   UNL     1       5.685   4.815  14.475  0.00  0.00    +0.000 OA
ATOM     26  C   UNL     1       6.015   3.662  13.712  0.00  0.00    +0.000 C 
ENDBRANCH  23  25
ENDBRANCH  18  19
ENDBRANCH  16  18
ENDBRANCH  13  16
ENDBRANCH   7  13
BRANCH   1  28
ATOM     27  C   UNL     1      -1.290  13.450  23.353  0.00  0.00    +0.000 C 
ATOM     28  C   UNL     1      -1.910  12.114  22.974  0.00  0.00    +0.000 C 
ENDBRANCH   1  28
TORSDOF 6
ENDMDL
MODEL 9
REMARK VINA RESULT:      -7.2      2.341      3.696
REMARK  Name = 
REMARK  9 active torsions:
REMARK  status: ('A' for Active; 'I' for Inactive)
REMARK    1  A    between atoms: C_1  and  C_2
REMARK    2  A    between atoms: C_2  and  C_3
REMARK    3  A    between atoms: C_9  and  S_10
REMARK    4  A    between atoms: S_10  and  N_13
REMARK    5  A    between atoms: N_13  and  C_14
REMARK    6  A    between atoms: C_14  and  C_15
REMARK    7  A    between atoms: C_19  and  O_20
REMARK    8  A    between atoms: O_20  and  C_21
REMARK    9  A    between atoms: C_26  and  C_27
REMARK                            x       y       z     vdW  Elec       q    Type
REMARK                         _______ _______ _______ _____ _____    ______ ____
ROOT
ATOM      1  C   UNL     1       0.764  10.043  19.209  0.00  0.00    +0.000 C 
ATOM      2  O   UNL     1       0.994  10.419  18.058  0.00  0.00    +0.000 OA
ATOM      3  N   UNL     1       1.235   8.850  19.747  0.00  0.00    +0.000 N 
ATOM      4  C   UNL     1       2.114   7.966  19.070  0.00  0.00    +0.000 A 
ATOM      5  C   UNL     1       2.792   8.135  17.868  0.00  0.00    +0.000 A 
ATOM      6  C   UNL     1       3.676   7.132  17.432  0.00  0.00    +0.000 A 
ATOM      7  C   UNL     1       3.858   5.970  18.201  0.00  0.00    +0.000 A 
ATOM      8  C   UNL     1       3.160   5.795  19.398  0.00  0.00    +0.000 A 
ATOM      9  C   UNL     1       2.293   6.799  19.808  0.00  0.00    +0.000 A 
ATOM     10  C   UNL     1       1.476   6.799  21.054  0.00  0.00    +0.000 C 
ATOM     11  C   UNL     1       0.804   8.191  21.020  0.00  0.00    +0.000 C 
ATOM     12  C   UNL     1       1.158   8.946  22.303  0.00  0.00    +0.000 C 
ENDROOT
BRANCH   7  13
ATOM     13  S   UNL     1       5.102   4.776  17.761  0.00  0.00    +0.000 S 
ATOM     14  O   UNL     1       5.980   4.607  18.897  0.00  0.00    +0.000 OA
ATOM     15  O   UNL     1       4.418   3.655  17.156  0.00  0.00    +0.000 OA
BRANCH  13  16
ATOM     16  N   UNL     1       5.954   5.560  16.524  0.00  0.00    +0.000 NA
ATOM     17  H   UNL     1       6.153   6.534  16.753  0.00  0.00    +0.000 HD
BRANCH  16  18
ATOM     18  C   UNL     1       7.141   4.843  16.036  0.00  0.00    +0.000 C 
BRANCH  18  19
ATOM     19  C   UNL     1       7.103   4.604  14.545  0.00  0.00    +0.000 A 
ATOM     20  C   UNL     1       7.859   5.394  13.667  0.00  0.00    +0.000 A 
ATOM     21  C   UNL     1       7.739   5.227  12.287  0.00  0.00    +0.000 A 
ATOM     22  C   UNL     1       6.860   4.272  11.776  0.00  0.00    +0.000 A 
ATOM     23  C   UNL     1       6.104   3.472  12.634  0.00  0.00    +0.000 A 
ATOM     24  C   UNL     1       6.238   3.633  14.015  0.00  0.00    +0.000 A 
BRANCH  23  25
ATOM     25  O   UNL     1       5.259   2.592  12.014  0.00  0.00    +0.000 OA
ATOM     26  C   UNL     1       4.222   3.154  11.220  0.00  0.00    +0.000 C 
ENDBRANCH  23  25
ENDBRANCH  18  19
ENDBRANCH  16  18
ENDBRANCH  13  16
ENDBRANCH   7  13
BRANCH   1  28
ATOM     27  C   UNL     1      -1.106  11.761  19.428  0.00  0.00    +0.000 C 
ATOM     28  C   UNL     1      -0.058  10.921  20.142  0.00  0.00    +0.000 C 
ENDBRANCH   1  28
TORSDOF 6
ENDMDL
