MODEL 1
REMARK VINA RESULT:      -8.3      0.000      0.000
REMARK  Name = 
REMARK  5 active torsions:
REMARK  status: ('A' for Active; 'I' for Inactive)
REMARK    1  A    between atoms: C_2  and  O_3
REMARK    2  A    between atoms: C_2  and  C_4
REMARK    3  A    between atoms: C_6  and  C_7
REMARK    4  A    between atoms: C_9  and  C_10
REMARK    5  A    between atoms: C_22  and  C_23
REMARK                            x       y       z     vdW  Elec       q    Type
REMARK                         _______ _______ _______ _____ _____    ______ ____
ROOT
ATOM      1  C   UNL     1       1.174   8.781  20.268  0.00  0.00    +0.000 A 
ATOM      2  C   UNL     1       2.028   7.715  19.899  0.00  0.00    +0.000 A 
ATOM      3  C   UNL     1       2.520   7.584  18.599  0.00  0.00    +0.000 A 
ATOM      4  C   UNL     1       2.112   8.523  17.654  0.00  0.00    +0.000 A 
ATOM      5  C   UNL     1       1.319   9.618  18.024  0.00  0.00    +0.000 A 
ATOM      6  C   UNL     1       0.820   9.791  19.335  0.00  0.00    +0.000 A 
ENDROOT
BRANCH   6   7
ATOM      7  C   UNL     1       0.031  11.021  19.664  0.00  0.00    +0.000 A 
ATOM      8  C   UNL     1       0.593  12.025  20.481  0.00  0.00    +0.000 A 
ATOM      9  F   UNL     1       1.859  11.910  20.910  0.00  0.00    +0.000 F 
ATOM     10  C   UNL     1      -0.110  13.159  20.889  0.00  0.00    +0.000 A 
ATOM     11  C   UNL     1      -1.390  13.389  20.411  0.00  0.00    +0.000 A 
ATOM     12  C   UNL     1      -1.963  12.466  19.544  0.00  0.00    +0.000 A 
ATOM     13  C   UNL     1      -1.282  11.284  19.200  0.00  0.00    +0.000 A 
ATOM     14 CL   UNL     1      -2.199  10.166  18.242  0.00  0.00    +0.000 Cl
ENDBRANCH   6   7
BRANCH   3  15
ATOM     15  C   UNL     1       3.464   6.529  18.202  0.00  0.00    +0.000 A 
ATOM     16  N   UNL     1       3.938   6.370  16.980  0.00  0.00    +0.000 NA
ATOM     17  C   UNL     1       4.859   5.337  16.951  0.00  0.00    +0.000 A 
ATOM     18  C   UNL     1       5.124   4.757  18.176  0.00  0.00    +0.000 A 
ATOM     19  S   UNL     1       4.150   5.476  19.382  0.00  0.00    +0.000 S 
BRANCH  17  20
ATOM     20  C   UNL     1       5.535   4.955  15.715  0.00  0.00    +0.000 A 
ATOM     21  C   UNL     1       6.914   5.134  15.549  0.00  0.00    +0.000 A 
ATOM     22  C   UNL     1       7.537   4.786  14.345  0.00  0.00    +0.000 A 
ATOM     23  C   UNL     1       6.785   4.258  13.293  0.00  0.00    +0.000 A 
ATOM     24 CL   UNL     1       7.619   3.874  11.830  0.00  0.00    +0.000 Cl
ATOM     25  C   UNL     1       5.412   4.057  13.453  0.00  0.00    +0.000 A 
ATOM     26 CL   UNL     1       4.420   3.407  12.196  0.00  0.00    +0.000 Cl
ATOM     27  C   UNL     1       4.794   4.406  14.662  0.00  0.00    +0.000 A 
ENDBRANCH  17  20
ENDBRANCH   3  15
BRANCH   1  29
ATOM     28  O   UNL     1      -0.395   8.470  22.030  0.00  0.00    +0.000 OA
ATOM     29  C   UNL     1       0.749   8.729  21.696  0.00  0.00    +0.000 C 
BRANCH  29  30
ATOM     30  O   UNL     1       1.698   9.110  22.575  0.00  0.00    +0.000 OA
ATOM     31  H   UNL     1       1.383   9.662  23.312  0.00  0.00    +0.000 HD
ENDBRANCH  29  30
ENDBRANCH   1  29
TORSDOF 5
ENDMDL
MODEL 2
REMARK VINA RESULT:      -8.1      1.356      1.607
REMARK  Name = 
REMARK  5 active torsions:
REMARK  status: ('A' for Active; 'I' for Inactive)
REMARK    1  A    between atoms: C_2  and  O_3
REMARK    2  A    between atoms: C_2  and  C_4
REMARK    3  A    between atoms: C_6  and  C_7
REMARK    4  A    between atoms: C_9  and  C_10
REMARK    5  A    between atoms: C_22  and  C_23
REMARK                            x       y       z     vdW  Elec       q    Type
REMARK                         _______ _______ _______ _____ _____    ______ ____
ROOT
ATOM      1  C   UNL     1       1.112   8.952  20.376  0.00  0.00    +0.000 A 
ATOM      2  C   UNL     1       1.958   7.874  20.021  0.00  0.00    +0.000 A 
ATOM      3  C   UNL     1       2.374   7.671  18.704  0.00  0.00    +0.000 A 
ATOM      4  C   UNL     1       1.901   8.549  17.732  0.00  0.00    +0.000 A 
ATOM      5  C   UNL     1       1.116   9.656  18.083  0.00  0.00    +0.000 A 
ATOM      6  C   UNL     1       0.691   9.901  19.408  0.00  0.00    +0.000 A 
ENDROOT
BRANCH   6   7
ATOM      7  C   UNL     1      -0.093  11.142  19.711  0.00  0.00    +0.000 A 
ATOM      8  C   UNL     1      -1.466  11.206  19.396  0.00  0.00    +0.000 A 
ATOM      9  F   UNL     1      -2.088  10.133  18.885  0.00  0.00    +0.000 F 
ATOM     10  C   UNL     1      -2.238  12.354  19.580  0.00  0.00    +0.000 A 
ATOM     11  C   UNL     1      -1.685  13.470  20.186  0.00  0.00    +0.000 A 
ATOM     12  C   UNL     1      -0.353  13.433  20.582  0.00  0.00    +0.000 A 
ATOM     13  C   UNL     1       0.443  12.303  20.321  0.00  0.00    +0.000 A 
ATOM     14 CL   UNL     1       2.119  12.481  20.733  0.00  0.00    +0.000 Cl
ENDBRANCH   6   7
BRANCH   3  15
ATOM     15  C   UNL     1       3.308   6.603  18.314  0.00  0.00    +0.000 A 
ATOM     16  N   UNL     1       3.847   6.481  17.116  0.00  0.00    +0.000 NA
ATOM     17  C   UNL     1       4.737   5.420  17.094  0.00  0.00    +0.000 A 
ATOM     18  C   UNL     1       4.911   4.781  18.305  0.00  0.00    +0.000 A 
ATOM     19  S   UNL     1       3.891   5.479  19.484  0.00  0.00    +0.000 S 
BRANCH  17  20
ATOM     20  C   UNL     1       5.471   5.070  15.882  0.00  0.00    +0.000 A 
ATOM     21  C   UNL     1       6.840   5.338  15.752  0.00  0.00    +0.000 A 
ATOM     22  C   UNL     1       7.519   5.018  14.571  0.00  0.00    +0.000 A 
ATOM     23  C   UNL     1       6.833   4.428  13.505  0.00  0.00    +0.000 A 
ATOM     24 CL   UNL     1       7.732   4.084  12.072  0.00  0.00    +0.000 Cl
ATOM     25  C   UNL     1       5.472   4.139  13.630  0.00  0.00    +0.000 A 
ATOM     26 CL   UNL     1       4.562   3.410  12.355  0.00  0.00    +0.000 Cl
ATOM     27  C   UNL     1       4.798   4.461  14.817  0.00  0.00    +0.000 A 
ENDBRANCH  17  20
ENDBRANCH   3  15
BRANCH   1  29
ATOM     28  O   UNL     1      -0.370   8.851  22.235  0.00  0.00    +0.000 OA
ATOM     29  C   UNL     1       0.772   8.981  21.827  0.00  0.00    +0.000 C 
BRANCH  29  30
ATOM     30  O   UNL     1       1.807   9.282  22.637  0.00  0.00    +0.000 OA
ATOM     31  H   UNL     1       2.422   9.954  22.291  0.00  0.00    +0.000 HD
ENDBRANCH  29  30
ENDBRANCH   1  29
TORSDOF 5
ENDMDL
MODEL 3
REMARK VINA RESULT:      -7.9      3.400      9.568
REMARK  Name = 
REMARK  5 active torsions:
REMARK  status: ('A' for Active; 'I' for Inactive)
REMARK    1  A    between atoms: C_2  and  O_3
REMARK    2  A    between atoms: C_2  and  C_4
REMARK    3  A    between atoms: C_6  and  C_7
REMARK    4  A    between atoms: C_9  and  C_10
REMARK    5  A    between atoms: C_22  and  C_23
REMARK                            x       y       z     vdW  Elec       q    Type
REMARK                         _______ _______ _______ _____ _____    ______ ____
ROOT
ATOM      1  C   UNL     1       2.527   6.892  19.241  0.00  0.00    +0.000 A 
ATOM      2  C   UNL     1       1.598   7.876  19.653  0.00  0.00    +0.000 A 
ATOM      3  C   UNL     1       1.363   9.026  18.896  0.00  0.00    +0.000 A 
ATOM      4  C   UNL     1       2.103   9.195  17.728  0.00  0.00    +0.000 A 
ATOM      5  C   UNL     1       2.978   8.196  17.279  0.00  0.00    +0.000 A 
ATOM      6  C   UNL     1       3.225   7.013  18.011  0.00  0.00    +0.000 A 
ENDROOT
BRANCH   6   7
ATOM      7  C   UNL     1       4.126   5.965  17.431  0.00  0.00    +0.000 A 
ATOM      8  C   UNL     1       5.479   6.262  17.169  0.00  0.00    +0.000 A 
ATOM      9  F   UNL     1       5.980   7.461  17.500  0.00  0.00    +0.000 F 
ATOM     10  C   UNL     1       6.354   5.360  16.561  0.00  0.00    +0.000 A 
ATOM     11  C   UNL     1       5.931   4.072  16.275  0.00  0.00    +0.000 A 
ATOM     12  C   UNL     1       4.625   3.706  16.580  0.00  0.00    +0.000 A 
ATOM     13  C   UNL     1       3.724   4.643  17.118  0.00  0.00    +0.000 A 
ATOM     14 CL   UNL     1       2.095   4.072  17.290  0.00  0.00    +0.000 Cl
ENDBRANCH   6   7
BRANCH   3  15
ATOM     15  C   UNL     1       0.355  10.033  19.260  0.00  0.00    +0.000 A 
ATOM     16  N   UNL     1      -0.816  10.168  18.666  0.00  0.00    +0.000 NA
ATOM     17  C   UNL     1      -1.561  11.155  19.290  0.00  0.00    +0.000 A 
ATOM     18  C   UNL     1      -0.967  11.720  20.400  0.00  0.00    +0.000 A 
ATOM     19  S   UNL     1       0.588  11.050  20.633  0.00  0.00    +0.000 S 
BRANCH  17  20
ATOM     20  C   UNL     1      -2.900  11.502  18.826  0.00  0.00    +0.000 A 
ATOM     21  C   UNL     1      -3.362  11.113  17.561  0.00  0.00    +0.000 A 
ATOM     22  C   UNL     1      -4.640  11.480  17.126  0.00  0.00    +0.000 A 
ATOM     23  C   UNL     1      -5.469  12.245  17.950  0.00  0.00    +0.000 A 
ATOM     24 CL   UNL     1      -7.023  12.680  17.335  0.00  0.00    +0.000 Cl
ATOM     25  C   UNL     1      -5.027  12.624  19.220  0.00  0.00    +0.000 A 
ATOM     26 CL   UNL     1      -5.999  13.568  20.293  0.00  0.00    +0.000 Cl
ATOM     27  C   UNL     1      -3.747  12.252  19.651  0.00  0.00    +0.000 A 
ENDBRANCH  17  20
ENDBRANCH   3  15
BRANCH   1  29
ATOM     28  O   UNL     1       1.680   5.301  20.795  0.00  0.00    +0.000 OA
ATOM     29  C   UNL     1       2.642   5.753  20.197  0.00  0.00    +0.000 C 
BRANCH  29  30
ATOM     30  O   UNL     1       3.906   5.348  20.434  0.00  0.00    +0.000 OA
ATOM     31  H   UNL     1       4.068   4.999  21.329  0.00  0.00    +0.000 HD
ENDBRANCH  29  30
ENDBRANCH   1  29
TORSDOF 5
ENDMDL
MODEL 4
REMARK VINA RESULT:      -7.7      3.668     10.060
REMARK  Name = 
REMARK  5 active torsions:
REMARK  status: ('A' for Active; 'I' for Inactive)
REMARK    1  A    between atoms: C_2  and  O_3
REMARK    2  A    between atoms: C_2  and  C_4
REMARK    3  A    between atoms: C_6  and  C_7
REMARK    4  A    between atoms: C_9  and  C_10
REMARK    5  A    between atoms: C_22  and  C_23
REMARK                            x       y       z     vdW  Elec       q    Type
REMARK                         _______ _______ _______ _____ _____    ______ ____
ROOT
ATOM      1  C   UNL     1       2.024   6.767  19.561  0.00  0.00    +0.000 A 
ATOM      2  C   UNL     1       1.393   7.965  19.974  0.00  0.00    +0.000 A 
ATOM      3  C   UNL     1       1.478   9.137  19.219  0.00  0.00    +0.000 A 
ATOM      4  C   UNL     1       2.239   9.104  18.053  0.00  0.00    +0.000 A 
ATOM      5  C   UNL     1       2.814   7.907  17.603  0.00  0.00    +0.000 A 
ATOM      6  C   UNL     1       2.732   6.699  18.332  0.00  0.00    +0.000 A 
ENDROOT
BRANCH   6   7
ATOM      7  C   UNL     1       3.319   5.449  17.751  0.00  0.00    +0.000 A 
ATOM      8  C   UNL     1       2.485   4.358  17.431  0.00  0.00    +0.000 A 
ATOM      9  F   UNL     1       1.157   4.460  17.585  0.00  0.00    +0.000 F 
ATOM     10  C   UNL     1       2.972   3.138  16.959  0.00  0.00    +0.000 A 
ATOM     11  C   UNL     1       4.324   2.990  16.690  0.00  0.00    +0.000 A 
ATOM     12  C   UNL     1       5.179   4.061  16.920  0.00  0.00    +0.000 A 
ATOM     13  C   UNL     1       4.696   5.261  17.472  0.00  0.00    +0.000 A 
ATOM     14 CL   UNL     1       5.916   6.436  17.846  0.00  0.00    +0.000 Cl
ENDBRANCH   6   7
BRANCH   3  15
ATOM     15  C   UNL     1       0.776  10.377  19.584  0.00  0.00    +0.000 A 
ATOM     16  N   UNL     1      -0.292  10.433  20.358  0.00  0.00    +0.000 NA
ATOM     17  C   UNL     1      -0.665  11.749  20.569  0.00  0.00    +0.000 A 
ATOM     18  C   UNL     1       0.169  12.690  20.000  0.00  0.00    +0.000 A 
ATOM     19  S   UNL     1       1.412  11.912  19.124  0.00  0.00    +0.000 S 
BRANCH  17  20
ATOM     20  C   UNL     1      -1.821  12.088  21.393  0.00  0.00    +0.000 A 
ATOM     21  C   UNL     1      -1.828  11.858  22.775  0.00  0.00    +0.000 A 
ATOM     22  C   UNL     1      -2.957  12.166  23.543  0.00  0.00    +0.000 A 
ATOM     23  C   UNL     1      -4.094  12.704  22.933  0.00  0.00    +0.000 A 
ATOM     24 CL   UNL     1      -5.457  13.035  23.940  0.00  0.00    +0.000 Cl
ATOM     25  C   UNL     1      -4.093  12.954  21.559  0.00  0.00    +0.000 A 
ATOM     26 CL   UNL     1      -5.462  13.618  20.740  0.00  0.00    +0.000 Cl
ATOM     27  C   UNL     1      -2.958  12.645  20.796  0.00  0.00    +0.000 A 
ENDBRANCH  17  20
ENDBRANCH   3  15
BRANCH   1  29
ATOM     28  O   UNL     1       0.724   5.179  20.764  0.00  0.00    +0.000 OA
ATOM     29  C   UNL     1       1.825   5.638  20.513  0.00  0.00    +0.000 C 
BRANCH  29  30
ATOM     30  O   UNL     1       2.943   5.250  21.161  0.00  0.00    +0.000 OA
ATOM     31  H   UNL     1       2.793   4.782  22.002  0.00  0.00    +0.000 HD
ENDBRANCH  29  30
ENDBRANCH   1  29
TORSDOF 5
ENDMDL
MODEL 5
REMARK VINA RESULT:      -7.7      3.529      9.665
REMARK  Name = 
REMARK  5 active torsions:
REMARK  status: ('A' for Active; 'I' for Inactive)
REMARK    1  A    between atoms: C_2  and  O_3
REMARK    2  A    between atoms: C_2  and  C_4
REMARK    3  A    between atoms: C_6  and  C_7
REMARK    4  A    between atoms: C_9  and  C_10
REMARK    5  A    between atoms: C_22  and  C_23
REMARK                            x       y       z     vdW  Elec       q    Type
REMARK                         _______ _______ _______ _____ _____    ______ ____
ROOT
ATOM      1  C   UNL     1       2.576   6.847  19.215  0.00  0.00    +0.000 A 
ATOM      2  C   UNL     1       1.650   7.835  19.626  0.00  0.00    +0.000 A 
ATOM      3  C   UNL     1       1.426   8.990  18.873  0.00  0.00    +0.000 A 
ATOM      4  C   UNL     1       2.175   9.160  17.710  0.00  0.00    +0.000 A 
ATOM      5  C   UNL     1       3.047   8.158  17.262  0.00  0.00    +0.000 A 
ATOM      6  C   UNL     1       3.282   6.970  17.990  0.00  0.00    +0.000 A 
ENDROOT
BRANCH   6   7
ATOM      7  C   UNL     1       4.181   5.920  17.411  0.00  0.00    +0.000 A 
ATOM      8  C   UNL     1       3.666   4.646  17.091  0.00  0.00    +0.000 A 
ATOM      9  F   UNL     1       2.358   4.393  17.243  0.00  0.00    +0.000 F 
ATOM     10  C   UNL     1       4.459   3.599  16.620  0.00  0.00    +0.000 A 
ATOM     11  C   UNL     1       5.802   3.814  16.354  0.00  0.00    +0.000 A 
ATOM     12  C   UNL     1       6.343   5.074  16.583  0.00  0.00    +0.000 A 
ATOM     13  C   UNL     1       5.558   6.103  17.134  0.00  0.00    +0.000 A 
ATOM     14 CL   UNL     1       6.423   7.560  17.508  0.00  0.00    +0.000 Cl
ENDBRANCH   6   7
BRANCH   3  15
ATOM     15  C   UNL     1       0.422  10.001  19.235  0.00  0.00    +0.000 A 
ATOM     16  N   UNL     1      -0.752  10.134  18.647  0.00  0.00    +0.000 NA
ATOM     17  C   UNL     1      -1.493  11.126  19.267  0.00  0.00    +0.000 A 
ATOM     18  C   UNL     1      -0.892  11.697  20.371  0.00  0.00    +0.000 A 
ATOM     19  S   UNL     1       0.663  11.027  20.600  0.00  0.00    +0.000 S 
BRANCH  17  20
ATOM     20  C   UNL     1      -2.833  11.473  18.808  0.00  0.00    +0.000 A 
ATOM     21  C   UNL     1      -3.299  11.082  17.545  0.00  0.00    +0.000 A 
ATOM     22  C   UNL     1      -4.579  11.448  17.114  0.00  0.00    +0.000 A 
ATOM     23  C   UNL     1      -5.406  12.214  17.941  0.00  0.00    +0.000 A 
ATOM     24 CL   UNL     1      -6.962  12.648  17.331  0.00  0.00    +0.000 Cl
ATOM     25  C   UNL     1      -4.959  12.594  19.209  0.00  0.00    +0.000 A 
ATOM     26 CL   UNL     1      -5.928  13.539  20.284  0.00  0.00    +0.000 Cl
ATOM     27  C   UNL     1      -3.677  12.223  19.636  0.00  0.00    +0.000 A 
ENDBRANCH  17  20
ENDBRANCH   3  15
BRANCH   1  29
ATOM     28  O   UNL     1       1.705   5.239  20.738  0.00  0.00    +0.000 OA
ATOM     29  C   UNL     1       2.677   5.703  20.165  0.00  0.00    +0.000 C 
BRANCH  29  30
ATOM     30  O   UNL     1       3.938   5.306  20.430  0.00  0.00    +0.000 OA
ATOM     31  H   UNL     1       4.507   5.186  19.648  0.00  0.00    +0.000 HD
ENDBRANCH  29  30
ENDBRANCH   1  29
TORSDOF 5
ENDMDL
MODEL 6
REMARK VINA RESULT:      -7.7      3.624      9.991
REMARK  Name = 
REMARK  5 active torsions:
REMARK  status: ('A' for Active; 'I' for Inactive)
REMARK    1  A    between atoms: C_2  and  O_3
REMARK    2  A    between atoms: C_2  and  C_4
REMARK    3  A    between atoms: C_6  and  C_7
REMARK    4  A    between atoms: C_9  and  C_10
REMARK    5  A    between atoms: C_22  and  C_23
REMARK                            x       y       z     vdW  Elec       q    Type
REMARK                         _______ _______ _______ _____ _____    ______ ____
ROOT
ATOM      1  C   UNL     1       2.421   6.896  19.307  0.00  0.00    +0.000 A 
ATOM      2  C   UNL     1       1.456   7.848  19.715  0.00  0.00    +0.000 A 
ATOM      3  C   UNL     1       1.207   9.005  18.973  0.00  0.00    +0.000 A 
ATOM      4  C   UNL     1       1.970   9.216  17.826  0.00  0.00    +0.000 A 
ATOM      5  C   UNL     1       2.882   8.249  17.381  0.00  0.00    +0.000 A 
ATOM      6  C   UNL     1       3.144   7.059  18.097  0.00  0.00    +0.000 A 
ENDROOT
BRANCH   6   7
ATOM      7  C   UNL     1       4.086   6.047  17.519  0.00  0.00    +0.000 A 
ATOM      8  C   UNL     1       5.434   6.387  17.286  0.00  0.00    +0.000 A 
ATOM      9  F   UNL     1       5.892   7.597  17.641  0.00  0.00    +0.000 F 
ATOM     10  C   UNL     1       6.346   5.521  16.683  0.00  0.00    +0.000 A 
ATOM     11  C   UNL     1       5.968   4.224  16.371  0.00  0.00    +0.000 A 
ATOM     12  C   UNL     1       4.668   3.816  16.649  0.00  0.00    +0.000 A 
ATOM     13  C   UNL     1       3.730   4.718  17.182  0.00  0.00    +0.000 A 
ATOM     14 CL   UNL     1       2.116   4.096  17.316  0.00  0.00    +0.000 Cl
ENDBRANCH   6   7
BRANCH   3  15
ATOM     15  C   UNL     1       0.164   9.978  19.331  0.00  0.00    +0.000 A 
ATOM     16  N   UNL     1       0.139  10.668  20.455  0.00  0.00    +0.000 NA
ATOM     17  C   UNL     1      -0.929  11.550  20.456  0.00  0.00    +0.000 A 
ATOM     18  C   UNL     1      -1.674  11.563  19.294  0.00  0.00    +0.000 A 
ATOM     19  S   UNL     1      -1.066  10.400  18.200  0.00  0.00    +0.000 S 
BRANCH  17  20
ATOM     20  C   UNL     1      -1.183  12.434  21.589  0.00  0.00    +0.000 A 
ATOM     21  C   UNL     1      -0.337  13.512  21.881  0.00  0.00    +0.000 A 
ATOM     22  C   UNL     1      -0.584  14.332  22.988  0.00  0.00    +0.000 A 
ATOM     23  C   UNL     1      -1.680  14.079  23.817  0.00  0.00    +0.000 A 
ATOM     24 CL   UNL     1      -1.908  15.119  25.176  0.00  0.00    +0.000 Cl
ATOM     25  C   UNL     1      -2.542  13.019  23.525  0.00  0.00    +0.000 A 
ATOM     26 CL   UNL     1      -3.917  12.649  24.505  0.00  0.00    +0.000 Cl
ATOM     27  C   UNL     1      -2.289  12.202  22.414  0.00  0.00    +0.000 A 
ENDBRANCH  17  20
ENDBRANCH   3  15
BRANCH   1  29
ATOM     28  O   UNL     1       1.583   5.266  20.825  0.00  0.00    +0.000 OA
ATOM     29  C   UNL     1       2.543   5.743  20.244  0.00  0.00    +0.000 C 
BRANCH  29  30
ATOM     30  O   UNL     1       3.811   5.354  20.488  0.00  0.00    +0.000 OA
ATOM     31  H   UNL     1       4.409   6.058  20.798  0.00  0.00    +0.000 HD
ENDBRANCH  29  30
ENDBRANCH   1  29
TORSDOF 5
ENDMDL
MODEL 7
REMARK VINA RESULT:      -7.7      3.475      9.299
REMARK  Name = 
REMARK  5 active torsions:
REMARK  status: ('A' for Active; 'I' for Inactive)
REMARK    1  A    between atoms: C_2  and  O_3
REMARK    2  A    between atoms: C_2  and  C_4
REMARK    3  A    between atoms: C_6  and  C_7
REMARK    4  A    between atoms: C_9  and  C_10
REMARK    5  A    between atoms: C_22  and  C_23
REMARK                            x       y       z     vdW  Elec       q    Type
REMARK                         _______ _______ _______ _____ _____    ______ ____
ROOT
ATOM      1  C   UNL     1       3.414   6.342  18.917  0.00  0.00    +0.000 A 
ATOM      2  C   UNL     1       2.410   7.189  19.444  0.00  0.00    +0.000 A 
ATOM      3  C   UNL     1       2.048   8.380  18.812  0.00  0.00    +0.000 A 
ATOM      4  C   UNL     1       2.734   8.734  17.653  0.00  0.00    +0.000 A 
ATOM      5  C   UNL     1       3.684   7.871  17.088  0.00  0.00    +0.000 A 
ATOM      6  C   UNL     1       4.061   6.650  17.692  0.00  0.00    +0.000 A 
ENDROOT
BRANCH   6   7
ATOM      7  C   UNL     1       5.038   5.755  16.991  0.00  0.00    +0.000 A 
ATOM      8  C   UNL     1       4.614   4.515  16.472  0.00  0.00    +0.000 A 
ATOM      9  F   UNL     1       3.322   4.162  16.546  0.00  0.00    +0.000 F 
ATOM     10  C   UNL     1       5.483   3.599  15.876  0.00  0.00    +0.000 A 
ATOM     11  C   UNL     1       6.814   3.934  15.684  0.00  0.00    +0.000 A 
ATOM     12  C   UNL     1       7.267   5.176  16.113  0.00  0.00    +0.000 A 
ATOM     13  C   UNL     1       6.405   6.062  16.786  0.00  0.00    +0.000 A 
ATOM     14 CL   UNL     1       7.166   7.497  17.395  0.00  0.00    +0.000 Cl
ENDBRANCH   6   7
BRANCH   3  15
ATOM     15  C   UNL     1       0.962   9.246  19.296  0.00  0.00    +0.000 A 
ATOM     16  N   UNL     1      -0.066   9.636  18.566  0.00  0.00    +0.000 NA
ATOM     17  C   UNL     1      -0.947  10.380  19.332  0.00  0.00    +0.000 A 
ATOM     18  C   UNL     1      -0.607  10.494  20.665  0.00  0.00    +0.000 A 
ATOM     19  S   UNL     1       0.883   9.710  20.955  0.00  0.00    +0.000 S 
BRANCH  17  20
ATOM     20  C   UNL     1      -2.171  10.932  18.761  0.00  0.00    +0.000 A 
ATOM     21  C   UNL     1      -3.019  11.761  19.508  0.00  0.00    +0.000 A 
ATOM     22  C   UNL     1      -4.202  12.259  18.950  0.00  0.00    +0.000 A 
ATOM     23  C   UNL     1      -4.551  11.928  17.638  0.00  0.00    +0.000 A 
ATOM     24 CL   UNL     1      -6.037  12.560  17.025  0.00  0.00    +0.000 Cl
ATOM     25  C   UNL     1      -3.705  11.117  16.877  0.00  0.00    +0.000 A 
ATOM     26 CL   UNL     1      -4.073  10.670  15.249  0.00  0.00    +0.000 Cl
ATOM     27  C   UNL     1      -2.521  10.624  17.442  0.00  0.00    +0.000 A 
ENDBRANCH  17  20
ENDBRANCH   3  15
BRANCH   1  29
ATOM     28  O   UNL     1       2.755   4.484  20.249  0.00  0.00    +0.000 OA
ATOM     29  C   UNL     1       3.661   5.131  19.750  0.00  0.00    +0.000 C 
BRANCH  29  30
ATOM     30  O   UNL     1       4.961   4.883  20.004  0.00  0.00    +0.000 OA
ATOM     31  H   UNL     1       5.180   3.949  20.174  0.00  0.00    +0.000 HD
ENDBRANCH  29  30
ENDBRANCH   1  29
TORSDOF 5
ENDMDL
MODEL 8
REMARK VINA RESULT:      -7.6      3.443      9.630
REMARK  Name = 
REMARK  5 active torsions:
REMARK  status: ('A' for Active; 'I' for Inactive)
REMARK    1  A    between atoms: C_2  and  O_3
REMARK    2  A    between atoms: C_2  and  C_4
REMARK    3  A    between atoms: C_6  and  C_7
REMARK    4  A    between atoms: C_9  and  C_10
REMARK    5  A    between atoms: C_22  and  C_23
REMARK                            x       y       z     vdW  Elec       q    Type
REMARK                         _______ _______ _______ _____ _____    ______ ____
ROOT
ATOM      1  C   UNL     1       2.225   7.167  19.424  0.00  0.00    +0.000 A 
ATOM      2  C   UNL     1       1.465   8.297  19.811  0.00  0.00    +0.000 A 
ATOM      3  C   UNL     1       1.402   9.445  19.019  0.00  0.00    +0.000 A 
ATOM      4  C   UNL     1       2.145   9.461  17.841  0.00  0.00    +0.000 A 
ATOM      5  C   UNL     1       2.850   8.325  17.418  0.00  0.00    +0.000 A 
ATOM      6  C   UNL     1       2.919   7.141  18.186  0.00  0.00    +0.000 A 
ENDROOT
BRANCH   6   7
ATOM      7  C   UNL     1       3.639   5.949  17.634  0.00  0.00    +0.000 A 
ATOM      8  C   UNL     1       5.016   6.028  17.340  0.00  0.00    +0.000 A 
ATOM      9  F   UNL     1       5.698   7.149  17.614  0.00  0.00    +0.000 F 
ATOM     10  C   UNL     1       5.733   4.983  16.754  0.00  0.00    +0.000 A 
ATOM     11  C   UNL     1       5.115   3.763  16.526  0.00  0.00    +0.000 A 
ATOM     12  C   UNL     1       3.776   3.610  16.866  0.00  0.00    +0.000 A 
ATOM     13  C   UNL     1       3.037   4.692  17.381  0.00  0.00    +0.000 A 
ATOM     14 CL   UNL     1       1.345   4.380  17.600  0.00  0.00    +0.000 Cl
ENDBRANCH   6   7
BRANCH   3  15
ATOM     15  C   UNL     1       0.566  10.607  19.357  0.00  0.00    +0.000 A 
ATOM     16  N   UNL     1      -0.753  10.611  19.337  0.00  0.00    +0.000 NA
ATOM     17  C   UNL     1      -1.238  11.830  19.778  0.00  0.00    +0.000 A 
ATOM     18  C   UNL     1      -0.273  12.726  20.191  0.00  0.00    +0.000 A 
ATOM     19  S   UNL     1       1.281  12.054  19.962  0.00  0.00    +0.000 S 
BRANCH  17  20
ATOM     20  C   UNL     1      -2.671  12.096  19.853  0.00  0.00    +0.000 A 
ATOM     21  C   UNL     1      -3.256  12.643  21.003  0.00  0.00    +0.000 A 
ATOM     22  C   UNL     1      -4.637  12.865  21.063  0.00  0.00    +0.000 A 
ATOM     23  C   UNL     1      -5.447  12.538  19.973  0.00  0.00    +0.000 A 
ATOM     24 CL   UNL     1      -7.144  12.818  20.129  0.00  0.00    +0.000 Cl
ATOM     25  C   UNL     1      -4.874  12.009  18.814  0.00  0.00    +0.000 A 
ATOM     26 CL   UNL     1      -5.815  11.584  17.428  0.00  0.00    +0.000 Cl
ATOM     27  C   UNL     1      -3.490  11.791  18.760  0.00  0.00    +0.000 A 
ENDBRANCH  17  20
ENDBRANCH   3  15
BRANCH   1  29
ATOM     28  O   UNL     1       1.160   5.778  21.036  0.00  0.00    +0.000 OA
ATOM     29  C   UNL     1       2.173   6.055  20.415  0.00  0.00    +0.000 C 
BRANCH  29  30
ATOM     30  O   UNL     1       3.361   5.464  20.654  0.00  0.00    +0.000 OA
ATOM     31  H   UNL     1       3.548   4.676  20.113  0.00  0.00    +0.000 HD
ENDBRANCH  29  30
ENDBRANCH   1  29
TORSDOF 5
ENDMDL
MODEL 9
REMARK VINA RESULT:      -7.6      2.875      4.202
REMARK  Name = 
REMARK  5 active torsions:
REMARK  status: ('A' for Active; 'I' for Inactive)
REMARK    1  A    between atoms: C_2  and  O_3
REMARK    2  A    between atoms: C_2  and  C_4
REMARK    3  A    between atoms: C_6  and  C_7
REMARK    4  A    between atoms: C_9  and  C_10
REMARK    5  A    between atoms: C_22  and  C_23
REMARK                            x       y       z     vdW  Elec       q    Type
REMARK                         _______ _______ _______ _____ _____    ______ ____
ROOT
ATOM      1  C   UNL     1      -1.043  11.794  18.973  0.00  0.00    +0.000 A 
ATOM      2  C   UNL     1      -0.437  10.516  18.934  0.00  0.00    +0.000 A 
ATOM      3  C   UNL     1       0.650  10.193  19.749  0.00  0.00    +0.000 A 
ATOM      4  C   UNL     1       1.150  11.188  20.586  0.00  0.00    +0.000 A 
ATOM      5  C   UNL     1       0.518  12.435  20.679  0.00  0.00    +0.000 A 
ATOM      6  C   UNL     1      -0.595  12.788  19.882  0.00  0.00    +0.000 A 
ENDROOT
BRANCH   6   7
ATOM      7  C   UNL     1      -1.253  14.119  20.087  0.00  0.00    +0.000 A 
ATOM      8  C   UNL     1      -0.689  15.282  19.524  0.00  0.00    +0.000 A 
ATOM      9  F   UNL     1       0.402  15.191  18.749  0.00  0.00    +0.000 F 
ATOM     10  C   UNL     1      -1.205  16.561  19.738  0.00  0.00    +0.000 A 
ATOM     11  C   UNL     1      -2.381  16.722  20.453  0.00  0.00    +0.000 A 
ATOM     12  C   UNL     1      -3.017  15.598  20.968  0.00  0.00    +0.000 A 
ATOM     13  C   UNL     1      -2.449  14.320  20.820  0.00  0.00    +0.000 A 
ATOM     14 CL   UNL     1      -3.283  13.050  21.658  0.00  0.00    +0.000 Cl
ENDBRANCH   6   7
BRANCH   3  15
ATOM     15  C   UNL     1       1.257   8.854  19.782  0.00  0.00    +0.000 A 
ATOM     16  N   UNL     1       1.980   8.336  18.808  0.00  0.00    +0.000 NA
ATOM     17  C   UNL     1       2.467   7.093  19.177  0.00  0.00    +0.000 A 
ATOM     18  C   UNL     1       2.158   6.706  20.465  0.00  0.00    +0.000 A 
ATOM     19  S   UNL     1       1.179   7.892  21.211  0.00  0.00    +0.000 S 
BRANCH  17  20
ATOM     20  C   UNL     1       3.300   6.304  18.275  0.00  0.00    +0.000 A 
ATOM     21  C   UNL     1       4.190   6.913  17.380  0.00  0.00    +0.000 A 
ATOM     22  C   UNL     1       4.960   6.138  16.504  0.00  0.00    +0.000 A 
ATOM     23  C   UNL     1       4.844   4.745  16.513  0.00  0.00    +0.000 A 
ATOM     24 CL   UNL     1       5.808   3.858  15.389  0.00  0.00    +0.000 Cl
ATOM     25  C   UNL     1       3.973   4.127  17.414  0.00  0.00    +0.000 A 
ATOM     26 CL   UNL     1       3.780   2.411  17.481  0.00  0.00    +0.000 Cl
ATOM     27  C   UNL     1       3.206   4.908  18.289  0.00  0.00    +0.000 A 
ENDBRANCH  17  20
ENDBRANCH   3  15
BRANCH   1  29
ATOM     28  O   UNL     1      -3.335  11.738  18.336  0.00  0.00    +0.000 OA
ATOM     29  C   UNL     1      -2.175  11.939  18.015  0.00  0.00    +0.000 C 
BRANCH  29  30
ATOM     30  O   UNL     1      -1.803  12.192  16.744  0.00  0.00    +0.000 OA
ATOM     31  H   UNL     1      -1.980  11.474  16.109  0.00  0.00    +0.000 HD
ENDBRANCH  29  30
ENDBRANCH   1  29
TORSDOF 5
ENDMDL
