MODEL 1
REMARK VINA RESULT:      -6.9      0.000      0.000
REMARK  Name = 
REMARK  10 active torsions:
REMARK  status: ('A' for Active; 'I' for Inactive)
REMARK    1  A    between atoms: C_1  and  O_2
REMARK    2  A    between atoms: O_2  and  C_3
REMARK    3  A    between atoms: C_5  and  C_6
REMARK    4  A    between atoms: C_7  and  C_8
REMARK    5  A    between atoms: C_8  and  C_10
REMARK    6  A    between atoms: C_11  and  O_12
REMARK    7  A    between atoms: C_16  and  O_17
REMARK    8  A    between atoms: O_17  and  C_18
REMARK    9  A    between atoms: C_20  and  O_21
REMARK   10  A    between atoms: O_21  and  C_22
REMARK                            x       y       z     vdW  Elec       q    Type
REMARK                         _______ _______ _______ _____ _____    ______ ____
ROOT
ATOM      1  C   UNL     1       5.471   3.886  16.144  0.00  0.00    +0.000 C 
ATOM      2  C   UNL     1       5.760   4.687  17.182  0.00  0.00    +0.000 C 
ENDROOT
BRANCH   1   5
ATOM      3  C   UNL     1       7.558   4.999  13.199  0.00  0.00    +0.000 A 
ATOM      4  C   UNL     1       7.034   4.891  14.493  0.00  0.00    +0.000 A 
ATOM      5  C   UNL     1       5.921   4.078  14.755  0.00  0.00    +0.000 A 
ATOM      6  C   UNL     1       5.347   3.370  13.696  0.00  0.00    +0.000 A 
ATOM      7  C   UNL     1       5.884   3.444  12.408  0.00  0.00    +0.000 A 
ATOM      8  C   UNL     1       6.990   4.258  12.161  0.00  0.00    +0.000 A 
BRANCH   3  10
ATOM      9  C   UNL     1       8.734   6.602  11.902  0.00  0.00    +0.000 C 
ATOM     10  O   UNL     1       8.658   5.806  13.082  0.00  0.00    +0.000 OA
ENDBRANCH   3  10
BRANCH   7  11
ATOM     11  O   UNL     1       5.248   2.648  11.495  0.00  0.00    +0.000 OA
ATOM     12  C   UNL     1       3.921   3.011  11.134  0.00  0.00    +0.000 C 
ENDBRANCH   7  11
ENDBRANCH   1   5
BRANCH   2  13
ATOM     13  C   UNL     1       5.209   4.312  18.514  0.00  0.00    +0.000 C 
ATOM     14  O   UNL     1       5.861   4.516  19.538  0.00  0.00    +0.000 OA
BRANCH  13  15
ATOM     15  C   UNL     1       3.812   3.822  18.594  0.00  0.00    +0.000 A 
ATOM     16  C   UNL     1       3.585   2.490  19.007  0.00  0.00    +0.000 A 
ATOM     17  C   UNL     1       2.297   1.958  19.083  0.00  0.00    +0.000 A 
ATOM     18  C   UNL     1       1.207   2.724  18.703  0.00  0.00    +0.000 A 
ATOM     19  C   UNL     1       1.408   4.038  18.283  0.00  0.00    +0.000 A 
ATOM     20  C   UNL     1       2.694   4.602  18.229  0.00  0.00    +0.000 A 
BRANCH  16  21
ATOM     21  O   UNL     1       4.572   1.602  19.356  0.00  0.00    +0.000 OA
ATOM     22  H   UNL     1       5.370   1.760  18.822  0.00  0.00    +0.000 HD
ENDBRANCH  16  21
BRANCH  20  23
ATOM     23  O   UNL     1       2.651   5.948  17.972  0.00  0.00    +0.000 OA
ATOM     24  C   UNL     1       2.549   6.838  19.073  0.00  0.00    +0.000 C 
ENDBRANCH  20  23
ENDBRANCH  13  15
ENDBRANCH   2  13
TORSDOF 7
ENDMDL
MODEL 2
REMARK VINA RESULT:      -6.9      0.299      2.493
REMARK  Name = 
REMARK  10 active torsions:
REMARK  status: ('A' for Active; 'I' for Inactive)
REMARK    1  A    between atoms: C_1  and  O_2
REMARK    2  A    between atoms: O_2  and  C_3
REMARK    3  A    between atoms: C_5  and  C_6
REMARK    4  A    between atoms: C_7  and  C_8
REMARK    5  A    between atoms: C_8  and  C_10
REMARK    6  A    between atoms: C_11  and  O_12
REMARK    7  A    between atoms: C_16  and  O_17
REMARK    8  A    between atoms: O_17  and  C_18
REMARK    9  A    between atoms: C_20  and  O_21
REMARK   10  A    between atoms: O_21  and  C_22
REMARK                            x       y       z     vdW  Elec       q    Type
REMARK                         _______ _______ _______ _____ _____    ______ ____
ROOT
ATOM      1  C   UNL     1       5.665   4.008  16.304  0.00  0.00    +0.000 C 
ATOM      2  C   UNL     1       6.076   4.781  17.322  0.00  0.00    +0.000 C 
ENDROOT
BRANCH   1   5
ATOM      3  C   UNL     1       5.949   3.403  12.587  0.00  0.00    +0.000 A 
ATOM      4  C   UNL     1       5.549   3.299  13.924  0.00  0.00    +0.000 A 
ATOM      5  C   UNL     1       6.188   4.042  14.928  0.00  0.00    +0.000 A 
ATOM      6  C   UNL     1       7.233   4.895  14.565  0.00  0.00    +0.000 A 
ATOM      7  C   UNL     1       7.618   5.032  13.228  0.00  0.00    +0.000 A 
ATOM      8  C   UNL     1       6.974   4.286  12.240  0.00  0.00    +0.000 A 
BRANCH   3  10
ATOM      9  C   UNL     1       4.027   3.224  11.207  0.00  0.00    +0.000 C 
ATOM     10  O   UNL     1       5.230   2.643  11.704  0.00  0.00    +0.000 OA
ENDBRANCH   3  10
BRANCH   7  11
ATOM     11  O   UNL     1       8.613   5.948  13.027  0.00  0.00    +0.000 OA
ATOM     12  C   UNL     1       8.631   6.620  11.774  0.00  0.00    +0.000 C 
ENDBRANCH   7  11
ENDBRANCH   1   5
BRANCH   2  13
ATOM     13  C   UNL     1       5.418   4.585  18.643  0.00  0.00    +0.000 C 
ATOM     14  O   UNL     1       5.961   4.981  19.675  0.00  0.00    +0.000 OA
BRANCH  13  15
ATOM     15  C   UNL     1       4.041   4.036  18.679  0.00  0.00    +0.000 A 
ATOM     16  C   UNL     1       3.848   2.727  19.174  0.00  0.00    +0.000 A 
ATOM     17  C   UNL     1       2.583   2.140  19.214  0.00  0.00    +0.000 A 
ATOM     18  C   UNL     1       1.485   2.825  18.717  0.00  0.00    +0.000 A 
ATOM     19  C   UNL     1       1.654   4.114  18.216  0.00  0.00    +0.000 A 
ATOM     20  C   UNL     1       2.915   4.734  18.195  0.00  0.00    +0.000 A 
BRANCH  16  21
ATOM     21  O   UNL     1       4.850   1.914  19.642  0.00  0.00    +0.000 OA
ATOM     22  H   UNL     1       4.606   0.978  19.525  0.00  0.00    +0.000 HD
ENDBRANCH  16  21
BRANCH  20  23
ATOM     23  O   UNL     1       2.829   6.055  17.839  0.00  0.00    +0.000 OA
ATOM     24  C   UNL     1       2.582   7.010  18.860  0.00  0.00    +0.000 C 
ENDBRANCH  20  23
ENDBRANCH  13  15
ENDBRANCH   2  13
TORSDOF 7
ENDMDL
MODEL 3
REMARK VINA RESULT:      -6.8      5.760      7.732
REMARK  Name = 
REMARK  10 active torsions:
REMARK  status: ('A' for Active; 'I' for Inactive)
REMARK    1  A    between atoms: C_1  and  O_2
REMARK    2  A    between atoms: O_2  and  C_3
REMARK    3  A    between atoms: C_5  and  C_6
REMARK    4  A    between atoms: C_7  and  C_8
REMARK    5  A    between atoms: C_8  and  C_10
REMARK    6  A    between atoms: C_11  and  O_12
REMARK    7  A    between atoms: C_16  and  O_17
REMARK    8  A    between atoms: O_17  and  C_18
REMARK    9  A    between atoms: C_20  and  O_21
REMARK   10  A    between atoms: O_21  and  C_22
REMARK                            x       y       z     vdW  Elec       q    Type
REMARK                         _______ _______ _______ _____ _____    ______ ____
ROOT
ATOM      1  C   UNL     1       8.535   8.797  18.369  0.00  0.00    +0.000 C 
ATOM      2  C   UNL     1       7.768   7.988  17.622  0.00  0.00    +0.000 C 
ENDROOT
BRANCH   1   5
ATOM      3  C   UNL     1       8.168  12.459  17.521  0.00  0.00    +0.000 A 
ATOM      4  C   UNL     1       7.878  11.104  17.716  0.00  0.00    +0.000 A 
ATOM      5  C   UNL     1       8.890  10.190  18.048  0.00  0.00    +0.000 A 
ATOM      6  C   UNL     1      10.197  10.662  18.186  0.00  0.00    +0.000 A 
ATOM      7  C   UNL     1      10.491  12.019  18.028  0.00  0.00    +0.000 A 
ATOM      8  C   UNL     1       9.475  12.917  17.697  0.00  0.00    +0.000 A 
BRANCH   3  10
ATOM      9  C   UNL     1       7.147  14.595  17.686  0.00  0.00    +0.000 C 
ATOM     10  O   UNL     1       7.089  13.248  17.224  0.00  0.00    +0.000 OA
ENDBRANCH   3  10
BRANCH   7  11
ATOM     11  O   UNL     1      11.803  12.333  18.255  0.00  0.00    +0.000 OA
ATOM     12  C   UNL     1      12.333  12.011  19.534  0.00  0.00    +0.000 C 
ENDBRANCH   7  11
ENDBRANCH   1   5
BRANCH   2  13
ATOM     13  C   UNL     1       7.524   6.610  18.129  0.00  0.00    +0.000 C 
ATOM     14  O   UNL     1       8.070   6.220  19.162  0.00  0.00    +0.000 OA
BRANCH  13  15
ATOM     15  C   UNL     1       6.507   5.770  17.451  0.00  0.00    +0.000 A 
ATOM     16  C   UNL     1       5.343   5.409  18.164  0.00  0.00    +0.000 A 
ATOM     17  C   UNL     1       4.358   4.602  17.594  0.00  0.00    +0.000 A 
ATOM     18  C   UNL     1       4.530   4.096  16.315  0.00  0.00    +0.000 A 
ATOM     19  C   UNL     1       5.675   4.433  15.596  0.00  0.00    +0.000 A 
ATOM     20  C   UNL     1       6.665   5.269  16.141  0.00  0.00    +0.000 A 
BRANCH  16  21
ATOM     21  O   UNL     1       5.069   5.787  19.455  0.00  0.00    +0.000 OA
ATOM     22  H   UNL     1       4.233   5.387  19.752  0.00  0.00    +0.000 HD
ENDBRANCH  16  21
BRANCH  20  23
ATOM     23  O   UNL     1       7.605   5.621  15.209  0.00  0.00    +0.000 OA
ATOM     24  C   UNL     1       7.433   5.166  13.875  0.00  0.00    +0.000 C 
ENDBRANCH  20  23
ENDBRANCH  13  15
ENDBRANCH   2  13
TORSDOF 7
ENDMDL
MODEL 4
REMARK VINA RESULT:      -6.7      3.244      7.940
REMARK  Name = 
REMARK  10 active torsions:
REMARK  status: ('A' for Active; 'I' for Inactive)
REMARK    1  A    between atoms: C_1  and  O_2
REMARK    2  A    between atoms: O_2  and  C_3
REMARK    3  A    between atoms: C_5  and  C_6
REMARK    4  A    between atoms: C_7  and  C_8
REMARK    5  A    between atoms: C_8  and  C_10
REMARK    6  A    between atoms: C_11  and  O_12
REMARK    7  A    between atoms: C_16  and  O_17
REMARK    8  A    between atoms: O_17  and  C_18
REMARK    9  A    between atoms: C_20  and  O_21
REMARK   10  A    between atoms: O_21  and  C_22
REMARK                            x       y       z     vdW  Elec       q    Type
REMARK                         _______ _______ _______ _____ _____    ______ ____
ROOT
ATOM      1  C   UNL     1       2.757   6.340  19.594  0.00  0.00    +0.000 C 
ATOM      2  C   UNL     1       2.477   5.113  20.061  0.00  0.00    +0.000 C 
ENDROOT
BRANCH   1   5
ATOM      3  C   UNL     1       0.722   8.957  21.404  0.00  0.00    +0.000 A 
ATOM      4  C   UNL     1       1.377   7.758  21.098  0.00  0.00    +0.000 A 
ATOM      5  C   UNL     1       1.969   7.559  19.842  0.00  0.00    +0.000 A 
ATOM      6  C   UNL     1       1.896   8.587  18.899  0.00  0.00    +0.000 A 
ATOM      7  C   UNL     1       1.274   9.800  19.206  0.00  0.00    +0.000 A 
ATOM      8  C   UNL     1       0.689   9.985  20.459  0.00  0.00    +0.000 A 
BRANCH   3  10
ATOM      9  C   UNL     1      -0.631  10.152  22.945  0.00  0.00    +0.000 C 
ATOM     10  O   UNL     1       0.208   9.033  22.670  0.00  0.00    +0.000 OA
ENDBRANCH   3  10
BRANCH   7  11
ATOM     11  O   UNL     1       1.338  10.727  18.201  0.00  0.00    +0.000 OA
ATOM     12  C   UNL     1       1.789  12.030  18.551  0.00  0.00    +0.000 C 
ENDBRANCH   7  11
ENDBRANCH   1   5
BRANCH   2  13
ATOM     13  C   UNL     1       3.410   4.010  19.698  0.00  0.00    +0.000 C 
ATOM     14  O   UNL     1       3.366   2.935  20.295  0.00  0.00    +0.000 OA
BRANCH  13  15
ATOM     15  C   UNL     1       4.290   4.181  18.517  0.00  0.00    +0.000 A 
ATOM     16  C   UNL     1       3.771   3.881  17.238  0.00  0.00    +0.000 A 
ATOM     17  C   UNL     1       4.551   3.997  16.087  0.00  0.00    +0.000 A 
ATOM     18  C   UNL     1       5.882   4.371  16.186  0.00  0.00    +0.000 A 
ATOM     19  C   UNL     1       6.418   4.663  17.439  0.00  0.00    +0.000 A 
ATOM     20  C   UNL     1       5.640   4.581  18.607  0.00  0.00    +0.000 A 
BRANCH  16  21
ATOM     21  O   UNL     1       2.491   3.445  16.997  0.00  0.00    +0.000 OA
ATOM     22  H   UNL     1       2.040   3.247  17.836  0.00  0.00    +0.000 HD
ENDBRANCH  16  21
BRANCH  20  23
ATOM     23  O   UNL     1       6.300   5.086  19.697  0.00  0.00    +0.000 OA
ATOM     24  C   UNL     1       7.558   5.711  19.490  0.00  0.00    +0.000 C 
ENDBRANCH  20  23
ENDBRANCH  13  15
ENDBRANCH   2  13
TORSDOF 7
ENDMDL
MODEL 5
REMARK VINA RESULT:      -6.7      5.744      7.370
REMARK  Name = 
REMARK  10 active torsions:
REMARK  status: ('A' for Active; 'I' for Inactive)
REMARK    1  A    between atoms: C_1  and  O_2
REMARK    2  A    between atoms: O_2  and  C_3
REMARK    3  A    between atoms: C_5  and  C_6
REMARK    4  A    between atoms: C_7  and  C_8
REMARK    5  A    between atoms: C_8  and  C_10
REMARK    6  A    between atoms: C_11  and  O_12
REMARK    7  A    between atoms: C_16  and  O_17
REMARK    8  A    between atoms: O_17  and  C_18
REMARK    9  A    between atoms: C_20  and  O_21
REMARK   10  A    between atoms: O_21  and  C_22
REMARK                            x       y       z     vdW  Elec       q    Type
REMARK                         _______ _______ _______ _____ _____    ______ ____
ROOT
ATOM      1  C   UNL     1       8.648   8.797  18.385  0.00  0.00    +0.000 C 
ATOM      2  C   UNL     1       7.675   8.108  17.768  0.00  0.00    +0.000 C 
ENDROOT
BRANCH   1   5
ATOM      3  C   UNL     1      10.600  12.008  17.992  0.00  0.00    +0.000 A 
ATOM      4  C   UNL     1      10.271  10.678  18.281  0.00  0.00    +0.000 A 
ATOM      5  C   UNL     1       8.944  10.228  18.198  0.00  0.00    +0.000 A 
ATOM      6  C   UNL     1       7.955  11.135  17.813  0.00  0.00    +0.000 A 
ATOM      7  C   UNL     1       8.278  12.456  17.489  0.00  0.00    +0.000 A 
ATOM      8  C   UNL     1       9.601  12.890  17.577  0.00  0.00    +0.000 A 
BRANCH   3  10
ATOM      9  C   UNL     1      12.328  13.577  17.566  0.00  0.00    +0.000 C 
ATOM     10  O   UNL     1      11.931  12.312  18.089  0.00  0.00    +0.000 OA
ENDBRANCH   3  10
BRANCH   7  11
ATOM     11  O   UNL     1       7.209  13.203  17.073  0.00  0.00    +0.000 OA
ATOM     12  C   UNL     1       6.994  14.445  17.731  0.00  0.00    +0.000 C 
ENDBRANCH   7  11
ENDBRANCH   1   5
BRANCH   2  13
ATOM     13  C   UNL     1       7.537   6.664  18.102  0.00  0.00    +0.000 C 
ATOM     14  O   UNL     1       8.212   6.165  19.003  0.00  0.00    +0.000 OA
BRANCH  13  15
ATOM     15  C   UNL     1       6.476   5.876  17.431  0.00  0.00    +0.000 A 
ATOM     16  C   UNL     1       6.649   5.528  16.073  0.00  0.00    +0.000 A 
ATOM     17  C   UNL     1       5.679   4.808  15.374  0.00  0.00    +0.000 A 
ATOM     18  C   UNL     1       4.492   4.457  15.998  0.00  0.00    +0.000 A 
ATOM     19  C   UNL     1       4.296   4.798  17.334  0.00  0.00    +0.000 A 
ATOM     20  C   UNL     1       5.273   5.497  18.064  0.00  0.00    +0.000 A 
BRANCH  16  21
ATOM     21  O   UNL     1       7.744   5.859  15.315  0.00  0.00    +0.000 OA
ATOM     22  H   UNL     1       8.298   6.504  15.789  0.00  0.00    +0.000 HD
ENDBRANCH  16  21
BRANCH  20  23
ATOM     23  O   UNL     1       4.963   5.565  19.397  0.00  0.00    +0.000 OA
ATOM     24  C   UNL     1       3.595   5.511  19.772  0.00  0.00    +0.000 C 
ENDBRANCH  20  23
ENDBRANCH  13  15
ENDBRANCH   2  13
TORSDOF 7
ENDMDL
MODEL 6
REMARK VINA RESULT:      -6.6      3.903      8.243
REMARK  Name = 
REMARK  10 active torsions:
REMARK  status: ('A' for Active; 'I' for Inactive)
REMARK    1  A    between atoms: C_1  and  O_2
REMARK    2  A    between atoms: O_2  and  C_3
REMARK    3  A    between atoms: C_5  and  C_6
REMARK    4  A    between atoms: C_7  and  C_8
REMARK    5  A    between atoms: C_8  and  C_10
REMARK    6  A    between atoms: C_11  and  O_12
REMARK    7  A    between atoms: C_16  and  O_17
REMARK    8  A    between atoms: O_17  and  C_18
REMARK    9  A    between atoms: C_20  and  O_21
REMARK   10  A    between atoms: O_21  and  C_22
REMARK                            x       y       z     vdW  Elec       q    Type
REMARK                         _______ _______ _______ _____ _____    ______ ____
ROOT
ATOM      1  C   UNL     1       2.195   8.055  18.366  0.00  0.00    +0.000 C 
ATOM      2  C   UNL     1       2.634   6.882  18.848  0.00  0.00    +0.000 C 
ENDROOT
BRANCH   1   5
ATOM      3  C   UNL     1       0.745   9.981  21.274  0.00  0.00    +0.000 A 
ATOM      4  C   UNL     1       1.350   8.971  20.517  0.00  0.00    +0.000 A 
ATOM      5  C   UNL     1       1.443   9.071  19.121  0.00  0.00    +0.000 A 
ATOM      6  C   UNL     1       0.921  10.208  18.498  0.00  0.00    +0.000 A 
ATOM      7  C   UNL     1       0.346  11.238  19.247  0.00  0.00    +0.000 A 
ATOM      8  C   UNL     1       0.259  11.124  20.635  0.00  0.00    +0.000 A 
BRANCH   3  10
ATOM      9  C   UNL     1      -0.521   9.897  23.280  0.00  0.00    +0.000 C 
ATOM     10  O   UNL     1       0.740   9.771  22.627  0.00  0.00    +0.000 OA
ENDBRANCH   3  10
BRANCH   7  11
ATOM     11  O   UNL     1      -0.063  12.308  18.498  0.00  0.00    +0.000 OA
ATOM     12  C   UNL     1      -1.400  12.285  18.014  0.00  0.00    +0.000 C 
ENDBRANCH   7  11
ENDBRANCH   1   5
BRANCH   2  13
ATOM     13  C   UNL     1       3.384   5.994  17.918  0.00  0.00    +0.000 C 
ATOM     14  O   UNL     1       4.055   6.473  17.004  0.00  0.00    +0.000 OA
BRANCH  13  15
ATOM     15  C   UNL     1       3.422   4.538  18.199  0.00  0.00    +0.000 A 
ATOM     16  C   UNL     1       2.319   3.746  17.812  0.00  0.00    +0.000 A 
ATOM     17  C   UNL     1       2.279   2.374  18.066  0.00  0.00    +0.000 A 
ATOM     18  C   UNL     1       3.317   1.766  18.755  0.00  0.00    +0.000 A 
ATOM     19  C   UNL     1       4.411   2.531  19.154  0.00  0.00    +0.000 A 
ATOM     20  C   UNL     1       4.485   3.908  18.881  0.00  0.00    +0.000 A 
BRANCH  16  21
ATOM     21  O   UNL     1       1.199   4.223  17.177  0.00  0.00    +0.000 OA
ATOM     22  H   UNL     1       1.167   3.895  16.261  0.00  0.00    +0.000 HD
ENDBRANCH  16  21
BRANCH  20  23
ATOM     23  O   UNL     1       5.715   4.426  19.190  0.00  0.00    +0.000 OA
ATOM     24  C   UNL     1       6.663   4.575  18.144  0.00  0.00    +0.000 C 
ENDBRANCH  20  23
ENDBRANCH  13  15
ENDBRANCH   2  13
TORSDOF 7
ENDMDL
MODEL 7
REMARK VINA RESULT:      -6.6      3.976      8.346
REMARK  Name = 
REMARK  10 active torsions:
REMARK  status: ('A' for Active; 'I' for Inactive)
REMARK    1  A    between atoms: C_1  and  O_2
REMARK    2  A    between atoms: O_2  and  C_3
REMARK    3  A    between atoms: C_5  and  C_6
REMARK    4  A    between atoms: C_7  and  C_8
REMARK    5  A    between atoms: C_8  and  C_10
REMARK    6  A    between atoms: C_11  and  O_12
REMARK    7  A    between atoms: C_16  and  O_17
REMARK    8  A    between atoms: O_17  and  C_18
REMARK    9  A    between atoms: C_20  and  O_21
REMARK   10  A    between atoms: O_21  and  C_22
REMARK                            x       y       z     vdW  Elec       q    Type
REMARK                         _______ _______ _______ _____ _____    ______ ____
ROOT
ATOM      1  C   UNL     1       2.222   8.135  18.480  0.00  0.00    +0.000 C 
ATOM      2  C   UNL     1       2.361   6.838  18.800  0.00  0.00    +0.000 C 
ENDROOT
BRANCH   1   5
ATOM      3  C   UNL     1      -0.206  10.976  19.025  0.00  0.00    +0.000 A 
ATOM      4  C   UNL     1       0.719  10.114  18.425  0.00  0.00    +0.000 A 
ATOM      5  C   UNL     1       1.351   9.104  19.166  0.00  0.00    +0.000 A 
ATOM      6  C   UNL     1       1.031   8.970  20.519  0.00  0.00    +0.000 A 
ATOM      7  C   UNL     1       0.083   9.803  21.120  0.00  0.00    +0.000 A 
ATOM      8  C   UNL     1      -0.536  10.805  20.371  0.00  0.00    +0.000 A 
BRANCH   3  10
ATOM      9  C   UNL     1      -2.138  11.705  17.855  0.00  0.00    +0.000 C 
ATOM     10  O   UNL     1      -0.766  11.903  18.188  0.00  0.00    +0.000 OA
ENDBRANCH   3  10
BRANCH   7  11
ATOM     11  O   UNL     1      -0.163   9.508  22.433  0.00  0.00    +0.000 OA
ATOM     12  C   UNL     1      -0.960  10.431  23.164  0.00  0.00    +0.000 C 
ENDBRANCH   7  11
ENDBRANCH   1   5
BRANCH   2  13
ATOM     13  C   UNL     1       3.303   6.026  17.981  0.00  0.00    +0.000 C 
ATOM     14  O   UNL     1       4.074   6.572  17.192  0.00  0.00    +0.000 OA
BRANCH  13  15
ATOM     15  C   UNL     1       3.393   4.568  18.236  0.00  0.00    +0.000 A 
ATOM     16  C   UNL     1       2.327   3.741  17.819  0.00  0.00    +0.000 A 
ATOM     17  C   UNL     1       2.337   2.365  18.048  0.00  0.00    +0.000 A 
ATOM     18  C   UNL     1       3.387   1.784  18.742  0.00  0.00    +0.000 A 
ATOM     19  C   UNL     1       4.445   2.583  19.171  0.00  0.00    +0.000 A 
ATOM     20  C   UNL     1       4.469   3.966  18.923  0.00  0.00    +0.000 A 
BRANCH  16  21
ATOM     21  O   UNL     1       1.199   4.186  17.175  0.00  0.00    +0.000 OA
ATOM     22  H   UNL     1       0.672   4.748  17.771  0.00  0.00    +0.000 HD
ENDBRANCH  16  21
BRANCH  20  23
ATOM     23  O   UNL     1       5.674   4.525  19.260  0.00  0.00    +0.000 OA
ATOM     24  C   UNL     1       6.669   4.633  18.254  0.00  0.00    +0.000 C 
ENDBRANCH  20  23
ENDBRANCH  13  15
ENDBRANCH   2  13
TORSDOF 7
ENDMDL
MODEL 8
REMARK VINA RESULT:      -6.6      2.971      7.665
REMARK  Name = 
REMARK  10 active torsions:
REMARK  status: ('A' for Active; 'I' for Inactive)
REMARK    1  A    between atoms: C_1  and  O_2
REMARK    2  A    between atoms: O_2  and  C_3
REMARK    3  A    between atoms: C_5  and  C_6
REMARK    4  A    between atoms: C_7  and  C_8
REMARK    5  A    between atoms: C_8  and  C_10
REMARK    6  A    between atoms: C_11  and  O_12
REMARK    7  A    between atoms: C_16  and  O_17
REMARK    8  A    between atoms: O_17  and  C_18
REMARK    9  A    between atoms: C_20  and  O_21
REMARK   10  A    between atoms: O_21  and  C_22
REMARK                            x       y       z     vdW  Elec       q    Type
REMARK                         _______ _______ _______ _____ _____    ______ ____
ROOT
ATOM      1  C   UNL     1       2.841   6.082  19.123  0.00  0.00    +0.000 C 
ATOM      2  C   UNL     1       3.758   5.417  19.843  0.00  0.00    +0.000 C 
ENDROOT
BRANCH   1   5
ATOM      3  C   UNL     1       1.411   9.574  18.932  0.00  0.00    +0.000 A 
ATOM      4  C   UNL     1       2.139   8.416  18.631  0.00  0.00    +0.000 A 
ATOM      5  C   UNL     1       2.172   7.332  19.522  0.00  0.00    +0.000 A 
ATOM      6  C   UNL     1       1.457   7.430  20.718  0.00  0.00    +0.000 A 
ATOM      7  C   UNL     1       0.700   8.567  21.012  0.00  0.00    +0.000 A 
ATOM      8  C   UNL     1       0.677   9.638  20.118  0.00  0.00    +0.000 A 
BRANCH   3  10
ATOM      9  C   UNL     1       2.115  11.755  18.315  0.00  0.00    +0.000 C 
ATOM     10  O   UNL     1       1.442  10.547  17.970  0.00  0.00    +0.000 OA
ENDBRANCH   3  10
BRANCH   7  11
ATOM     11  O   UNL     1       0.011   8.485  22.191  0.00  0.00    +0.000 OA
ATOM     12  C   UNL     1       0.009   9.641  23.021  0.00  0.00    +0.000 C 
ENDBRANCH   7  11
ENDBRANCH   1   5
BRANCH   2  13
ATOM     13  C   UNL     1       4.319   4.169  19.255  0.00  0.00    +0.000 C 
ATOM     14  O   UNL     1       4.013   3.069  19.717  0.00  0.00    +0.000 OA
BRANCH  13  15
ATOM     15  C   UNL     1       5.137   4.268  18.022  0.00  0.00    +0.000 A 
ATOM     16  C   UNL     1       4.530   3.966  16.783  0.00  0.00    +0.000 A 
ATOM     17  C   UNL     1       5.248   4.016  15.587  0.00  0.00    +0.000 A 
ATOM     18  C   UNL     1       6.600   4.322  15.601  0.00  0.00    +0.000 A 
ATOM     19  C   UNL     1       7.221   4.614  16.814  0.00  0.00    +0.000 A 
ATOM     20  C   UNL     1       6.509   4.599  18.026  0.00  0.00    +0.000 A 
BRANCH  16  21
ATOM     21  O   UNL     1       3.219   3.592  16.626  0.00  0.00    +0.000 OA
ATOM     22  H   UNL     1       2.907   3.829  15.734  0.00  0.00    +0.000 HD
ENDBRANCH  16  21
BRANCH  20  23
ATOM     23  O   UNL     1       7.255   5.093  19.063  0.00  0.00    +0.000 OA
ATOM     24  C   UNL     1       7.920   6.334  18.881  0.00  0.00    +0.000 C 
ENDBRANCH  20  23
ENDBRANCH  13  15
ENDBRANCH   2  13
TORSDOF 7
ENDMDL
MODEL 9
REMARK VINA RESULT:      -6.6      3.792      8.267
REMARK  Name = 
REMARK  10 active torsions:
REMARK  status: ('A' for Active; 'I' for Inactive)
REMARK    1  A    between atoms: C_1  and  O_2
REMARK    2  A    between atoms: O_2  and  C_3
REMARK    3  A    between atoms: C_5  and  C_6
REMARK    4  A    between atoms: C_7  and  C_8
REMARK    5  A    between atoms: C_8  and  C_10
REMARK    6  A    between atoms: C_11  and  O_12
REMARK    7  A    between atoms: C_16  and  O_17
REMARK    8  A    between atoms: O_17  and  C_18
REMARK    9  A    between atoms: C_20  and  O_21
REMARK   10  A    between atoms: O_21  and  C_22
REMARK                            x       y       z     vdW  Elec       q    Type
REMARK                         _______ _______ _______ _____ _____    ______ ____
ROOT
ATOM      1  C   UNL     1       2.195   6.793  20.182  0.00  0.00    +0.000 C 
ATOM      2  C   UNL     1       1.735   5.641  20.696  0.00  0.00    +0.000 C 
ENDROOT
BRANCH   1   5
ATOM      3  C   UNL     1       0.607   9.815  21.797  0.00  0.00    +0.000 A 
ATOM      4  C   UNL     1       1.098   8.520  21.593  0.00  0.00    +0.000 A 
ATOM      5  C   UNL     1       1.569   8.117  20.334  0.00  0.00    +0.000 A 
ATOM      6  C   UNL     1       1.544   9.039  19.285  0.00  0.00    +0.000 A 
ATOM      7  C   UNL     1       1.088  10.344  19.487  0.00  0.00    +0.000 A 
ATOM      8  C   UNL     1       0.621  10.732  20.743  0.00  0.00    +0.000 A 
BRANCH   3  10
ATOM      9  C   UNL     1      -1.086  10.690  23.212  0.00  0.00    +0.000 C 
ATOM     10  O   UNL     1       0.199  10.089  23.075  0.00  0.00    +0.000 OA
ENDBRANCH   3  10
BRANCH   7  11
ATOM     11  O   UNL     1       1.182  11.143  18.380  0.00  0.00    +0.000 OA
ATOM     12  C   UNL     1       1.164  12.549  18.593  0.00  0.00    +0.000 C 
ENDBRANCH   7  11
ENDBRANCH   1   5
BRANCH   2  13
ATOM     13  C   UNL     1       2.523   4.406  20.430  0.00  0.00    +0.000 C 
ATOM     14  O   UNL     1       2.513   3.475  21.235  0.00  0.00    +0.000 OA
BRANCH  13  15
ATOM     15  C   UNL     1       3.200   4.262  19.118  0.00  0.00    +0.000 A 
ATOM     16  C   UNL     1       2.460   3.754  18.027  0.00  0.00    +0.000 A 
ATOM     17  C   UNL     1       3.041   3.572  16.772  0.00  0.00    +0.000 A 
ATOM     18  C   UNL     1       4.387   3.846  16.584  0.00  0.00    +0.000 A 
ATOM     19  C   UNL     1       5.138   4.340  17.649  0.00  0.00    +0.000 A 
ATOM     20  C   UNL     1       4.564   4.560  18.913  0.00  0.00    +0.000 A 
BRANCH  16  21
ATOM     21  O   UNL     1       1.139   3.386  18.084  0.00  0.00    +0.000 OA
ATOM     22  H   UNL     1       0.791   3.518  18.983  0.00  0.00    +0.000 HD
ENDBRANCH  16  21
BRANCH  20  23
ATOM     23  O   UNL     1       5.421   5.217  19.756  0.00  0.00    +0.000 OA
ATOM     24  C   UNL     1       6.712   5.555  19.272  0.00  0.00    +0.000 C 
ENDBRANCH  20  23
ENDBRANCH  13  15
ENDBRANCH   2  13
TORSDOF 7
ENDMDL
