MODEL 1
REMARK VINA RESULT:      -7.9      0.000      0.000
REMARK  Name = 
REMARK  14 active torsions:
REMARK  status: ('A' for Active; 'I' for Inactive)
REMARK    1  A    between atoms: C_1  and  O_2
REMARK    2  A    between atoms: O_2  and  C_3
REMARK    3  A    between atoms: C_7  and  O_8
REMARK    4  A    between atoms: O_8  and  C_9
REMARK    5  A    between atoms: C_9  and  C_10
REMARK    6  A    between atoms: N_12  and  C_13
REMARK    7  A    between atoms: C_17  and  S_18
REMARK    8  A    between atoms: S_18  and  N_21
REMARK    9  A    between atoms: C_22  and  C_24
REMARK   10  A    between atoms: C_24  and  N_25
REMARK   11  A    between atoms: C_24  and  C_26
REMARK   12  A    between atoms: C_26  and  C_27
REMARK   13  A    between atoms: C_27  and  C_28
REMARK   14  A    between atoms: C_27  and  C_29
REMARK                            x       y       z     vdW  Elec       q    Type
REMARK                         _______ _______ _______ _____ _____    ______ ____
ROOT
ATOM      1  C   UNL     1       1.751   8.011  20.331  0.00  0.00    +0.000 A 
ATOM      2  C   UNL     1       1.802   8.701  19.117  0.00  0.00    +0.000 A 
ATOM      3  C   UNL     1       2.173   8.062  17.931  0.00  0.00    +0.000 A 
ATOM      4  C   UNL     1       2.502   6.714  17.951  0.00  0.00    +0.000 A 
ATOM      5  C   UNL     1       2.454   6.009  19.158  0.00  0.00    +0.000 A 
ATOM      6  C   UNL     1       2.108   6.653  20.356  0.00  0.00    +0.000 A 
ENDROOT
BRANCH   1   9
ATOM      7  C   UNL     1       0.074   8.680  22.046  0.00  0.00    +0.000 C 
ATOM      8  O   UNL     1      -0.903   8.094  21.579  0.00  0.00    +0.000 OA
ATOM      9  N   UNL     1       1.369   8.648  21.536  0.00  0.00    +0.000 N 
ATOM     10  H   UNL     1       2.112   8.994  22.133  0.00  0.00    +0.000 HD
BRANCH   7  11
ATOM     11  C   UNL     1      -0.077   9.512  23.304  0.00  0.00    +0.000 C 
BRANCH  11  12
ATOM     12  O   UNL     1       0.083  10.874  22.934  0.00  0.00    +0.000 OA
BRANCH  12  17
ATOM     13  C   UNL     1      -3.246  12.492  22.688  0.00  0.00    +0.000 A 
ATOM     14  C   UNL     1      -3.244  12.767  21.320  0.00  0.00    +0.000 A 
ATOM     15  C   UNL     1      -2.141  12.430  20.535  0.00  0.00    +0.000 A 
ATOM     16  C   UNL     1      -1.039  11.808  21.119  0.00  0.00    +0.000 A 
ATOM     17  C   UNL     1      -1.035  11.520  22.483  0.00  0.00    +0.000 A 
ATOM     18  C   UNL     1      -2.136  11.874  23.267  0.00  0.00    +0.000 A 
BRANCH  13  20
ATOM     19  C   UNL     1      -4.509  12.386  24.696  0.00  0.00    +0.000 C 
ATOM     20  O   UNL     1      -4.385  12.854  23.357  0.00  0.00    +0.000 OA
ENDBRANCH  13  20
ENDBRANCH  12  17
ENDBRANCH  11  12
ENDBRANCH   7  11
ENDBRANCH   1   9
BRANCH   5  21
ATOM     21  S   UNL     1       2.918   4.294  19.152  0.00  0.00    +0.000 S 
ATOM     22  O   UNL     1       3.412   3.969  20.478  0.00  0.00    +0.000 OA
ATOM     23  O   UNL     1       1.860   3.521  18.556  0.00  0.00    +0.000 OA
BRANCH  21  24
ATOM     24  N   UNL     1       4.266   4.267  18.176  0.00  0.00    +0.000 N 
ATOM     25  C   UNL     1       5.494   4.860  18.503  0.00  0.00    +0.000 C 
ATOM     26  O   UNL     1       5.696   5.412  19.576  0.00  0.00    +0.000 OA
ATOM     27  H   UNL     1       4.102   3.834  17.276  0.00  0.00    +0.000 HD
BRANCH  25  28
ATOM     28  C   UNL     1       6.578   4.771  17.410  0.00  0.00    +0.000 C 
BRANCH  28  29
ATOM     29  N   UNL     1       7.778   4.096  17.956  0.00  0.00    +0.000 NA
ATOM     30  H   UNL     1       8.494   4.805  18.140  0.00  0.00    +0.000 HD
ATOM     31  H   UNL     1       8.189   3.484  17.249  0.00  0.00    +0.000 HD
ENDBRANCH  28  29
BRANCH  28  32
ATOM     32  C   UNL     1       6.049   3.965  16.212  0.00  0.00    +0.000 C 
BRANCH  32  33
ATOM     33  C   UNL     1       5.749   4.788  14.939  0.00  0.00    +0.000 C 
ATOM     34  C   UNL     1       5.307   6.220  15.238  0.00  0.00    +0.000 C 
ATOM     35  C   UNL     1       6.993   4.819  14.047  0.00  0.00    +0.000 C 
ENDBRANCH  32  33
ENDBRANCH  28  32
ENDBRANCH  25  28
ENDBRANCH  21  24
ENDBRANCH   5  21
TORSDOF 11
ENDMDL
MODEL 2
REMARK VINA RESULT:      -7.8      2.490      4.008
REMARK  Name = 
REMARK  14 active torsions:
REMARK  status: ('A' for Active; 'I' for Inactive)
REMARK    1  A    between atoms: C_1  and  O_2
REMARK    2  A    between atoms: O_2  and  C_3
REMARK    3  A    between atoms: C_7  and  O_8
REMARK    4  A    between atoms: O_8  and  C_9
REMARK    5  A    between atoms: C_9  and  C_10
REMARK    6  A    between atoms: N_12  and  C_13
REMARK    7  A    between atoms: C_17  and  S_18
REMARK    8  A    between atoms: S_18  and  N_21
REMARK    9  A    between atoms: C_22  and  C_24
REMARK   10  A    between atoms: C_24  and  N_25
REMARK   11  A    between atoms: C_24  and  C_26
REMARK   12  A    between atoms: C_26  and  C_27
REMARK   13  A    between atoms: C_27  and  C_28
REMARK   14  A    between atoms: C_27  and  C_29
REMARK                            x       y       z     vdW  Elec       q    Type
REMARK                         _______ _______ _______ _____ _____    ______ ____
ROOT
ATOM      1  C   UNL     1       3.281   5.394  19.215  0.00  0.00    +0.000 A 
ATOM      2  C   UNL     1       2.644   4.424  18.437  0.00  0.00    +0.000 A 
ATOM      3  C   UNL     1       3.337   3.699  17.465  0.00  0.00    +0.000 A 
ATOM      4  C   UNL     1       4.688   3.944  17.259  0.00  0.00    +0.000 A 
ATOM      5  C   UNL     1       5.340   4.910  18.031  0.00  0.00    +0.000 A 
ATOM      6  C   UNL     1       4.641   5.658  18.990  0.00  0.00    +0.000 A 
ENDROOT
BRANCH   1   9
ATOM      7  C   UNL     1       2.090   7.416  20.048  0.00  0.00    +0.000 C 
ATOM      8  O   UNL     1       2.098   8.071  19.005  0.00  0.00    +0.000 OA
ATOM      9  N   UNL     1       2.589   6.127  20.209  0.00  0.00    +0.000 N 
ATOM     10  H   UNL     1       2.326   5.629  21.053  0.00  0.00    +0.000 HD
BRANCH   7  11
ATOM     11  C   UNL     1       1.474   8.004  21.303  0.00  0.00    +0.000 C 
BRANCH  11  12
ATOM     12  O   UNL     1       0.111   8.284  21.015  0.00  0.00    +0.000 OA
BRANCH  12  17
ATOM     13  C   UNL     1      -0.855  11.846  20.635  0.00  0.00    +0.000 A 
ATOM     14  C   UNL     1      -1.118  12.134  21.975  0.00  0.00    +0.000 A 
ATOM     15  C   UNL     1      -0.989  11.143  22.948  0.00  0.00    +0.000 A 
ATOM     16  C   UNL     1      -0.586   9.860  22.581  0.00  0.00    +0.000 A 
ATOM     17  C   UNL     1      -0.312   9.563  21.247  0.00  0.00    +0.000 A 
ATOM     18  C   UNL     1      -0.458  10.556  20.275  0.00  0.00    +0.000 A 
BRANCH  13  20
ATOM     19  C   UNL     1      -0.855  12.601  18.384  0.00  0.00    +0.000 C 
ATOM     20  O   UNL     1      -1.001  12.897  19.769  0.00  0.00    +0.000 OA
ENDBRANCH  13  20
ENDBRANCH  12  17
ENDBRANCH  11  12
ENDBRANCH   7  11
ENDBRANCH   1   9
BRANCH   5  21
ATOM     21  S   UNL     1       7.061   5.222  17.714  0.00  0.00    +0.000 S 
ATOM     22  O   UNL     1       7.289   6.644  17.892  0.00  0.00    +0.000 OA
ATOM     23  O   UNL     1       7.855   4.258  18.431  0.00  0.00    +0.000 OA
BRANCH  21  24
ATOM     24  N   UNL     1       7.198   4.970  16.074  0.00  0.00    +0.000 N 
ATOM     25  C   UNL     1       6.439   5.639  15.103  0.00  0.00    +0.000 C 
ATOM     26  O   UNL     1       5.636   6.519  15.383  0.00  0.00    +0.000 OA
ATOM     27  H   UNL     1       7.842   4.228  15.835  0.00  0.00    +0.000 HD
BRANCH  25  28
ATOM     28  C   UNL     1       6.687   5.187  13.649  0.00  0.00    +0.000 C 
BRANCH  28  29
ATOM     29  N   UNL     1       8.133   5.275  13.343  0.00  0.00    +0.000 NA
ATOM     30  H   UNL     1       8.295   4.867  12.418  0.00  0.00    +0.000 HD
ATOM     31  H   UNL     1       8.665   4.687  13.987  0.00  0.00    +0.000 HD
ENDBRANCH  28  29
BRANCH  28  32
ATOM     32  C   UNL     1       6.223   3.733  13.468  0.00  0.00    +0.000 C 
BRANCH  32  33
ATOM     33  C   UNL     1       5.896   3.318  12.015  0.00  0.00    +0.000 C 
ATOM     34  C   UNL     1       6.420   1.928  11.654  0.00  0.00    +0.000 C 
ATOM     35  C   UNL     1       4.380   3.358  11.803  0.00  0.00    +0.000 C 
ENDBRANCH  32  33
ENDBRANCH  28  32
ENDBRANCH  25  28
ENDBRANCH  21  24
ENDBRANCH   5  21
TORSDOF 11
ENDMDL
MODEL 3
REMARK VINA RESULT:      -7.7      1.569      2.025
REMARK  Name = 
REMARK  14 active torsions:
REMARK  status: ('A' for Active; 'I' for Inactive)
REMARK    1  A    between atoms: C_1  and  O_2
REMARK    2  A    between atoms: O_2  and  C_3
REMARK    3  A    between atoms: C_7  and  O_8
REMARK    4  A    between atoms: O_8  and  C_9
REMARK    5  A    between atoms: C_9  and  C_10
REMARK    6  A    between atoms: N_12  and  C_13
REMARK    7  A    between atoms: C_17  and  S_18
REMARK    8  A    between atoms: S_18  and  N_21
REMARK    9  A    between atoms: C_22  and  C_24
REMARK   10  A    between atoms: C_24  and  N_25
REMARK   11  A    between atoms: C_24  and  C_26
REMARK   12  A    between atoms: C_26  and  C_27
REMARK   13  A    between atoms: C_27  and  C_28
REMARK   14  A    between atoms: C_27  and  C_29
REMARK                            x       y       z     vdW  Elec       q    Type
REMARK                         _______ _______ _______ _____ _____    ______ ____
ROOT
ATOM      1  C   UNL     1       1.260   9.219  20.170  0.00  0.00    +0.000 A 
ATOM      2  C   UNL     1       1.230   9.999  19.012  0.00  0.00    +0.000 A 
ATOM      3  C   UNL     1       1.701   9.511  17.792  0.00  0.00    +0.000 A 
ATOM      4  C   UNL     1       2.214   8.223  17.719  0.00  0.00    +0.000 A 
ATOM      5  C   UNL     1       2.249   7.428  18.869  0.00  0.00    +0.000 A 
ATOM      6  C   UNL     1       1.801   7.925  20.103  0.00  0.00    +0.000 A 
ENDROOT
BRANCH   1   9
ATOM      7  C   UNL     1      -0.296   9.164  22.114  0.00  0.00    +0.000 C 
ATOM      8  O   UNL     1      -0.922   8.147  21.814  0.00  0.00    +0.000 OA
ATOM      9  N   UNL     1       0.776   9.703  21.409  0.00  0.00    +0.000 N 
ATOM     10  H   UNL     1       1.331  10.411  21.878  0.00  0.00    +0.000 HD
BRANCH   7  11
ATOM     11  C   UNL     1      -0.666   9.933  23.367  0.00  0.00    +0.000 C 
BRANCH  11  12
ATOM     12  O   UNL     1      -0.524  11.316  23.073  0.00  0.00    +0.000 OA
BRANCH  12  17
ATOM     13  C   UNL     1      -3.803  13.051  23.048  0.00  0.00    +0.000 A 
ATOM     14  C   UNL     1      -3.927  13.242  21.671  0.00  0.00    +0.000 A 
ATOM     15  C   UNL     1      -2.920  12.814  20.806  0.00  0.00    +0.000 A 
ATOM     16  C   UNL     1      -1.788  12.183  21.319  0.00  0.00    +0.000 A 
ATOM     17  C   UNL     1      -1.658  11.979  22.692  0.00  0.00    +0.000 A 
ATOM     18  C   UNL     1      -2.663  12.424  23.555  0.00  0.00    +0.000 A 
BRANCH  13  20
ATOM     19  C   UNL     1      -5.782  12.513  24.245  0.00  0.00    +0.000 C 
ATOM     20  O   UNL     1      -4.857  13.500  23.799  0.00  0.00    +0.000 OA
ENDBRANCH  13  20
ENDBRANCH  12  17
ENDBRANCH  11  12
ENDBRANCH   7  11
ENDBRANCH   1   9
BRANCH   5  21
ATOM     21  S   UNL     1       2.946   5.798  18.748  0.00  0.00    +0.000 S 
ATOM     22  O   UNL     1       3.760   5.580  19.930  0.00  0.00    +0.000 OA
ATOM     23  O   UNL     1       1.908   4.866  18.392  0.00  0.00    +0.000 OA
BRANCH  21  24
ATOM     24  N   UNL     1       4.038   5.943  17.499  0.00  0.00    +0.000 N 
ATOM     25  C   UNL     1       4.941   4.941  17.115  0.00  0.00    +0.000 C 
ATOM     26  O   UNL     1       4.966   3.837  17.642  0.00  0.00    +0.000 OA
ATOM     27  H   UNL     1       4.041   6.860  17.073  0.00  0.00    +0.000 HD
BRANCH  25  28
ATOM     28  C   UNL     1       5.908   5.329  15.978  0.00  0.00    +0.000 C 
BRANCH  28  29
ATOM     29  N   UNL     1       5.347   6.471  15.219  0.00  0.00    +0.000 NA
ATOM     30  H   UNL     1       6.043   6.777  14.532  0.00  0.00    +0.000 HD
ATOM     31  H   UNL     1       5.218   7.274  15.837  0.00  0.00    +0.000 HD
ENDBRANCH  28  29
BRANCH  28  32
ATOM     32  C   UNL     1       7.269   5.736  16.564  0.00  0.00    +0.000 C 
BRANCH  32  33
ATOM     33  C   UNL     1       7.209   6.576  17.860  0.00  0.00    +0.000 C 
ATOM     34  C   UNL     1       7.910   5.909  19.043  0.00  0.00    +0.000 C 
ATOM     35  C   UNL     1       7.838   7.949  17.608  0.00  0.00    +0.000 C 
ENDBRANCH  32  33
ENDBRANCH  28  32
ENDBRANCH  25  28
ENDBRANCH  21  24
ENDBRANCH   5  21
TORSDOF 11
ENDMDL
MODEL 4
REMARK VINA RESULT:      -7.7      2.996      4.397
REMARK  Name = 
REMARK  14 active torsions:
REMARK  status: ('A' for Active; 'I' for Inactive)
REMARK    1  A    between atoms: C_1  and  O_2
REMARK    2  A    between atoms: O_2  and  C_3
REMARK    3  A    between atoms: C_7  and  O_8
REMARK    4  A    between atoms: O_8  and  C_9
REMARK    5  A    between atoms: C_9  and  C_10
REMARK    6  A    between atoms: N_12  and  C_13
REMARK    7  A    between atoms: C_17  and  S_18
REMARK    8  A    between atoms: S_18  and  N_21
REMARK    9  A    between atoms: C_22  and  C_24
REMARK   10  A    between atoms: C_24  and  N_25
REMARK   11  A    between atoms: C_24  and  C_26
REMARK   12  A    between atoms: C_26  and  C_27
REMARK   13  A    between atoms: C_27  and  C_28
REMARK   14  A    between atoms: C_27  and  C_29
REMARK                            x       y       z     vdW  Elec       q    Type
REMARK                         _______ _______ _______ _____ _____    ______ ____
ROOT
ATOM      1  C   UNL     1       3.176   5.949  18.493  0.00  0.00    +0.000 A 
ATOM      2  C   UNL     1       2.620   4.721  18.127  0.00  0.00    +0.000 A 
ATOM      3  C   UNL     1       3.407   3.690  17.609  0.00  0.00    +0.000 A 
ATOM      4  C   UNL     1       4.772   3.882  17.450  0.00  0.00    +0.000 A 
ATOM      5  C   UNL     1       5.344   5.105  17.814  0.00  0.00    +0.000 A 
ATOM      6  C   UNL     1       4.553   6.152  18.310  0.00  0.00    +0.000 A 
ENDROOT
BRANCH   1   9
ATOM      7  C   UNL     1       2.142   8.212  18.396  0.00  0.00    +0.000 C 
ATOM      8  O   UNL     1       2.495   8.522  17.258  0.00  0.00    +0.000 OA
ATOM      9  N   UNL     1       2.388   6.996  19.027  0.00  0.00    +0.000 N 
ATOM     10  H   UNL     1       1.860   6.796  19.871  0.00  0.00    +0.000 HD
BRANCH   7  11
ATOM     11  C   UNL     1       1.343   9.194  19.230  0.00  0.00    +0.000 C 
BRANCH  11  12
ATOM     12  O   UNL     1       0.837  10.187  18.348  0.00  0.00    +0.000 OA
BRANCH  12  17
ATOM     13  C   UNL     1      -2.605  11.571  18.384  0.00  0.00    +0.000 A 
ATOM     14  C   UNL     1      -2.583  12.149  19.655  0.00  0.00    +0.000 A 
ATOM     15  C   UNL     1      -1.448  12.044  20.458  0.00  0.00    +0.000 A 
ATOM     16  C   UNL     1      -0.326  11.365  19.986  0.00  0.00    +0.000 A 
ATOM     17  C   UNL     1      -0.333  10.792  18.716  0.00  0.00    +0.000 A 
ATOM     18  C   UNL     1      -1.478  10.887  17.922  0.00  0.00    +0.000 A 
BRANCH  13  20
ATOM     19  C   UNL     1      -4.034  10.797  16.654  0.00  0.00    +0.000 C 
ATOM     20  O   UNL     1      -3.766  11.747  17.680  0.00  0.00    +0.000 OA
ENDBRANCH  13  20
ENDBRANCH  12  17
ENDBRANCH  11  12
ENDBRANCH   7  11
ENDBRANCH   1   9
BRANCH   5  21
ATOM     21  S   UNL     1       7.089   5.328  17.562  0.00  0.00    +0.000 S 
ATOM     22  O   UNL     1       7.380   6.740  17.730  0.00  0.00    +0.000 OA
ATOM     23  O   UNL     1       7.806   4.337  18.322  0.00  0.00    +0.000 OA
BRANCH  21  24
ATOM     24  N   UNL     1       7.278   5.045  15.932  0.00  0.00    +0.000 N 
ATOM     25  C   UNL     1       6.481   5.619  14.931  0.00  0.00    +0.000 C 
ATOM     26  O   UNL     1       5.599   6.431  15.173  0.00  0.00    +0.000 OA
ATOM     27  H   UNL     1       7.989   4.356  15.724  0.00  0.00    +0.000 HD
BRANCH  25  28
ATOM     28  C   UNL     1       6.794   5.151  13.494  0.00  0.00    +0.000 C 
BRANCH  28  29
ATOM     29  N   UNL     1       8.243   5.306  13.228  0.00  0.00    +0.000 NA
ATOM     30  H   UNL     1       8.534   6.236  13.544  0.00  0.00    +0.000 HD
ATOM     31  H   UNL     1       8.417   5.303  12.221  0.00  0.00    +0.000 HD
ENDBRANCH  28  29
BRANCH  28  32
ATOM     32  C   UNL     1       6.408   3.672  13.330  0.00  0.00    +0.000 C 
BRANCH  32  33
ATOM     33  C   UNL     1       6.005   3.247  11.900  0.00  0.00    +0.000 C 
ATOM     34  C   UNL     1       6.435   1.822  11.552  0.00  0.00    +0.000 C 
ATOM     35  C   UNL     1       4.487   3.371  11.739  0.00  0.00    +0.000 C 
ENDBRANCH  32  33
ENDBRANCH  28  32
ENDBRANCH  25  28
ENDBRANCH  21  24
ENDBRANCH   5  21
TORSDOF 11
ENDMDL
MODEL 5
REMARK VINA RESULT:      -7.5      2.934      4.081
REMARK  Name = 
REMARK  14 active torsions:
REMARK  status: ('A' for Active; 'I' for Inactive)
REMARK    1  A    between atoms: C_1  and  O_2
REMARK    2  A    between atoms: O_2  and  C_3
REMARK    3  A    between atoms: C_7  and  O_8
REMARK    4  A    between atoms: O_8  and  C_9
REMARK    5  A    between atoms: C_9  and  C_10
REMARK    6  A    between atoms: N_12  and  C_13
REMARK    7  A    between atoms: C_17  and  S_18
REMARK    8  A    between atoms: S_18  and  N_21
REMARK    9  A    between atoms: C_22  and  C_24
REMARK   10  A    between atoms: C_24  and  N_25
REMARK   11  A    between atoms: C_24  and  C_26
REMARK   12  A    between atoms: C_26  and  C_27
REMARK   13  A    between atoms: C_27  and  C_28
REMARK   14  A    between atoms: C_27  and  C_29
REMARK                            x       y       z     vdW  Elec       q    Type
REMARK                         _______ _______ _______ _____ _____    ______ ____
ROOT
ATOM      1  C   UNL     1       2.822   7.017  18.286  0.00  0.00    +0.000 A 
ATOM      2  C   UNL     1       2.198   5.842  18.713  0.00  0.00    +0.000 A 
ATOM      3  C   UNL     1       2.906   4.646  18.839  0.00  0.00    +0.000 A 
ATOM      4  C   UNL     1       4.260   4.613  18.534  0.00  0.00    +0.000 A 
ATOM      5  C   UNL     1       4.899   5.781  18.107  0.00  0.00    +0.000 A 
ATOM      6  C   UNL     1       4.185   6.979  17.953  0.00  0.00    +0.000 A 
ENDROOT
BRANCH   1   9
ATOM      7  C   UNL     1       1.471   8.895  19.206  0.00  0.00    +0.000 C 
ATOM      8  O   UNL     1       1.493   8.567  20.393  0.00  0.00    +0.000 OA
ATOM      9  N   UNL     1       2.114   8.237  18.163  0.00  0.00    +0.000 N 
ATOM     10  H   UNL     1       2.190   8.730  17.279  0.00  0.00    +0.000 HD
BRANCH   7  11
ATOM     11  C   UNL     1       0.706  10.134  18.781  0.00  0.00    +0.000 C 
BRANCH  11  12
ATOM     12  O   UNL     1      -0.192   9.746  17.752  0.00  0.00    +0.000 OA
BRANCH  12  17
ATOM     13  C   UNL     1      -3.189  11.729  18.676  0.00  0.00    +0.000 A 
ATOM     14  C   UNL     1      -4.040  11.308  17.653  0.00  0.00    +0.000 A 
ATOM     15  C   UNL     1      -3.591  10.406  16.688  0.00  0.00    +0.000 A 
ATOM     16  C   UNL     1      -2.288   9.916  16.750  0.00  0.00    +0.000 A 
ATOM     17  C   UNL     1      -1.432  10.323  17.773  0.00  0.00    +0.000 A 
ATOM     18  C   UNL     1      -1.882  11.238  18.727  0.00  0.00    +0.000 A 
BRANCH  13  20
ATOM     19  C   UNL     1      -3.158  12.627  20.873  0.00  0.00    +0.000 C 
ATOM     20  O   UNL     1      -3.739  12.604  19.574  0.00  0.00    +0.000 OA
ENDBRANCH  13  20
ENDBRANCH  12  17
ENDBRANCH  11  12
ENDBRANCH   7  11
ENDBRANCH   1   9
BRANCH   5  21
ATOM     21  S   UNL     1       6.625   5.694  17.690  0.00  0.00    +0.000 S 
ATOM     22  O   UNL     1       7.213   6.988  17.983  0.00  0.00    +0.000 OA
ATOM     23  O   UNL     1       7.185   4.491  18.249  0.00  0.00    +0.000 OA
BRANCH  21  24
ATOM     24  N   UNL     1       6.610   5.598  16.028  0.00  0.00    +0.000 N 
ATOM     25  C   UNL     1       6.247   4.455  15.303  0.00  0.00    +0.000 C 
ATOM     26  O   UNL     1       5.853   3.428  15.840  0.00  0.00    +0.000 OA
ATOM     27  H   UNL     1       6.957   6.433  15.575  0.00  0.00    +0.000 HD
BRANCH  25  28
ATOM     28  C   UNL     1       6.381   4.578  13.771  0.00  0.00    +0.000 C 
BRANCH  28  29
ATOM     29  N   UNL     1       7.605   5.343  13.441  0.00  0.00    +0.000 NA
ATOM     30  H   UNL     1       7.542   6.265  13.885  0.00  0.00    +0.000 HD
ATOM     31  H   UNL     1       7.640   5.536  12.438  0.00  0.00    +0.000 HD
ENDBRANCH  28  29
BRANCH  28  32
ATOM     32  C   UNL     1       6.478   3.179  13.140  0.00  0.00    +0.000 C 
BRANCH  32  33
ATOM     33  C   UNL     1       5.951   3.067  11.691  0.00  0.00    +0.000 C 
ATOM     34  C   UNL     1       6.200   1.696  11.065  0.00  0.00    +0.000 C 
ATOM     35  C   UNL     1       4.450   3.369  11.670  0.00  0.00    +0.000 C 
ENDBRANCH  32  33
ENDBRANCH  28  32
ENDBRANCH  25  28
ENDBRANCH  21  24
ENDBRANCH   5  21
TORSDOF 11
ENDMDL
MODEL 6
REMARK VINA RESULT:      -7.5      2.711      3.960
REMARK  Name = 
REMARK  14 active torsions:
REMARK  status: ('A' for Active; 'I' for Inactive)
REMARK    1  A    between atoms: C_1  and  O_2
REMARK    2  A    between atoms: O_2  and  C_3
REMARK    3  A    between atoms: C_7  and  O_8
REMARK    4  A    between atoms: O_8  and  C_9
REMARK    5  A    between atoms: C_9  and  C_10
REMARK    6  A    between atoms: N_12  and  C_13
REMARK    7  A    between atoms: C_17  and  S_18
REMARK    8  A    between atoms: S_18  and  N_21
REMARK    9  A    between atoms: C_22  and  C_24
REMARK   10  A    between atoms: C_24  and  N_25
REMARK   11  A    between atoms: C_24  and  C_26
REMARK   12  A    between atoms: C_26  and  C_27
REMARK   13  A    between atoms: C_27  and  C_28
REMARK   14  A    between atoms: C_27  and  C_29
REMARK                            x       y       z     vdW  Elec       q    Type
REMARK                         _______ _______ _______ _____ _____    ______ ____
ROOT
ATOM      1  C   UNL     1       2.112   6.910  19.906  0.00  0.00    +0.000 A 
ATOM      2  C   UNL     1       1.335   6.124  20.761  0.00  0.00    +0.000 A 
ATOM      3  C   UNL     1       1.705   4.817  21.085  0.00  0.00    +0.000 A 
ATOM      4  C   UNL     1       2.867   4.279  20.548  0.00  0.00    +0.000 A 
ATOM      5  C   UNL     1       3.655   5.054  19.693  0.00  0.00    +0.000 A 
ATOM      6  C   UNL     1       3.273   6.358  19.344  0.00  0.00    +0.000 A 
ENDROOT
BRANCH   1   9
ATOM      7  C   UNL     1       1.959   8.843  18.342  0.00  0.00    +0.000 C 
ATOM      8  O   UNL     1       2.407   8.294  17.335  0.00  0.00    +0.000 OA
ATOM      9  N   UNL     1       1.749   8.239  19.578  0.00  0.00    +0.000 N 
ATOM     10  H   UNL     1       1.180   8.743  20.251  0.00  0.00    +0.000 HD
BRANCH   7  11
ATOM     11  C   UNL     1       1.562  10.305  18.290  0.00  0.00    +0.000 C 
BRANCH  11  12
ATOM     12  O   UNL     1       0.632  10.530  19.340  0.00  0.00    +0.000 OA
BRANCH  12  17
ATOM     13  C   UNL     1      -2.622  10.604  17.559  0.00  0.00    +0.000 A 
ATOM     14  C   UNL     1      -3.275  11.546  18.356  0.00  0.00    +0.000 A 
ATOM     15  C   UNL     1      -2.629  12.104  19.460  0.00  0.00    +0.000 A 
ATOM     16  C   UNL     1      -1.322  11.725  19.762  0.00  0.00    +0.000 A 
ATOM     17  C   UNL     1      -0.658  10.792  18.967  0.00  0.00    +0.000 A 
ATOM     18  C   UNL     1      -1.315  10.225  17.873  0.00  0.00    +0.000 A 
BRANCH  13  20
ATOM     19  C   UNL     1      -2.844  10.443  15.200  0.00  0.00    +0.000 C 
ATOM     20  O   UNL     1      -3.347  10.133  16.496  0.00  0.00    +0.000 OA
ENDBRANCH  13  20
ENDBRANCH  12  17
ENDBRANCH  11  12
ENDBRANCH   7  11
ENDBRANCH   1   9
BRANCH   5  21
ATOM     21  S   UNL     1       5.116   4.319  18.995  0.00  0.00    +0.000 S 
ATOM     22  O   UNL     1       6.252   5.120  19.413  0.00  0.00    +0.000 OA
ATOM     23  O   UNL     1       5.092   2.900  19.238  0.00  0.00    +0.000 OA
BRANCH  21  24
ATOM     24  N   UNL     1       4.954   4.623  17.367  0.00  0.00    +0.000 N 
ATOM     25  C   UNL     1       6.018   4.635  16.453  0.00  0.00    +0.000 C 
ATOM     26  O   UNL     1       7.168   4.364  16.774  0.00  0.00    +0.000 OA
ATOM     27  H   UNL     1       4.012   4.871  17.096  0.00  0.00    +0.000 HD
BRANCH  25  28
ATOM     28  C   UNL     1       5.638   5.015  15.007  0.00  0.00    +0.000 C 
BRANCH  28  29
ATOM     29  N   UNL     1       5.464   6.482  14.911  0.00  0.00    +0.000 NA
ATOM     30  H   UNL     1       4.471   6.681  14.755  0.00  0.00    +0.000 HD
ATOM     31  H   UNL     1       5.937   6.838  14.079  0.00  0.00    +0.000 HD
ENDBRANCH  28  29
BRANCH  28  32
ATOM     32  C   UNL     1       6.752   4.577  14.042  0.00  0.00    +0.000 C 
BRANCH  32  33
ATOM     33  C   UNL     1       6.333   3.542  12.972  0.00  0.00    +0.000 C 
ATOM     34  C   UNL     1       4.875   3.684  12.536  0.00  0.00    +0.000 C 
ATOM     35  C   UNL     1       7.243   3.678  11.748  0.00  0.00    +0.000 C 
ENDBRANCH  32  33
ENDBRANCH  28  32
ENDBRANCH  25  28
ENDBRANCH  21  24
ENDBRANCH   5  21
TORSDOF 11
ENDMDL
MODEL 7
REMARK VINA RESULT:      -7.4      2.619      4.303
REMARK  Name = 
REMARK  14 active torsions:
REMARK  status: ('A' for Active; 'I' for Inactive)
REMARK    1  A    between atoms: C_1  and  O_2
REMARK    2  A    between atoms: O_2  and  C_3
REMARK    3  A    between atoms: C_7  and  O_8
REMARK    4  A    between atoms: O_8  and  C_9
REMARK    5  A    between atoms: C_9  and  C_10
REMARK    6  A    between atoms: N_12  and  C_13
REMARK    7  A    between atoms: C_17  and  S_18
REMARK    8  A    between atoms: S_18  and  N_21
REMARK    9  A    between atoms: C_22  and  C_24
REMARK   10  A    between atoms: C_24  and  N_25
REMARK   11  A    between atoms: C_24  and  C_26
REMARK   12  A    between atoms: C_26  and  C_27
REMARK   13  A    between atoms: C_27  and  C_28
REMARK   14  A    between atoms: C_27  and  C_29
REMARK                            x       y       z     vdW  Elec       q    Type
REMARK                         _______ _______ _______ _____ _____    ______ ____
ROOT
ATOM      1  C   UNL     1       3.253   5.367  18.592  0.00  0.00    +0.000 A 
ATOM      2  C   UNL     1       2.744   4.199  18.017  0.00  0.00    +0.000 A 
ATOM      3  C   UNL     1       3.557   3.335  17.281  0.00  0.00    +0.000 A 
ATOM      4  C   UNL     1       4.901   3.635  17.111  0.00  0.00    +0.000 A 
ATOM      5  C   UNL     1       5.426   4.799  17.681  0.00  0.00    +0.000 A 
ATOM      6  C   UNL     1       4.607   5.684  18.398  0.00  0.00    +0.000 A 
ENDROOT
BRANCH   1   9
ATOM      7  C   UNL     1       1.914   5.964  20.604  0.00  0.00    +0.000 C 
ATOM      8  O   UNL     1       2.147   4.962  21.279  0.00  0.00    +0.000 OA
ATOM      9  N   UNL     1       2.438   6.244  19.346  0.00  0.00    +0.000 N 
ATOM     10  H   UNL     1       2.335   7.193  19.000  0.00  0.00    +0.000 HD
BRANCH   7  11
ATOM     11  C   UNL     1       0.995   7.041  21.148  0.00  0.00    +0.000 C 
BRANCH  11  12
ATOM     12  O   UNL     1       1.561   8.297  20.801  0.00  0.00    +0.000 OA
BRANCH  12  17
ATOM     13  C   UNL     1      -0.643  11.030  19.601  0.00  0.00    +0.000 A 
ATOM     14  C   UNL     1      -0.988  11.577  20.838  0.00  0.00    +0.000 A 
ATOM     15  C   UNL     1      -0.500  11.015  22.019  0.00  0.00    +0.000 A 
ATOM     16  C   UNL     1       0.342   9.907  21.962  0.00  0.00    +0.000 A 
ATOM     17  C   UNL     1       0.700   9.357  20.731  0.00  0.00    +0.000 A 
ATOM     18  C   UNL     1       0.197   9.915  19.554  0.00  0.00    +0.000 A 
BRANCH  13  20
ATOM     19  C   UNL     1      -2.588  11.751  18.447  0.00  0.00    +0.000 C 
ATOM     20  O   UNL     1      -1.168  11.670  18.510  0.00  0.00    +0.000 OA
ENDBRANCH  13  20
ENDBRANCH  12  17
ENDBRANCH  11  12
ENDBRANCH   7  11
ENDBRANCH   1   9
BRANCH   5  21
ATOM     21  S   UNL     1       7.143   5.170  17.411  0.00  0.00    +0.000 S 
ATOM     22  O   UNL     1       7.317   6.599  17.598  0.00  0.00    +0.000 OA
ATOM     23  O   UNL     1       7.950   4.232  18.146  0.00  0.00    +0.000 OA
BRANCH  21  24
ATOM     24  N   UNL     1       7.332   4.928  15.775  0.00  0.00    +0.000 N 
ATOM     25  C   UNL     1       6.523   5.511  14.788  0.00  0.00    +0.000 C 
ATOM     26  O   UNL     1       5.627   6.302  15.051  0.00  0.00    +0.000 OA
ATOM     27  H   UNL     1       8.054   4.257  15.549  0.00  0.00    +0.000 HD
BRANCH  25  28
ATOM     28  C   UNL     1       6.840   5.082  13.341  0.00  0.00    +0.000 C 
BRANCH  28  29
ATOM     29  N   UNL     1       8.266   5.351  13.046  0.00  0.00    +0.000 NA
ATOM     30  H   UNL     1       8.511   6.266  13.436  0.00  0.00    +0.000 HD
ATOM     31  H   UNL     1       8.404   5.448  12.038  0.00  0.00    +0.000 HD
ENDBRANCH  28  29
BRANCH  28  32
ATOM     32  C   UNL     1       6.566   3.579  13.169  0.00  0.00    +0.000 C 
BRANCH  32  33
ATOM     33  C   UNL     1       5.990   3.162  11.797  0.00  0.00    +0.000 C 
ATOM     34  C   UNL     1       6.184   1.678  11.488  0.00  0.00    +0.000 C 
ATOM     35  C   UNL     1       4.497   3.499  11.747  0.00  0.00    +0.000 C 
ENDBRANCH  32  33
ENDBRANCH  28  32
ENDBRANCH  25  28
ENDBRANCH  21  24
ENDBRANCH   5  21
TORSDOF 11
ENDMDL
MODEL 8
REMARK VINA RESULT:      -7.4      3.160      9.331
REMARK  Name = 
REMARK  14 active torsions:
REMARK  status: ('A' for Active; 'I' for Inactive)
REMARK    1  A    between atoms: C_1  and  O_2
REMARK    2  A    between atoms: O_2  and  C_3
REMARK    3  A    between atoms: C_7  and  O_8
REMARK    4  A    between atoms: O_8  and  C_9
REMARK    5  A    between atoms: C_9  and  C_10
REMARK    6  A    between atoms: N_12  and  C_13
REMARK    7  A    between atoms: C_17  and  S_18
REMARK    8  A    between atoms: S_18  and  N_21
REMARK    9  A    between atoms: C_22  and  C_24
REMARK   10  A    between atoms: C_24  and  N_25
REMARK   11  A    between atoms: C_24  and  C_26
REMARK   12  A    between atoms: C_26  and  C_27
REMARK   13  A    between atoms: C_27  and  C_28
REMARK   14  A    between atoms: C_27  and  C_29
REMARK                            x       y       z     vdW  Elec       q    Type
REMARK                         _______ _______ _______ _____ _____    ______ ____
ROOT
ATOM      1  C   UNL     1       2.311   6.423  20.141  0.00  0.00    +0.000 A 
ATOM      2  C   UNL     1       2.818   6.634  18.856  0.00  0.00    +0.000 A 
ATOM      3  C   UNL     1       2.597   7.832  18.174  0.00  0.00    +0.000 A 
ATOM      4  C   UNL     1       1.856   8.840  18.777  0.00  0.00    +0.000 A 
ATOM      5  C   UNL     1       1.344   8.645  20.063  0.00  0.00    +0.000 A 
ATOM      6  C   UNL     1       1.542   7.433  20.741  0.00  0.00    +0.000 A 
ENDROOT
BRANCH   1   9
ATOM      7  C   UNL     1       1.658   4.138  20.885  0.00  0.00    +0.000 C 
ATOM      8  O   UNL     1       0.605   4.039  20.254  0.00  0.00    +0.000 OA
ATOM      9  N   UNL     1       2.537   5.216  20.844  0.00  0.00    +0.000 N 
ATOM     10  H   UNL     1       3.461   5.076  21.240  0.00  0.00    +0.000 HD
BRANCH   7  11
ATOM     11  C   UNL     1       2.104   3.006  21.790  0.00  0.00    +0.000 C 
BRANCH  11  12
ATOM     12  O   UNL     1       3.379   2.577  21.335  0.00  0.00    +0.000 OA
BRANCH  12  17
ATOM     13  C   UNL     1       4.742   3.543  18.022  0.00  0.00    +0.000 A 
ATOM     14  C   UNL     1       3.862   2.819  17.216  0.00  0.00    +0.000 A 
ATOM     15  C   UNL     1       2.869   2.025  17.791  0.00  0.00    +0.000 A 
ATOM     16  C   UNL     1       2.749   1.962  19.178  0.00  0.00    +0.000 A 
ATOM     17  C   UNL     1       3.618   2.688  19.993  0.00  0.00    +0.000 A 
ATOM     18  C   UNL     1       4.620   3.468  19.412  0.00  0.00    +0.000 A 
BRANCH  13  20
ATOM     19  C   UNL     1       6.771   4.772  18.114  0.00  0.00    +0.000 C 
ATOM     20  O   UNL     1       5.667   4.296  17.350  0.00  0.00    +0.000 OA
ENDBRANCH  13  20
ENDBRANCH  12  17
ENDBRANCH  11  12
ENDBRANCH   7  11
ENDBRANCH   1   9
BRANCH   5  21
ATOM     21  S   UNL     1       0.370   9.942  20.788  0.00  0.00    +0.000 S 
ATOM     22  O   UNL     1      -0.587   9.322  21.686  0.00  0.00    +0.000 OA
ATOM     23  O   UNL     1       1.246  10.984  21.258  0.00  0.00    +0.000 OA
BRANCH  21  24
ATOM     24  N   UNL     1      -0.541  10.495  19.509  0.00  0.00    +0.000 N 
ATOM     25  C   UNL     1      -1.527  11.487  19.609  0.00  0.00    +0.000 C 
ATOM     26  O   UNL     1      -1.769  12.077  20.653  0.00  0.00    +0.000 OA
ATOM     27  H   UNL     1      -0.366   9.997  18.647  0.00  0.00    +0.000 HD
BRANCH  25  28
ATOM     28  C   UNL     1      -2.294  11.784  18.303  0.00  0.00    +0.000 C 
BRANCH  28  29
ATOM     29  N   UNL     1      -1.436  12.579  17.395  0.00  0.00    +0.000 NA
ATOM     30  H   UNL     1      -0.802  11.941  16.905  0.00  0.00    +0.000 HD
ATOM     31  H   UNL     1      -0.826  13.193  17.937  0.00  0.00    +0.000 HD
ENDBRANCH  28  29
BRANCH  28  32
ATOM     32  C   UNL     1      -2.675  10.466  17.609  0.00  0.00    +0.000 C 
BRANCH  32  33
ATOM     33  C   UNL     1      -3.845  10.560  16.604  0.00  0.00    +0.000 C 
ATOM     34  C   UNL     1      -4.787  11.731  16.885  0.00  0.00    +0.000 C 
ATOM     35  C   UNL     1      -3.288  10.688  15.183  0.00  0.00    +0.000 C 
ENDBRANCH  32  33
ENDBRANCH  28  32
ENDBRANCH  25  28
ENDBRANCH  21  24
ENDBRANCH   5  21
TORSDOF 11
ENDMDL
MODEL 9
REMARK VINA RESULT:      -7.4      2.385      3.331
REMARK  Name = 
REMARK  14 active torsions:
REMARK  status: ('A' for Active; 'I' for Inactive)
REMARK    1  A    between atoms: C_1  and  O_2
REMARK    2  A    between atoms: O_2  and  C_3
REMARK    3  A    between atoms: C_7  and  O_8
REMARK    4  A    between atoms: O_8  and  C_9
REMARK    5  A    between atoms: C_9  and  C_10
REMARK    6  A    between atoms: N_12  and  C_13
REMARK    7  A    between atoms: C_17  and  S_18
REMARK    8  A    between atoms: S_18  and  N_21
REMARK    9  A    between atoms: C_22  and  C_24
REMARK   10  A    between atoms: C_24  and  N_25
REMARK   11  A    between atoms: C_24  and  C_26
REMARK   12  A    between atoms: C_26  and  C_27
REMARK   13  A    between atoms: C_27  and  C_28
REMARK   14  A    between atoms: C_27  and  C_29
REMARK                            x       y       z     vdW  Elec       q    Type
REMARK                         _______ _______ _______ _____ _____    ______ ____
ROOT
ATOM      1  C   UNL     1       2.332   5.615  19.930  0.00  0.00    +0.000 A 
ATOM      2  C   UNL     1       1.649   4.466  19.524  0.00  0.00    +0.000 A 
ATOM      3  C   UNL     1       2.252   3.512  18.701  0.00  0.00    +0.000 A 
ATOM      4  C   UNL     1       3.557   3.704  18.270  0.00  0.00    +0.000 A 
ATOM      5  C   UNL     1       4.255   4.848  18.669  0.00  0.00    +0.000 A 
ATOM      6  C   UNL     1       3.643   5.822  19.474  0.00  0.00    +0.000 A 
ENDROOT
BRANCH   1   9
ATOM      7  C   UNL     1       1.599   7.934  20.466  0.00  0.00    +0.000 C 
ATOM      8  O   UNL     1       1.901   8.469  19.399  0.00  0.00    +0.000 OA
ATOM      9  N   UNL     1       1.731   6.583  20.771  0.00  0.00    +0.000 N 
ATOM     10  H   UNL     1       1.249   6.243  21.597  0.00  0.00    +0.000 HD
BRANCH   7  11
ATOM     11  C   UNL     1       1.003   8.767  21.585  0.00  0.00    +0.000 C 
BRANCH  11  12
ATOM     12  O   UNL     1      -0.369   8.970  21.277  0.00  0.00    +0.000 OA
BRANCH  12  17
ATOM     13  C   UNL     1      -1.310  12.559  21.221  0.00  0.00    +0.000 A 
ATOM     14  C   UNL     1      -1.540  12.692  19.850  0.00  0.00    +0.000 A 
ATOM     15  C   UNL     1      -1.356  11.605  18.995  0.00  0.00    +0.000 A 
ATOM     16  C   UNL     1      -0.950  10.376  19.514  0.00  0.00    +0.000 A 
ATOM     17  C   UNL     1      -0.726  10.230  20.882  0.00  0.00    +0.000 A 
ATOM     18  C   UNL     1      -0.897  11.326  21.731  0.00  0.00    +0.000 A 
BRANCH  13  20
ATOM     19  C   UNL     1      -1.186  13.614  23.344  0.00  0.00    +0.000 C 
ATOM     20  O   UNL     1      -1.534  13.686  21.965  0.00  0.00    +0.000 OA
ENDBRANCH  13  20
ENDBRANCH  12  17
ENDBRANCH  11  12
ENDBRANCH   7  11
ENDBRANCH   1   9
BRANCH   5  21
ATOM     21  S   UNL     1       5.911   5.079  18.068  0.00  0.00    +0.000 S 
ATOM     22  O   UNL     1       6.287   6.455  18.335  0.00  0.00    +0.000 OA
ATOM     23  O   UNL     1       6.736   3.992  18.528  0.00  0.00    +0.000 OA
BRANCH  21  24
ATOM     24  N   UNL     1       5.731   5.000  16.415  0.00  0.00    +0.000 N 
ATOM     25  C   UNL     1       6.783   4.792  15.512  0.00  0.00    +0.000 C 
ATOM     26  O   UNL     1       7.935   4.596  15.873  0.00  0.00    +0.000 OA
ATOM     27  H   UNL     1       4.786   5.185  16.104  0.00  0.00    +0.000 HD
BRANCH  25  28
ATOM     28  C   UNL     1       6.386   4.830  14.021  0.00  0.00    +0.000 C 
BRANCH  28  29
ATOM     29  N   UNL     1       7.530   5.318  13.217  0.00  0.00    +0.000 NA
ATOM     30  H   UNL     1       7.983   6.082  13.726  0.00  0.00    +0.000 HD
ATOM     31  H   UNL     1       7.195   5.741  12.350  0.00  0.00    +0.000 HD
ENDBRANCH  28  29
BRANCH  28  32
ATOM     32  C   UNL     1       6.003   3.419  13.546  0.00  0.00    +0.000 C 
BRANCH  32  33
ATOM     33  C   UNL     1       5.873   3.248  12.015  0.00  0.00    +0.000 C 
ATOM     34  C   UNL     1       6.491   1.948  11.501  0.00  0.00    +0.000 C 
ATOM     35  C   UNL     1       4.394   3.296  11.620  0.00  0.00    +0.000 C 
ENDBRANCH  32  33
ENDBRANCH  28  32
ENDBRANCH  25  28
ENDBRANCH  21  24
ENDBRANCH   5  21
TORSDOF 11
ENDMDL
