MODEL 1
REMARK VINA RESULT:      -7.7      0.000      0.000
REMARK  Name = 
REMARK  9 active torsions:
REMARK  status: ('A' for Active; 'I' for Inactive)
REMARK    1  A    between atoms: C_1  and  C_2
REMARK    2  A    between atoms: C_7  and  C_8
REMARK    3  A    between atoms: N_10  and  C_11
REMARK    4  A    between atoms: C_11  and  C_12
REMARK    5  A    between atoms: C_11  and  C_13
REMARK    6  A    between atoms: C_13  and  O_14
REMARK    7  A    between atoms: C_13  and  C_15
REMARK    8  A    between atoms: C_13  and  C_21
REMARK    9  A    between atoms: C_15  and  N_16
REMARK                            x       y       z     vdW  Elec       q    Type
REMARK                         _______ _______ _______ _____ _____    ______ ____
ROOT
ATOM      1  C   UNL     1       4.063   4.982  18.050  0.00  0.00    +0.000 C 
ENDROOT
BRANCH   1   2
ATOM      2  C   UNL     1       3.082   4.357  19.063  0.00  0.00    +0.000 A 
ATOM      3  C   UNL     1       3.547   3.945  20.333  0.00  0.00    +0.000 A 
ATOM      4  C   UNL     1       2.701   3.305  21.244  0.00  0.00    +0.000 A 
ATOM      5  C   UNL     1       1.374   3.078  20.909  0.00  0.00    +0.000 A 
ATOM      6  F   UNL     1       0.566   2.464  21.782  0.00  0.00    +0.000 F 
ATOM      7  C   UNL     1       0.879   3.471  19.680  0.00  0.00    +0.000 A 
ATOM      8  C   UNL     1       1.731   4.089  18.769  0.00  0.00    +0.000 A 
ATOM      9  F   UNL     1       1.195   4.399  17.582  0.00  0.00    +0.000 F 
ENDBRANCH   1   2
BRANCH   1  10
ATOM     10  C   UNL     1       3.714   6.461  17.576  0.00  0.00    +0.000 C 
ATOM     11  C   UNL     1       4.916   7.300  17.134  0.00  0.00    +0.000 C 
BRANCH  10  14
ATOM     12  C   UNL     1       2.136   8.409  18.304  0.00  0.00    +0.000 C 
ATOM     13  O   UNL     1       2.090   8.968  17.216  0.00  0.00    +0.000 OA
ATOM     14  N   UNL     1       2.850   7.238  18.519  0.00  0.00    +0.000 N 
ATOM     15  H   UNL     1       2.838   6.880  19.462  0.00  0.00    +0.000 HD
BRANCH  12  22
ATOM     16  C   UNL     1       1.384   6.919  21.162  0.00  0.00    +0.000 C 
ATOM     17  C   UNL     1       1.109   8.310  20.699  0.00  0.00    +0.000 A 
ATOM     18  N   UNL     1       0.442   9.119  21.614  0.00  0.00    +0.000 NA
ATOM     19  C   UNL     1       0.260  10.310  21.104  0.00  0.00    +0.000 A 
ATOM     20 BR   UNL     1      -0.597  11.672  22.075  0.00  0.00    +0.000 Br
ATOM     21  S   UNL     1       0.837  10.553  19.526  0.00  0.00    +0.000 S 
ATOM     22  C   UNL     1       1.421   8.925  19.482  0.00  0.00    +0.000 A 
ENDBRANCH  12  22
ENDBRANCH  10  14
ENDBRANCH   1  10
BRANCH   1  23
ATOM     23  O   UNL     1       5.347   5.077  18.711  0.00  0.00    +0.000 OA
ATOM     24  H   UNL     1       5.694   5.979  18.678  0.00  0.00    +0.000 HD
ENDBRANCH   1  23
BRANCH   1  25
ATOM     25  C   UNL     1       4.248   3.986  16.856  0.00  0.00    +0.000 C 
BRANCH  25  26
ATOM     26  N   UNL     1       5.321   4.264  15.930  0.00  0.00    +0.000 N 
ATOM     27  C   UNL     1       5.234   4.410  14.578  0.00  0.00    +0.000 A 
ATOM     28  N   UNL     1       6.437   4.565  14.075  0.00  0.00    +0.000 NA
ATOM     29  C   UNL     1       7.238   4.483  15.177  0.00  0.00    +0.000 A 
ATOM     30  N   UNL     1       6.603   4.288  16.337  0.00  0.00    +0.000 NA
ENDBRANCH  25  26
ENDBRANCH   1  25
TORSDOF 7
ENDMDL
MODEL 2
REMARK VINA RESULT:      -7.6      1.110      1.529
REMARK  Name = 
REMARK  9 active torsions:
REMARK  status: ('A' for Active; 'I' for Inactive)
REMARK    1  A    between atoms: C_1  and  C_2
REMARK    2  A    between atoms: C_7  and  C_8
REMARK    3  A    between atoms: N_10  and  C_11
REMARK    4  A    between atoms: C_11  and  C_12
REMARK    5  A    between atoms: C_11  and  C_13
REMARK    6  A    between atoms: C_13  and  O_14
REMARK    7  A    between atoms: C_13  and  C_15
REMARK    8  A    between atoms: C_13  and  C_21
REMARK    9  A    between atoms: C_15  and  N_16
REMARK                            x       y       z     vdW  Elec       q    Type
REMARK                         _______ _______ _______ _____ _____    ______ ____
ROOT
ATOM      1  C   UNL     1       4.100   5.018  18.253  0.00  0.00    +0.000 C 
ENDROOT
BRANCH   1   2
ATOM      2  C   UNL     1       3.086   4.391  19.234  0.00  0.00    +0.000 A 
ATOM      3  C   UNL     1       3.495   4.040  20.541  0.00  0.00    +0.000 A 
ATOM      4  C   UNL     1       2.623   3.399  21.427  0.00  0.00    +0.000 A 
ATOM      5  C   UNL     1       1.326   3.112  21.030  0.00  0.00    +0.000 A 
ATOM      6  F   UNL     1       0.493   2.499  21.879  0.00  0.00    +0.000 F 
ATOM      7  C   UNL     1       0.886   3.445  19.762  0.00  0.00    +0.000 A 
ATOM      8  C   UNL     1       1.764   4.064  18.877  0.00  0.00    +0.000 A 
ATOM      9  F   UNL     1       1.284   4.314  17.653  0.00  0.00    +0.000 F 
ENDBRANCH   1   2
BRANCH   1  10
ATOM     10  C   UNL     1       3.695   6.439  17.661  0.00  0.00    +0.000 C 
ATOM     11  C   UNL     1       4.862   7.273  17.123  0.00  0.00    +0.000 C 
BRANCH  10  14
ATOM     12  C   UNL     1       2.123   8.433  18.266  0.00  0.00    +0.000 C 
ATOM     13  O   UNL     1       2.100   8.939  17.151  0.00  0.00    +0.000 OA
ATOM     14  N   UNL     1       2.823   7.268  18.550  0.00  0.00    +0.000 N 
ATOM     15  H   UNL     1       2.791   6.957  19.509  0.00  0.00    +0.000 HD
BRANCH  12  22
ATOM     16  C   UNL     1       0.324  11.204  18.458  0.00  0.00    +0.000 C 
ATOM     17  C   UNL     1       0.620  10.174  19.495  0.00  0.00    +0.000 A 
ATOM     18  N   UNL     1       0.040  10.401  20.740  0.00  0.00    +0.000 NA
ATOM     19  C   UNL     1       0.363   9.437  21.563  0.00  0.00    +0.000 A 
ATOM     20 BR   UNL     1      -0.262   9.409  23.335  0.00  0.00    +0.000 Br
ATOM     21  S   UNL     1       1.374   8.221  20.943  0.00  0.00    +0.000 S 
ATOM     22  C   UNL     1       1.393   9.012  19.405  0.00  0.00    +0.000 A 
ENDBRANCH  12  22
ENDBRANCH  10  14
ENDBRANCH   1  10
BRANCH   1  23
ATOM     23  O   UNL     1       5.322   5.239  18.996  0.00  0.00    +0.000 OA
ATOM     24  H   UNL     1       5.161   5.769  19.789  0.00  0.00    +0.000 HD
ENDBRANCH   1  23
BRANCH   1  25
ATOM     25  C   UNL     1       4.435   3.965  17.143  0.00  0.00    +0.000 C 
BRANCH  25  26
ATOM     26  N   UNL     1       5.549   4.263  16.273  0.00  0.00    +0.000 N 
ATOM     27  C   UNL     1       6.855   4.423  16.623  0.00  0.00    +0.000 A 
ATOM     28  N   UNL     1       7.553   4.774  15.568  0.00  0.00    +0.000 NA
ATOM     29  C   UNL     1       6.606   4.835  14.587  0.00  0.00    +0.000 A 
ATOM     30  N   UNL     1       5.360   4.541  14.971  0.00  0.00    +0.000 NA
ENDBRANCH  25  26
ENDBRANCH   1  25
TORSDOF 7
ENDMDL
MODEL 3
REMARK VINA RESULT:      -7.3      0.996      1.109
REMARK  Name = 
REMARK  9 active torsions:
REMARK  status: ('A' for Active; 'I' for Inactive)
REMARK    1  A    between atoms: C_1  and  C_2
REMARK    2  A    between atoms: C_7  and  C_8
REMARK    3  A    between atoms: N_10  and  C_11
REMARK    4  A    between atoms: C_11  and  C_12
REMARK    5  A    between atoms: C_11  and  C_13
REMARK    6  A    between atoms: C_13  and  O_14
REMARK    7  A    between atoms: C_13  and  C_15
REMARK    8  A    between atoms: C_13  and  C_21
REMARK    9  A    between atoms: C_15  and  N_16
REMARK                            x       y       z     vdW  Elec       q    Type
REMARK                         _______ _______ _______ _____ _____    ______ ____
ROOT
ATOM      1  C   UNL     1       3.701   5.395  18.414  0.00  0.00    +0.000 C 
ENDROOT
BRANCH   1   2
ATOM      2  C   UNL     1       2.782   4.623  19.383  0.00  0.00    +0.000 A 
ATOM      3  C   UNL     1       3.132   4.512  20.749  0.00  0.00    +0.000 A 
ATOM      4  C   UNL     1       2.362   3.754  21.636  0.00  0.00    +0.000 A 
ATOM      5  C   UNL     1       1.223   3.107  21.181  0.00  0.00    +0.000 A 
ATOM      6  F   UNL     1       0.488   2.382  22.032  0.00  0.00    +0.000 F 
ATOM      7  C   UNL     1       0.843   3.197  19.855  0.00  0.00    +0.000 A 
ATOM      8  C   UNL     1       1.624   3.935  18.971  0.00  0.00    +0.000 A 
ATOM      9  F   UNL     1       1.222   3.939  17.695  0.00  0.00    +0.000 F 
ENDBRANCH   1   2
BRANCH   1  10
ATOM     10  C   UNL     1       3.025   6.618  17.652  0.00  0.00    +0.000 C 
ATOM     11  C   UNL     1       3.979   7.455  16.794  0.00  0.00    +0.000 C 
BRANCH  10  14
ATOM     12  C   UNL     1       1.822   8.835  18.329  0.00  0.00    +0.000 C 
ATOM     13  O   UNL     1       2.156   9.483  17.345  0.00  0.00    +0.000 OA
ATOM     14  N   UNL     1       2.176   7.504  18.509  0.00  0.00    +0.000 N 
ATOM     15  H   UNL     1       1.867   7.077  19.370  0.00  0.00    +0.000 HD
BRANCH  12  22
ATOM     16  C   UNL     1       1.384   7.819  21.448  0.00  0.00    +0.000 C 
ATOM     17  C   UNL     1       0.817   8.997  20.730  0.00  0.00    +0.000 A 
ATOM     18  N   UNL     1      -0.019   9.809  21.490  0.00  0.00    +0.000 NA
ATOM     19  C   UNL     1      -0.450  10.807  20.762  0.00  0.00    +0.000 A 
ATOM     20 BR   UNL     1      -1.592  12.119  21.474  0.00  0.00    +0.000 Br
ATOM     21  S   UNL     1       0.076  10.849  19.148  0.00  0.00    +0.000 S 
ATOM     22  C   UNL     1       1.001   9.409  19.406  0.00  0.00    +0.000 A 
ENDBRANCH  12  22
ENDBRANCH  10  14
ENDBRANCH   1  10
BRANCH   1  23
ATOM     23  O   UNL     1       4.763   5.971  19.210  0.00  0.00    +0.000 OA
ATOM     24  H   UNL     1       4.510   6.835  19.562  0.00  0.00    +0.000 HD
ENDBRANCH   1  23
BRANCH   1  25
ATOM     25  C   UNL     1       4.375   4.368  17.443  0.00  0.00    +0.000 C 
BRANCH  25  26
ATOM     26  N   UNL     1       5.797   4.507  17.226  0.00  0.00    +0.000 N 
ATOM     27  C   UNL     1       6.437   4.753  16.049  0.00  0.00    +0.000 A 
ATOM     28  N   UNL     1       7.735   4.720  16.240  0.00  0.00    +0.000 NA
ATOM     29  C   UNL     1       7.838   4.425  17.568  0.00  0.00    +0.000 A 
ATOM     30  N   UNL     1       6.678   4.274  18.215  0.00  0.00    +0.000 NA
ENDBRANCH  25  26
ENDBRANCH   1  25
TORSDOF 7
ENDMDL
MODEL 4
REMARK VINA RESULT:      -7.3      1.408      1.823
REMARK  Name = 
REMARK  9 active torsions:
REMARK  status: ('A' for Active; 'I' for Inactive)
REMARK    1  A    between atoms: C_1  and  C_2
REMARK    2  A    between atoms: C_7  and  C_8
REMARK    3  A    between atoms: N_10  and  C_11
REMARK    4  A    between atoms: C_11  and  C_12
REMARK    5  A    between atoms: C_11  and  C_13
REMARK    6  A    between atoms: C_13  and  O_14
REMARK    7  A    between atoms: C_13  and  C_15
REMARK    8  A    between atoms: C_13  and  C_21
REMARK    9  A    between atoms: C_15  and  N_16
REMARK                            x       y       z     vdW  Elec       q    Type
REMARK                         _______ _______ _______ _____ _____    ______ ____
ROOT
ATOM      1  C   UNL     1       4.173   4.913  18.323  0.00  0.00    +0.000 C 
ENDROOT
BRANCH   1   2
ATOM      2  C   UNL     1       3.225   4.244  19.340  0.00  0.00    +0.000 A 
ATOM      3  C   UNL     1       1.913   4.743  19.516  0.00  0.00    +0.000 A 
ATOM      4  C   UNL     1       1.058   4.210  20.484  0.00  0.00    +0.000 A 
ATOM      5  C   UNL     1       1.488   3.160  21.282  0.00  0.00    +0.000 A 
ATOM      6  F   UNL     1       0.667   2.652  22.208  0.00  0.00    +0.000 F 
ATOM      7  C   UNL     1       2.760   2.640  21.137  0.00  0.00    +0.000 A 
ATOM      8  C   UNL     1       3.616   3.188  20.186  0.00  0.00    +0.000 A 
ATOM      9  F   UNL     1       4.847   2.666  20.133  0.00  0.00    +0.000 F 
ENDBRANCH   1   2
BRANCH   1  10
ATOM     10  C   UNL     1       3.632   6.255  17.659  0.00  0.00    +0.000 C 
ATOM     11  C   UNL     1       4.703   7.131  17.003  0.00  0.00    +0.000 C 
BRANCH  10  14
ATOM     12  C   UNL     1       2.105   8.284  18.269  0.00  0.00    +0.000 C 
ATOM     13  O   UNL     1       2.162   8.836  17.178  0.00  0.00    +0.000 OA
ATOM     14  N   UNL     1       2.745   7.080  18.537  0.00  0.00    +0.000 N 
ATOM     15  H   UNL     1       2.650   6.730  19.478  0.00  0.00    +0.000 HD
BRANCH  12  22
ATOM     16  C   UNL     1      -0.279  10.578  18.289  0.00  0.00    +0.000 C 
ATOM     17  C   UNL     1       0.321   9.802  19.412  0.00  0.00    +0.000 A 
ATOM     18  N   UNL     1      -0.212  10.071  20.670  0.00  0.00    +0.000 NA
ATOM     19  C   UNL     1       0.384   9.333  21.571  0.00  0.00    +0.000 A 
ATOM     20 BR   UNL     1      -0.097   9.422  23.386  0.00  0.00    +0.000 Br
ATOM     21  S   UNL     1       1.609   8.298  21.013  0.00  0.00    +0.000 S 
ATOM     22  C   UNL     1       1.338   8.842  19.393  0.00  0.00    +0.000 A 
ENDBRANCH  12  22
ENDBRANCH  10  14
ENDBRANCH   1  10
BRANCH   1  23
ATOM     23  O   UNL     1       5.368   5.290  19.046  0.00  0.00    +0.000 OA
ATOM     24  H   UNL     1       6.157   5.198  18.493  0.00  0.00    +0.000 HD
ENDBRANCH   1  23
BRANCH   1  25
ATOM     25  C   UNL     1       4.607   3.841  17.267  0.00  0.00    +0.000 C 
BRANCH  25  26
ATOM     26  N   UNL     1       5.589   4.246  16.288  0.00  0.00    +0.000 N 
ATOM     27  C   UNL     1       5.427   4.338  14.939  0.00  0.00    +0.000 A 
ATOM     28  N   UNL     1       6.572   4.652  14.379  0.00  0.00    +0.000 NA
ATOM     29  C   UNL     1       7.420   4.722  15.446  0.00  0.00    +0.000 A 
ATOM     30  N   UNL     1       6.869   4.470  16.637  0.00  0.00    +0.000 NA
ENDBRANCH  25  26
ENDBRANCH   1  25
TORSDOF 7
ENDMDL
MODEL 5
REMARK VINA RESULT:      -7.3      1.806      2.246
REMARK  Name = 
REMARK  9 active torsions:
REMARK  status: ('A' for Active; 'I' for Inactive)
REMARK    1  A    between atoms: C_1  and  C_2
REMARK    2  A    between atoms: C_7  and  C_8
REMARK    3  A    between atoms: N_10  and  C_11
REMARK    4  A    between atoms: C_11  and  C_12
REMARK    5  A    between atoms: C_11  and  C_13
REMARK    6  A    between atoms: C_13  and  O_14
REMARK    7  A    between atoms: C_13  and  C_15
REMARK    8  A    between atoms: C_13  and  C_21
REMARK    9  A    between atoms: C_15  and  N_16
REMARK                            x       y       z     vdW  Elec       q    Type
REMARK                         _______ _______ _______ _____ _____    ______ ____
ROOT
ATOM      1  C   UNL     1       5.260   4.587  16.842  0.00  0.00    +0.000 C 
ENDROOT
BRANCH   1   2
ATOM      2  C   UNL     1       4.286   3.750  17.697  0.00  0.00    +0.000 A 
ATOM      3  C   UNL     1       3.019   3.395  17.178  0.00  0.00    +0.000 A 
ATOM      4  C   UNL     1       2.083   2.706  17.955  0.00  0.00    +0.000 A 
ATOM      5  C   UNL     1       2.400   2.346  19.257  0.00  0.00    +0.000 A 
ATOM      6  F   UNL     1       1.502   1.687  19.999  0.00  0.00    +0.000 F 
ATOM      7  C   UNL     1       3.629   2.669  19.799  0.00  0.00    +0.000 A 
ATOM      8  C   UNL     1       4.550   3.374  19.028  0.00  0.00    +0.000 A 
ATOM      9  F   UNL     1       5.700   3.692  19.633  0.00  0.00    +0.000 F 
ENDBRANCH   1   2
BRANCH   1  10
ATOM     10  C   UNL     1       5.534   6.066  17.361  0.00  0.00    +0.000 C 
ATOM     11  C   UNL     1       6.851   6.253  18.121  0.00  0.00    +0.000 C 
BRANCH  10  14
ATOM     12  C   UNL     1       3.368   7.496  17.649  0.00  0.00    +0.000 C 
ATOM     13  O   UNL     1       3.226   7.776  16.465  0.00  0.00    +0.000 OA
ATOM     14  N   UNL     1       4.401   6.691  18.113  0.00  0.00    +0.000 N 
ATOM     15  H   UNL     1       4.435   6.548  19.110  0.00  0.00    +0.000 HD
BRANCH  12  22
ATOM     16  C   UNL     1       2.326   6.023  20.423  0.00  0.00    +0.000 C 
ATOM     17  C   UNL     1       2.005   7.369  19.868  0.00  0.00    +0.000 A 
ATOM     18  N   UNL     1       1.140   8.139  20.641  0.00  0.00    +0.000 NA
ATOM     19  C   UNL     1       0.935   9.294  20.061  0.00  0.00    +0.000 A 
ATOM     20 BR   UNL     1      -0.172  10.598  20.838  0.00  0.00    +0.000 Br
ATOM     21  S   UNL     1       1.720   9.545  18.576  0.00  0.00    +0.000 S 
ATOM     22  C   UNL     1       2.442   7.976  18.686  0.00  0.00    +0.000 A 
ENDBRANCH  12  22
ENDBRANCH  10  14
ENDBRANCH   1  10
BRANCH   1  23
ATOM     23  O   UNL     1       6.541   3.915  16.885  0.00  0.00    +0.000 OA
ATOM     24  H   UNL     1       6.526   3.167  17.499  0.00  0.00    +0.000 HD
ENDBRANCH   1  23
BRANCH   1  25
ATOM     25  C   UNL     1       4.781   4.541  15.352  0.00  0.00    +0.000 C 
BRANCH  25  26
ATOM     26  N   UNL     1       5.805   4.549  14.334  0.00  0.00    +0.000 N 
ATOM     27  C   UNL     1       5.898   3.737  13.244  0.00  0.00    +0.000 A 
ATOM     28  N   UNL     1       7.016   3.988  12.603  0.00  0.00    +0.000 NA
ATOM     29  C   UNL     1       7.590   4.962  13.368  0.00  0.00    +0.000 A 
ATOM     30  N   UNL     1       6.893   5.333  14.446  0.00  0.00    +0.000 NA
ENDBRANCH  25  26
ENDBRANCH   1  25
TORSDOF 7
ENDMDL
MODEL 6
REMARK VINA RESULT:      -7.1      3.044      4.656
REMARK  Name = 
REMARK  9 active torsions:
REMARK  status: ('A' for Active; 'I' for Inactive)
REMARK    1  A    between atoms: C_1  and  C_2
REMARK    2  A    between atoms: C_7  and  C_8
REMARK    3  A    between atoms: N_10  and  C_11
REMARK    4  A    between atoms: C_11  and  C_12
REMARK    5  A    between atoms: C_11  and  C_13
REMARK    6  A    between atoms: C_13  and  O_14
REMARK    7  A    between atoms: C_13  and  C_15
REMARK    8  A    between atoms: C_13  and  C_21
REMARK    9  A    between atoms: C_15  and  N_16
REMARK                            x       y       z     vdW  Elec       q    Type
REMARK                         _______ _______ _______ _____ _____    ______ ____
ROOT
ATOM      1  C   UNL     1       5.505   5.664  16.954  0.00  0.00    +0.000 C 
ENDROOT
BRANCH   1   2
ATOM      2  C   UNL     1       6.540   6.615  17.590  0.00  0.00    +0.000 A 
ATOM      3  C   UNL     1       6.634   7.954  17.144  0.00  0.00    +0.000 A 
ATOM      4  C   UNL     1       7.612   8.819  17.644  0.00  0.00    +0.000 A 
ATOM      5  C   UNL     1       8.502   8.369  18.607  0.00  0.00    +0.000 A 
ATOM      6  F   UNL     1       9.438   9.198  19.084  0.00  0.00    +0.000 F 
ATOM      7  C   UNL     1       8.440   7.069  19.074  0.00  0.00    +0.000 A 
ATOM      8  C   UNL     1       7.477   6.206  18.557  0.00  0.00    +0.000 A 
ATOM      9  F   UNL     1       7.506   4.951  19.021  0.00  0.00    +0.000 F 
ENDBRANCH   1   2
BRANCH   1  10
ATOM     10  C   UNL     1       4.309   5.215  17.903  0.00  0.00    +0.000 C 
ATOM     11  C   UNL     1       3.390   4.137  17.322  0.00  0.00    +0.000 C 
BRANCH  10  14
ATOM     12  C   UNL     1       2.515   6.310  19.452  0.00  0.00    +0.000 C 
ATOM     13  O   UNL     1       2.188   5.285  20.037  0.00  0.00    +0.000 OA
ATOM     14  N   UNL     1       3.504   6.338  18.477  0.00  0.00    +0.000 N 
ATOM     15  H   UNL     1       3.672   7.233  18.045  0.00  0.00    +0.000 HD
BRANCH  12  22
ATOM     16  C   UNL     1       2.111   8.961  17.513  0.00  0.00    +0.000 C 
ATOM     17  C   UNL     1       1.708   8.734  18.931  0.00  0.00    +0.000 A 
ATOM     18  N   UNL     1       1.044   9.797  19.537  0.00  0.00    +0.000 NA
ATOM     19  C   UNL     1       0.737   9.484  20.770  0.00  0.00    +0.000 A 
ATOM     20 BR   UNL     1      -0.186  10.683  21.884  0.00  0.00    +0.000 Br
ATOM     21  S   UNL     1       1.217   7.945  21.301  0.00  0.00    +0.000 S 
ATOM     22  C   UNL     1       1.895   7.612  19.745  0.00  0.00    +0.000 A 
ENDBRANCH  12  22
ENDBRANCH  10  14
ENDBRANCH   1  10
BRANCH   1  23
ATOM     23  O   UNL     1       4.887   6.383  15.862  0.00  0.00    +0.000 OA
ATOM     24  H   UNL     1       5.254   6.111  15.009  0.00  0.00    +0.000 HD
ENDBRANCH   1  23
BRANCH   1  25
ATOM     25  C   UNL     1       6.267   4.453  16.318  0.00  0.00    +0.000 C 
BRANCH  25  26
ATOM     26  N   UNL     1       6.574   4.539  14.909  0.00  0.00    +0.000 N 
ATOM     27  C   UNL     1       6.059   3.784  13.899  0.00  0.00    +0.000 A 
ATOM     28  N   UNL     1       6.651   4.098  12.770  0.00  0.00    +0.000 NA
ATOM     29  C   UNL     1       7.549   5.050  13.154  0.00  0.00    +0.000 A 
ATOM     30  N   UNL     1       7.549   5.349  14.457  0.00  0.00    +0.000 NA
ENDBRANCH  25  26
ENDBRANCH   1  25
TORSDOF 7
ENDMDL
MODEL 7
REMARK VINA RESULT:      -7.0      2.049      2.465
REMARK  Name = 
REMARK  9 active torsions:
REMARK  status: ('A' for Active; 'I' for Inactive)
REMARK    1  A    between atoms: C_1  and  C_2
REMARK    2  A    between atoms: C_7  and  C_8
REMARK    3  A    between atoms: N_10  and  C_11
REMARK    4  A    between atoms: C_11  and  C_12
REMARK    5  A    between atoms: C_11  and  C_13
REMARK    6  A    between atoms: C_13  and  O_14
REMARK    7  A    between atoms: C_13  and  C_15
REMARK    8  A    between atoms: C_13  and  C_21
REMARK    9  A    between atoms: C_15  and  N_16
REMARK                            x       y       z     vdW  Elec       q    Type
REMARK                         _______ _______ _______ _____ _____    ______ ____
ROOT
ATOM      1  C   UNL     1       3.793   5.701  18.484  0.00  0.00    +0.000 C 
ENDROOT
BRANCH   1   2
ATOM      2  C   UNL     1       2.849   4.490  18.636  0.00  0.00    +0.000 A 
ATOM      3  C   UNL     1       3.010   3.361  17.800  0.00  0.00    +0.000 A 
ATOM      4  C   UNL     1       2.124   2.281  17.859  0.00  0.00    +0.000 A 
ATOM      5  C   UNL     1       1.072   2.302  18.762  0.00  0.00    +0.000 A 
ATOM      6  F   UNL     1       0.225   1.268  18.816  0.00  0.00    +0.000 F 
ATOM      7  C   UNL     1       0.884   3.384  19.601  0.00  0.00    +0.000 A 
ATOM      8  C   UNL     1       1.757   4.466  19.524  0.00  0.00    +0.000 A 
ATOM      9  F   UNL     1       1.486   5.497  20.334  0.00  0.00    +0.000 F 
ENDBRANCH   1   2
BRANCH   1  10
ATOM     10  C   UNL     1       3.187   6.952  17.709  0.00  0.00    +0.000 C 
ATOM     11  C   UNL     1       4.119   7.585  16.671  0.00  0.00    +0.000 C 
BRANCH  10  14
ATOM     12  C   UNL     1       1.597   8.939  18.295  0.00  0.00    +0.000 C 
ATOM     13  O   UNL     1       1.026   8.987  17.213  0.00  0.00    +0.000 OA
ATOM     14  N   UNL     1       2.584   8.005  18.585  0.00  0.00    +0.000 N 
ATOM     15  H   UNL     1       3.003   8.075  19.499  0.00  0.00    +0.000 HD
BRANCH  12  22
ATOM     16  C   UNL     1       1.090   8.330  21.508  0.00  0.00    +0.000 C 
ATOM     17  C   UNL     1       1.070   9.618  20.756  0.00  0.00    +0.000 A 
ATOM     18  N   UNL     1       0.812  10.750  21.525  0.00  0.00    +0.000 NA
ATOM     19  C   UNL     1       0.825  11.815  20.765  0.00  0.00    +0.000 A 
ATOM     20 BR   UNL     1       0.529  13.530  21.475  0.00  0.00    +0.000 Br
ATOM     21  S   UNL     1       1.119  11.561  19.112  0.00  0.00    +0.000 S 
ATOM     22  C   UNL     1       1.275   9.861  19.394  0.00  0.00    +0.000 A 
ENDBRANCH  12  22
ENDBRANCH  10  14
ENDBRANCH   1  10
BRANCH   1  23
ATOM     23  O   UNL     1       4.088   6.175  19.819  0.00  0.00    +0.000 OA
ATOM     24  H   UNL     1       5.009   5.998  20.060  0.00  0.00    +0.000 HD
ENDBRANCH   1  23
BRANCH   1  25
ATOM     25  C   UNL     1       5.148   5.203  17.877  0.00  0.00    +0.000 C 
BRANCH  25  26
ATOM     26  N   UNL     1       6.360   5.681  18.500  0.00  0.00    +0.000 N 
ATOM     27  C   UNL     1       7.246   6.589  18.005  0.00  0.00    +0.000 A 
ATOM     28  N   UNL     1       8.268   6.696  18.821  0.00  0.00    +0.000 NA
ATOM     29  C   UNL     1       7.964   5.801  19.805  0.00  0.00    +0.000 A 
ATOM     30  N   UNL     1       6.810   5.145  19.649  0.00  0.00    +0.000 NA
ENDBRANCH  25  26
ENDBRANCH   1  25
TORSDOF 7
ENDMDL
MODEL 8
REMARK VINA RESULT:      -7.0      1.511      1.809
REMARK  Name = 
REMARK  9 active torsions:
REMARK  status: ('A' for Active; 'I' for Inactive)
REMARK    1  A    between atoms: C_1  and  C_2
REMARK    2  A    between atoms: C_7  and  C_8
REMARK    3  A    between atoms: N_10  and  C_11
REMARK    4  A    between atoms: C_11  and  C_12
REMARK    5  A    between atoms: C_11  and  C_13
REMARK    6  A    between atoms: C_13  and  O_14
REMARK    7  A    between atoms: C_13  and  C_15
REMARK    8  A    between atoms: C_13  and  C_21
REMARK    9  A    between atoms: C_15  and  N_16
REMARK                            x       y       z     vdW  Elec       q    Type
REMARK                         _______ _______ _______ _____ _____    ______ ____
ROOT
ATOM      1  C   UNL     1       5.031   5.067  18.328  0.00  0.00    +0.000 C 
ENDROOT
BRANCH   1   2
ATOM      2  C   UNL     1       3.806   4.130  18.379  0.00  0.00    +0.000 A 
ATOM      3  C   UNL     1       2.603   4.507  17.740  0.00  0.00    +0.000 A 
ATOM      4  C   UNL     1       1.453   3.717  17.834  0.00  0.00    +0.000 A 
ATOM      5  C   UNL     1       1.487   2.533  18.554  0.00  0.00    +0.000 A 
ATOM      6  F   UNL     1       0.385   1.779  18.643  0.00  0.00    +0.000 F 
ATOM      7  C   UNL     1       2.646   2.126  19.188  0.00  0.00    +0.000 A 
ATOM      8  C   UNL     1       3.782   2.926  19.109  0.00  0.00    +0.000 A 
ATOM      9  F   UNL     1       4.853   2.494  19.786  0.00  0.00    +0.000 F 
ENDBRANCH   1   2
BRANCH   1  10
ATOM     10  C   UNL     1       4.759   6.522  17.742  0.00  0.00    +0.000 C 
ATOM     11  C   UNL     1       6.010   7.380  17.531  0.00  0.00    +0.000 C 
BRANCH  10  14
ATOM     12  C   UNL     1       2.736   8.161  17.947  0.00  0.00    +0.000 C 
ATOM     13  O   UNL     1       2.596   8.363  16.748  0.00  0.00    +0.000 OA
ATOM     14  N   UNL     1       3.702   7.303  18.458  0.00  0.00    +0.000 N 
ATOM     15  H   UNL     1       3.742   7.233  19.463  0.00  0.00    +0.000 HD
BRANCH  12  22
ATOM     16  C   UNL     1       1.565   6.978  20.807  0.00  0.00    +0.000 C 
ATOM     17  C   UNL     1       1.388   8.316  20.173  0.00  0.00    +0.000 A 
ATOM     18  N   UNL     1       0.620   9.221  20.901  0.00  0.00    +0.000 NA
ATOM     19  C   UNL     1       0.538  10.355  20.254  0.00  0.00    +0.000 A 
ATOM     20 BR   UNL     1      -0.413  11.817  20.955  0.00  0.00    +0.000 Br
ATOM     21  S   UNL     1       1.331  10.430  18.755  0.00  0.00    +0.000 S 
ATOM     22  C   UNL     1       1.878   8.801  18.956  0.00  0.00    +0.000 A 
ENDBRANCH  12  22
ENDBRANCH  10  14
ENDBRANCH   1  10
BRANCH   1  23
ATOM     23  O   UNL     1       5.462   5.272  19.694  0.00  0.00    +0.000 OA
ATOM     24  H   UNL     1       5.929   4.496  20.035  0.00  0.00    +0.000 HD
ENDBRANCH   1  23
BRANCH   1  25
ATOM     25  C   UNL     1       6.198   4.323  17.597  0.00  0.00    +0.000 C 
BRANCH  25  26
ATOM     26  N   UNL     1       6.248   4.436  16.157  0.00  0.00    +0.000 N 
ATOM     27  C   UNL     1       5.327   3.992  15.257  0.00  0.00    +0.000 A 
ATOM     28  N   UNL     1       5.768   4.199  14.039  0.00  0.00    +0.000 NA
ATOM     29  C   UNL     1       6.993   4.762  14.253  0.00  0.00    +0.000 A 
ATOM     30  N   UNL     1       7.338   4.918  15.534  0.00  0.00    +0.000 NA
ENDBRANCH  25  26
ENDBRANCH   1  25
TORSDOF 7
ENDMDL
MODEL 9
REMARK VINA RESULT:      -6.9      1.170      1.487
REMARK  Name = 
REMARK  9 active torsions:
REMARK  status: ('A' for Active; 'I' for Inactive)
REMARK    1  A    between atoms: C_1  and  C_2
REMARK    2  A    between atoms: C_7  and  C_8
REMARK    3  A    between atoms: N_10  and  C_11
REMARK    4  A    between atoms: C_11  and  C_12
REMARK    5  A    between atoms: C_11  and  C_13
REMARK    6  A    between atoms: C_13  and  O_14
REMARK    7  A    between atoms: C_13  and  C_15
REMARK    8  A    between atoms: C_13  and  C_21
REMARK    9  A    between atoms: C_15  and  N_16
REMARK                            x       y       z     vdW  Elec       q    Type
REMARK                         _______ _______ _______ _____ _____    ______ ____
ROOT
ATOM      1  C   UNL     1       4.616   4.527  18.078  0.00  0.00    +0.000 C 
ENDROOT
BRANCH   1   2
ATOM      2  C   UNL     1       3.492   4.061  19.028  0.00  0.00    +0.000 A 
ATOM      3  C   UNL     1       3.818   3.430  20.250  0.00  0.00    +0.000 A 
ATOM      4  C   UNL     1       2.824   2.926  21.095  0.00  0.00    +0.000 A 
ATOM      5  C   UNL     1       1.489   3.058  20.743  0.00  0.00    +0.000 A 
ATOM      6  F   UNL     1       0.540   2.575  21.553  0.00  0.00    +0.000 F 
ATOM      7  C   UNL     1       1.129   3.674  19.560  0.00  0.00    +0.000 A 
ATOM      8  C   UNL     1       2.123   4.155  18.712  0.00  0.00    +0.000 A 
ATOM      9  F   UNL     1       1.703   4.698  17.563  0.00  0.00    +0.000 F 
ENDBRANCH   1   2
BRANCH   1  10
ATOM     10  C   UNL     1       4.662   6.090  17.782  0.00  0.00    +0.000 C 
ATOM     11  C   UNL     1       6.054   6.724  17.861  0.00  0.00    +0.000 C 
BRANCH  10  14
ATOM     12  C   UNL     1       2.775   7.867  18.093  0.00  0.00    +0.000 C 
ATOM     13  O   UNL     1       2.652   8.152  16.908  0.00  0.00    +0.000 OA
ATOM     14  N   UNL     1       3.669   6.907  18.547  0.00  0.00    +0.000 N 
ATOM     15  H   UNL     1       3.703   6.773  19.546  0.00  0.00    +0.000 HD
BRANCH  12  22
ATOM     16  C   UNL     1       1.487  10.913  18.223  0.00  0.00    +0.000 C 
ATOM     17  C   UNL     1       1.409   9.791  19.203  0.00  0.00    +0.000 A 
ATOM     18  N   UNL     1       0.668  10.056  20.351  0.00  0.00    +0.000 NA
ATOM     19  C   UNL     1       0.666   9.005  21.130  0.00  0.00    +0.000 A 
ATOM     20 BR   UNL     1      -0.258   9.001  22.767  0.00  0.00    +0.000 Br
ATOM     21  S   UNL     1       1.539   7.656  20.583  0.00  0.00    +0.000 S 
ATOM     22  C   UNL     1       1.969   8.511  19.142  0.00  0.00    +0.000 A 
ENDBRANCH  12  22
ENDBRANCH  10  14
ENDBRANCH   1  10
BRANCH   1  23
ATOM     23  O   UNL     1       5.871   4.216  18.728  0.00  0.00    +0.000 OA
ATOM     24  H   UNL     1       6.167   3.320  18.512  0.00  0.00    +0.000 HD
ENDBRANCH   1  23
BRANCH   1  25
ATOM     25  C   UNL     1       4.559   3.659  16.776  0.00  0.00    +0.000 C 
BRANCH  25  26
ATOM     26  N   UNL     1       5.442   4.038  15.697  0.00  0.00    +0.000 N 
ATOM     27  C   UNL     1       5.114   4.254  14.393  0.00  0.00    +0.000 A 
ATOM     28  N   UNL     1       6.203   4.492  13.700  0.00  0.00    +0.000 NA
ATOM     29  C   UNL     1       7.187   4.387  14.639  0.00  0.00    +0.000 A 
ATOM     30  N   UNL     1       6.774   4.099  15.877  0.00  0.00    +0.000 NA
ENDBRANCH  25  26
ENDBRANCH   1  25
TORSDOF 7
ENDMDL
