MODEL 1
REMARK VINA RESULT:      -7.8      0.000      0.000
REMARK  Name = 
REMARK  5 active torsions:
REMARK  status: ('A' for Active; 'I' for Inactive)
REMARK    1  A    between atoms: C_1  and  C_2
REMARK    2  A    between atoms: C_2  and  C_3
REMARK    3  A    between atoms: C_2  and  N_4
REMARK    4  A    between atoms: N_8  and  C_9
REMARK    5  A    between atoms: N_18  and  C_19
REMARK                            x       y       z     vdW  Elec       q    Type
REMARK                         _______ _______ _______ _____ _____    ______ ____
ROOT
ATOM      1  N   UNL     1       1.445   4.325  21.149  0.00  0.00    +0.000 N 
ATOM      2  C   UNL     1       2.410   4.916  20.303  0.00  0.00    +0.000 A 
ATOM      3  N   UNL     1       2.289   6.227  19.989  0.00  0.00    +0.000 NA
ATOM      4  C   UNL     1       3.103   6.798  19.067  0.00  0.00    +0.000 A 
ATOM      5  N   UNL     1       2.914   8.138  18.635  0.00  0.00    +0.000 N 
ATOM      6  N   UNL     1       4.066   6.045  18.486  0.00  0.00    +0.000 NA
ATOM      7  C   UNL     1       4.203   4.728  18.799  0.00  0.00    +0.000 A 
ATOM      8  N   UNL     1       5.198   3.941  18.161  0.00  0.00    +0.000 N 
ATOM      9  N   UNL     1       3.374   4.165  19.708  0.00  0.00    +0.000 NA
ATOM     10  H   UNL     1       0.871   4.945  21.743  0.00  0.00    +0.000 HD
ATOM     11  H   UNL     1       3.710   8.595  18.162  0.00  0.00    +0.000 HD
ATOM     12  H   UNL     1       5.542   3.095  18.644  0.00  0.00    +0.000 HD
ENDROOT
BRANCH   5  13
ATOM     13  C   UNL     1       1.654   8.825  18.612  0.00  0.00    +0.000 A 
ATOM     14  C   UNL     1       0.873   8.960  17.438  0.00  0.00    +0.000 A 
ATOM     15  C   UNL     1      -0.310   9.696  17.447  0.00  0.00    +0.000 A 
ATOM     16  C   UNL     1      -0.742  10.313  18.619  0.00  0.00    +0.000 A 
ATOM     17  F   UNL     1      -1.887  11.037  18.616  0.00  0.00    +0.000 F 
ATOM     18  C   UNL     1       0.013  10.196  19.787  0.00  0.00    +0.000 A 
ATOM     19  C   UNL     1       1.204   9.460  19.785  0.00  0.00    +0.000 A 
ENDBRANCH   5  13
BRANCH   8  20
ATOM     20  C   UNL     1       5.725   4.272  16.880  0.00  0.00    +0.000 A 
ATOM     21  C   UNL     1       7.041   4.741  16.767  0.00  0.00    +0.000 A 
ATOM     22  C   UNL     1       7.566   5.069  15.511  0.00  0.00    +0.000 A 
ATOM     23  C   UNL     1       6.791   4.904  14.360  0.00  0.00    +0.000 A 
ATOM     24  F   UNL     1       7.301   5.215  13.145  0.00  0.00    +0.000 F 
ATOM     25  C   UNL     1       5.489   4.411  14.459  0.00  0.00    +0.000 A 
ATOM     26  C   UNL     1       4.955   4.101  15.708  0.00  0.00    +0.000 A 
ENDBRANCH   8  20
BRANCH   1  28
ATOM     27  C   UNL     1       0.920   2.523  19.584  0.00  0.00    +0.000 C 
ATOM     28  C   UNL     1       1.109   2.913  21.053  0.00  0.00    +0.000 C 
ATOM     29  C   UNL     1       2.250   2.070  21.658  0.00  0.00    +0.000 C 
ENDBRANCH   1  28
TORSDOF 3
ENDMDL
MODEL 2
REMARK VINA RESULT:      -7.6      0.112      1.346
REMARK  Name = 
REMARK  5 active torsions:
REMARK  status: ('A' for Active; 'I' for Inactive)
REMARK    1  A    between atoms: C_1  and  C_2
REMARK    2  A    between atoms: C_2  and  C_3
REMARK    3  A    between atoms: C_2  and  N_4
REMARK    4  A    between atoms: N_8  and  C_9
REMARK    5  A    between atoms: N_18  and  C_19
REMARK                            x       y       z     vdW  Elec       q    Type
REMARK                         _______ _______ _______ _____ _____    ______ ____
ROOT
ATOM      1  N   UNL     1       1.441   4.319  21.148  0.00  0.00    +0.000 N 
ATOM      2  C   UNL     1       2.423   4.900  20.314  0.00  0.00    +0.000 A 
ATOM      3  N   UNL     1       2.335   6.218  20.021  0.00  0.00    +0.000 NA
ATOM      4  C   UNL     1       3.165   6.784  19.111  0.00  0.00    +0.000 A 
ATOM      5  N   UNL     1       3.009   8.136  18.700  0.00  0.00    +0.000 N 
ATOM      6  N   UNL     1       4.112   6.018  18.522  0.00  0.00    +0.000 NA
ATOM      7  C   UNL     1       4.217   4.694  18.814  0.00  0.00    +0.000 A 
ATOM      8  N   UNL     1       5.195   3.894  18.167  0.00  0.00    +0.000 N 
ATOM      9  N   UNL     1       3.372   4.136  19.711  0.00  0.00    +0.000 NA
ATOM     10  H   UNL     1       0.880   4.943  21.749  0.00  0.00    +0.000 HD
ATOM     11  H   UNL     1       3.817   8.581  18.237  0.00  0.00    +0.000 HD
ATOM     12  H   UNL     1       5.517   3.033  18.637  0.00  0.00    +0.000 HD
ENDROOT
BRANCH   5  13
ATOM     13  C   UNL     1       1.766   8.852  18.683  0.00  0.00    +0.000 A 
ATOM     14  C   UNL     1       1.188   9.416  19.846  0.00  0.00    +0.000 A 
ATOM     15  C   UNL     1      -0.056  10.042  19.796  0.00  0.00    +0.000 A 
ATOM     16  C   UNL     1      -0.752  10.120  18.591  0.00  0.00    +0.000 A 
ATOM     17  F   UNL     1      -1.967  10.719  18.553  0.00  0.00    +0.000 F 
ATOM     18  C   UNL     1      -0.203   9.567  17.433  0.00  0.00    +0.000 A 
ATOM     19  C   UNL     1       1.045   8.936  17.478  0.00  0.00    +0.000 A 
ENDBRANCH   5  13
BRANCH   8  20
ATOM     20  C   UNL     1       5.735   4.232  16.892  0.00  0.00    +0.000 A 
ATOM     21  C   UNL     1       4.961   4.055  15.737  0.00  0.00    +0.000 A 
ATOM     22  C   UNL     1       5.485   4.384  14.482  0.00  0.00    +0.000 A 
ATOM     23  C   UNL     1       6.773   4.917  14.375  0.00  0.00    +0.000 A 
ATOM     24  F   UNL     1       7.277   5.241  13.161  0.00  0.00    +0.000 F 
ATOM     25  C   UNL     1       7.542   5.123  15.522  0.00  0.00    +0.000 A 
ATOM     26  C   UNL     1       7.031   4.780  16.771  0.00  0.00    +0.000 A 
ENDBRANCH   8  20
BRANCH   1  28
ATOM     27  C   UNL     1       0.844   2.564  19.555  0.00  0.00    +0.000 C 
ATOM     28  C   UNL     1       1.073   2.917  21.028  0.00  0.00    +0.000 C 
ATOM     29  C   UNL     1       2.208   2.036  21.589  0.00  0.00    +0.000 C 
ENDBRANCH   1  28
TORSDOF 3
ENDMDL
MODEL 3
REMARK VINA RESULT:      -7.5      0.540      1.272
REMARK  Name = 
REMARK  5 active torsions:
REMARK  status: ('A' for Active; 'I' for Inactive)
REMARK    1  A    between atoms: C_1  and  C_2
REMARK    2  A    between atoms: C_2  and  C_3
REMARK    3  A    between atoms: C_2  and  N_4
REMARK    4  A    between atoms: N_8  and  C_9
REMARK    5  A    between atoms: N_18  and  C_19
REMARK                            x       y       z     vdW  Elec       q    Type
REMARK                         _______ _______ _______ _____ _____    ______ ____
ROOT
ATOM      1  N   UNL     1       2.013   4.095  21.133  0.00  0.00    +0.000 N 
ATOM      2  C   UNL     1       2.908   4.707  20.227  0.00  0.00    +0.000 A 
ATOM      3  N   UNL     1       2.747   6.019  19.936  0.00  0.00    +0.000 NA
ATOM      4  C   UNL     1       3.485   6.611  18.964  0.00  0.00    +0.000 A 
ATOM      5  N   UNL     1       3.246   7.952  18.561  0.00  0.00    +0.000 N 
ATOM      6  N   UNL     1       4.415   5.878  18.309  0.00  0.00    +0.000 NA
ATOM      7  C   UNL     1       4.592   4.561  18.598  0.00  0.00    +0.000 A 
ATOM      8  N   UNL     1       5.550   3.794  17.883  0.00  0.00    +0.000 N 
ATOM      9  N   UNL     1       3.838   3.977  19.558  0.00  0.00    +0.000 NA
ATOM     10  H   UNL     1       1.474   4.701  21.772  0.00  0.00    +0.000 HD
ATOM     11  H   UNL     1       4.000   8.425  18.037  0.00  0.00    +0.000 HD
ATOM     12  H   UNL     1       5.939   2.949  18.332  0.00  0.00    +0.000 HD
ENDROOT
BRANCH   5  13
ATOM     13  C   UNL     1       1.979   8.620  18.634  0.00  0.00    +0.000 A 
ATOM     14  C   UNL     1       1.256   9.025  17.486  0.00  0.00    +0.000 A 
ATOM     15  C   UNL     1       0.062   9.734  17.606  0.00  0.00    +0.000 A 
ATOM     16  C   UNL     1      -0.438  10.056  18.865  0.00  0.00    +0.000 A 
ATOM     17  F   UNL     1      -1.593  10.756  18.973  0.00  0.00    +0.000 F 
ATOM     18  C   UNL     1       0.260   9.670  20.011  0.00  0.00    +0.000 A 
ATOM     19  C   UNL     1       1.460   8.960  19.898  0.00  0.00    +0.000 A 
ENDBRANCH   5  13
BRANCH   8  20
ATOM     20  C   UNL     1       5.981   4.144  16.571  0.00  0.00    +0.000 A 
ATOM     21  C   UNL     1       5.158   3.870  15.470  0.00  0.00    +0.000 A 
ATOM     22  C   UNL     1       5.575   4.210  14.178  0.00  0.00    +0.000 A 
ATOM     23  C   UNL     1       6.801   4.850  13.981  0.00  0.00    +0.000 A 
ATOM     24  F   UNL     1       7.201   5.185  12.730  0.00  0.00    +0.000 F 
ATOM     25  C   UNL     1       7.616   5.152  15.073  0.00  0.00    +0.000 A 
ATOM     26  C   UNL     1       7.214   4.800  16.359  0.00  0.00    +0.000 A 
ENDBRANCH   8  20
BRANCH   1  28
ATOM     27  C   UNL     1       1.022   2.219  22.345  0.00  0.00    +0.000 C 
ATOM     28  C   UNL     1       1.692   2.679  21.047  0.00  0.00    +0.000 C 
ATOM     29  C   UNL     1       0.726   2.441  19.868  0.00  0.00    +0.000 C 
ENDBRANCH   1  28
TORSDOF 3
ENDMDL
MODEL 4
REMARK VINA RESULT:      -7.2      1.094      1.529
REMARK  Name = 
REMARK  5 active torsions:
REMARK  status: ('A' for Active; 'I' for Inactive)
REMARK    1  A    between atoms: C_1  and  C_2
REMARK    2  A    between atoms: C_2  and  C_3
REMARK    3  A    between atoms: C_2  and  N_4
REMARK    4  A    between atoms: N_8  and  C_9
REMARK    5  A    between atoms: N_18  and  C_19
REMARK                            x       y       z     vdW  Elec       q    Type
REMARK                         _______ _______ _______ _____ _____    ______ ____
ROOT
ATOM      1  N   UNL     1       2.292   4.405  20.495  0.00  0.00    +0.000 N 
ATOM      2  C   UNL     1       3.187   4.933  19.536  0.00  0.00    +0.000 A 
ATOM      3  N   UNL     1       3.096   6.243  19.210  0.00  0.00    +0.000 NA
ATOM      4  C   UNL     1       3.830   6.758  18.194  0.00  0.00    +0.000 A 
ATOM      5  N   UNL     1       3.660   8.100  17.757  0.00  0.00    +0.000 N 
ATOM      6  N   UNL     1       4.687   5.949  17.528  0.00  0.00    +0.000 NA
ATOM      7  C   UNL     1       4.793   4.632  17.851  0.00  0.00    +0.000 A 
ATOM      8  N   UNL     1       5.672   3.786  17.125  0.00  0.00    +0.000 N 
ATOM      9  N   UNL     1       4.042   4.125  18.856  0.00  0.00    +0.000 NA
ATOM     10  H   UNL     1       1.817   5.062  21.134  0.00  0.00    +0.000 HD
ATOM     11  H   UNL     1       4.421   8.508  17.191  0.00  0.00    +0.000 HD
ATOM     12  H   UNL     1       6.025   2.931  17.585  0.00  0.00    +0.000 HD
ENDROOT
BRANCH   5  13
ATOM     13  C   UNL     1       2.440   8.849  17.857  0.00  0.00    +0.000 A 
ATOM     14  C   UNL     1       2.391  10.175  18.349  0.00  0.00    +0.000 A 
ATOM     15  C   UNL     1       1.174  10.839  18.494  0.00  0.00    +0.000 A 
ATOM     16  C   UNL     1      -0.017  10.200  18.156  0.00  0.00    +0.000 A 
ATOM     17  F   UNL     1      -1.197  10.849  18.312  0.00  0.00    +0.000 F 
ATOM     18  C   UNL     1       0.008   8.891  17.672  0.00  0.00    +0.000 A 
ATOM     19  C   UNL     1       1.226   8.218  17.526  0.00  0.00    +0.000 A 
ENDBRANCH   5  13
BRANCH   8  20
ATOM     20  C   UNL     1       6.071   4.070  15.787  0.00  0.00    +0.000 A 
ATOM     21  C   UNL     1       7.212   4.849  15.550  0.00  0.00    +0.000 A 
ATOM     22  C   UNL     1       7.610   5.133  14.239  0.00  0.00    +0.000 A 
ATOM     23  C   UNL     1       6.889   4.618  13.158  0.00  0.00    +0.000 A 
ATOM     24  F   UNL     1       7.278   4.888  11.889  0.00  0.00    +0.000 F 
ATOM     25  C   UNL     1       5.768   3.819  13.383  0.00  0.00    +0.000 A 
ATOM     26  C   UNL     1       5.357   3.549  14.686  0.00  0.00    +0.000 A 
ENDBRANCH   8  20
BRANCH   1  28
ATOM     27  C   UNL     1       1.409   2.579  21.857  0.00  0.00    +0.000 C 
ATOM     28  C   UNL     1       1.880   3.010  20.465  0.00  0.00    +0.000 C 
ATOM     29  C   UNL     1       0.720   2.837  19.463  0.00  0.00    +0.000 C 
ENDBRANCH   1  28
TORSDOF 3
ENDMDL
MODEL 5
REMARK VINA RESULT:      -7.2      4.274      6.298
REMARK  Name = 
REMARK  5 active torsions:
REMARK  status: ('A' for Active; 'I' for Inactive)
REMARK    1  A    between atoms: C_1  and  C_2
REMARK    2  A    between atoms: C_2  and  C_3
REMARK    3  A    between atoms: C_2  and  N_4
REMARK    4  A    between atoms: N_8  and  C_9
REMARK    5  A    between atoms: N_18  and  C_19
REMARK                            x       y       z     vdW  Elec       q    Type
REMARK                         _______ _______ _______ _____ _____    ______ ____
ROOT
ATOM      1  N   UNL     1       6.411   7.065  17.842  0.00  0.00    +0.000 N 
ATOM      2  C   UNL     1       5.835   6.276  16.820  0.00  0.00    +0.000 A 
ATOM      3  N   UNL     1       4.721   5.559  17.098  0.00  0.00    +0.000 NA
ATOM      4  C   UNL     1       4.220   4.677  16.198  0.00  0.00    +0.000 A 
ATOM      5  N   UNL     1       3.126   3.828  16.517  0.00  0.00    +0.000 N 
ATOM      6  N   UNL     1       4.831   4.548  14.997  0.00  0.00    +0.000 NA
ATOM      7  C   UNL     1       5.946   5.269  14.703  0.00  0.00    +0.000 A 
ATOM      8  N   UNL     1       6.596   5.102  13.452  0.00  0.00    +0.000 N 
ATOM      9  N   UNL     1       6.447   6.133  15.616  0.00  0.00    +0.000 NA
ATOM     10  H   UNL     1       5.824   7.320  18.652  0.00  0.00    +0.000 HD
ATOM     11  H   UNL     1       2.622   3.397  15.725  0.00  0.00    +0.000 HD
ATOM     12  H   UNL     1       7.176   5.877  13.090  0.00  0.00    +0.000 HD
ENDROOT
BRANCH   5  13
ATOM     13  C   UNL     1       2.806   3.359  17.834  0.00  0.00    +0.000 A 
ATOM     14  C   UNL     1       1.572   3.635  18.470  0.00  0.00    +0.000 A 
ATOM     15  C   UNL     1       1.332   3.218  19.777  0.00  0.00    +0.000 A 
ATOM     16  C   UNL     1       2.312   2.521  20.482  0.00  0.00    +0.000 A 
ATOM     17  F   UNL     1       2.075   2.130  21.757  0.00  0.00    +0.000 F 
ATOM     18  C   UNL     1       3.538   2.241  19.876  0.00  0.00    +0.000 A 
ATOM     19  C   UNL     1       3.786   2.658  18.563  0.00  0.00    +0.000 A 
ENDBRANCH   5  13
BRANCH   8  20
ATOM     20  C   UNL     1       6.483   3.905  12.688  0.00  0.00    +0.000 A 
ATOM     21  C   UNL     1       5.218   3.364  12.421  0.00  0.00    +0.000 A 
ATOM     22  C   UNL     1       5.100   2.187  11.672  0.00  0.00    +0.000 A 
ATOM     23  C   UNL     1       6.240   1.561  11.162  0.00  0.00    +0.000 A 
ATOM     24  F   UNL     1       6.124   0.426  10.432  0.00  0.00    +0.000 F 
ATOM     25  C   UNL     1       7.503   2.106  11.399  0.00  0.00    +0.000 A 
ATOM     26  C   UNL     1       7.627   3.267  12.160  0.00  0.00    +0.000 A 
ENDBRANCH   8  20
BRANCH   1  28
ATOM     27  C   UNL     1       8.070   8.858  17.906  0.00  0.00    +0.000 C 
ATOM     28  C   UNL     1       7.838   7.344  17.875  0.00  0.00    +0.000 C 
ATOM     29  C   UNL     1       8.458   6.712  19.138  0.00  0.00    +0.000 C 
ENDBRANCH   1  28
TORSDOF 3
ENDMDL
MODEL 6
REMARK VINA RESULT:      -7.1      4.449     10.213
REMARK  Name = 
REMARK  5 active torsions:
REMARK  status: ('A' for Active; 'I' for Inactive)
REMARK    1  A    between atoms: C_1  and  C_2
REMARK    2  A    between atoms: C_2  and  C_3
REMARK    3  A    between atoms: C_2  and  N_4
REMARK    4  A    between atoms: N_8  and  C_9
REMARK    5  A    between atoms: N_18  and  C_19
REMARK                            x       y       z     vdW  Elec       q    Type
REMARK                         _______ _______ _______ _____ _____    ______ ____
ROOT
ATOM      1  N   UNL     1       2.101  13.756  19.597  0.00  0.00    +0.000 N 
ATOM      2  C   UNL     1       0.964  12.962  19.870  0.00  0.00    +0.000 A 
ATOM      3  N   UNL     1       1.121  11.625  20.013  0.00  0.00    +0.000 NA
ATOM      4  C   UNL     1       0.044  10.808  20.128  0.00  0.00    +0.000 A 
ATOM      5  N   UNL     1       0.183   9.394  20.157  0.00  0.00    +0.000 N 
ATOM      6  N   UNL     1      -1.194  11.353  20.132  0.00  0.00    +0.000 NA
ATOM      7  C   UNL     1      -1.365  12.695  19.997  0.00  0.00    +0.000 A 
ATOM      8  N   UNL     1      -2.671  13.251  19.972  0.00  0.00    +0.000 N 
ATOM      9  N   UNL     1      -0.284  13.499  19.866  0.00  0.00    +0.000 NA
ATOM     10  H   UNL     1       3.032  13.369  19.816  0.00  0.00    +0.000 HD
ATOM     11  H   UNL     1      -0.617   8.853  20.522  0.00  0.00    +0.000 HD
ATOM     12  H   UNL     1      -2.790  14.241  20.244  0.00  0.00    +0.000 HD
ENDROOT
BRANCH   5  13
ATOM     13  C   UNL     1       1.243   8.659  19.529  0.00  0.00    +0.000 A 
ATOM     14  C   UNL     1       1.718   8.953  18.228  0.00  0.00    +0.000 A 
ATOM     15  C   UNL     1       2.702   8.167  17.631  0.00  0.00    +0.000 A 
ATOM     16  C   UNL     1       3.232   7.073  18.311  0.00  0.00    +0.000 A 
ATOM     17  F   UNL     1       4.180   6.306  17.718  0.00  0.00    +0.000 F 
ATOM     18  C   UNL     1       2.776   6.762  19.593  0.00  0.00    +0.000 A 
ATOM     19  C   UNL     1       1.787   7.546  20.198  0.00  0.00    +0.000 A 
ENDBRANCH   5  13
BRANCH   8  20
ATOM     20  C   UNL     1      -3.813  12.497  19.576  0.00  0.00    +0.000 A 
ATOM     21  C   UNL     1      -4.970  12.515  20.368  0.00  0.00    +0.000 A 
ATOM     22  C   UNL     1      -6.095  11.776  19.987  0.00  0.00    +0.000 A 
ATOM     23  C   UNL     1      -6.083  11.039  18.800  0.00  0.00    +0.000 A 
ATOM     24  F   UNL     1      -7.175  10.329  18.427  0.00  0.00    +0.000 F 
ATOM     25  C   UNL     1      -4.946  11.036  17.990  0.00  0.00    +0.000 A 
ATOM     26  C   UNL     1      -3.817  11.755  18.375  0.00  0.00    +0.000 A 
ENDBRANCH   8  20
BRANCH   1  28
ATOM     27  C   UNL     1       2.101  16.192  19.792  0.00  0.00    +0.000 C 
ATOM     28  C   UNL     1       2.000  14.995  18.842  0.00  0.00    +0.000 C 
ATOM     29  C   UNL     1       3.149  15.068  17.815  0.00  0.00    +0.000 C 
ENDBRANCH   1  28
TORSDOF 3
ENDMDL
MODEL 7
REMARK VINA RESULT:      -7.1      8.056     11.977
REMARK  Name = 
REMARK  5 active torsions:
REMARK  status: ('A' for Active; 'I' for Inactive)
REMARK    1  A    between atoms: C_1  and  C_2
REMARK    2  A    between atoms: C_2  and  C_3
REMARK    3  A    between atoms: C_2  and  N_4
REMARK    4  A    between atoms: N_8  and  C_9
REMARK    5  A    between atoms: N_18  and  C_19
REMARK                            x       y       z     vdW  Elec       q    Type
REMARK                         _______ _______ _______ _____ _____    ______ ____
ROOT
ATOM      1  N   UNL     1       0.372  14.611  18.786  0.00  0.00    +0.000 N 
ATOM      2  C   UNL     1      -0.552  13.861  19.549  0.00  0.00    +0.000 A 
ATOM      3  N   UNL     1      -1.110  12.758  18.999  0.00  0.00    +0.000 NA
ATOM      4  C   UNL     1      -2.107  12.094  19.634  0.00  0.00    +0.000 A 
ATOM      5  N   UNL     1      -2.788  11.008  19.020  0.00  0.00    +0.000 N 
ATOM      6  N   UNL     1      -2.517  12.531  20.847  0.00  0.00    +0.000 NA
ATOM      7  C   UNL     1      -1.959  13.634  21.414  0.00  0.00    +0.000 A 
ATOM      8  N   UNL     1      -2.418  14.101  22.674  0.00  0.00    +0.000 N 
ATOM      9  N   UNL     1      -0.976  14.299  20.764  0.00  0.00    +0.000 NA
ATOM     10  H   UNL     1       0.827  14.152  17.981  0.00  0.00    +0.000 HD
ATOM     11  H   UNL     1      -3.323  10.380  19.640  0.00  0.00    +0.000 HD
ATOM     12  H   UNL     1      -1.778  14.669  23.252  0.00  0.00    +0.000 HD
ENDROOT
BRANCH   5  13
ATOM     13  C   UNL     1      -2.964  10.842  17.605  0.00  0.00    +0.000 A 
ATOM     14  C   UNL     1      -3.991  11.490  16.877  0.00  0.00    +0.000 A 
ATOM     15  C   UNL     1      -4.168  11.244  15.517  0.00  0.00    +0.000 A 
ATOM     16  C   UNL     1      -3.331  10.350  14.853  0.00  0.00    +0.000 A 
ATOM     17  F   UNL     1      -3.517  10.107  13.532  0.00  0.00    +0.000 F 
ATOM     18  C   UNL     1      -2.314   9.697  15.551  0.00  0.00    +0.000 A 
ATOM     19  C   UNL     1      -2.132   9.939  16.918  0.00  0.00    +0.000 A 
ENDBRANCH   5  13
BRANCH   8  20
ATOM     20  C   UNL     1      -3.729  13.823  23.159  0.00  0.00    +0.000 A 
ATOM     21  C   UNL     1      -3.929  12.774  24.067  0.00  0.00    +0.000 A 
ATOM     22  C   UNL     1      -5.213  12.494  24.547  0.00  0.00    +0.000 A 
ATOM     23  C   UNL     1      -6.300  13.275  24.144  0.00  0.00    +0.000 A 
ATOM     24  F   UNL     1      -7.542  13.008  24.614  0.00  0.00    +0.000 F 
ATOM     25  C   UNL     1      -6.107  14.339  23.261  0.00  0.00    +0.000 A 
ATOM     26  C   UNL     1      -4.834  14.610  22.767  0.00  0.00    +0.000 A 
ENDBRANCH   8  20
BRANCH   1  28
ATOM     27  C   UNL     1       1.924  16.476  18.495  0.00  0.00    +0.000 C 
ATOM     28  C   UNL     1       0.538  16.043  18.982  0.00  0.00    +0.000 C 
ATOM     29  C   UNL     1      -0.540  16.801  18.180  0.00  0.00    +0.000 C 
ENDBRANCH   1  28
TORSDOF 3
ENDMDL
MODEL 8
REMARK VINA RESULT:      -7.0      4.904     10.464
REMARK  Name = 
REMARK  5 active torsions:
REMARK  status: ('A' for Active; 'I' for Inactive)
REMARK    1  A    between atoms: C_1  and  C_2
REMARK    2  A    between atoms: C_2  and  C_3
REMARK    3  A    between atoms: C_2  and  N_4
REMARK    4  A    between atoms: N_8  and  C_9
REMARK    5  A    between atoms: N_18  and  C_19
REMARK                            x       y       z     vdW  Elec       q    Type
REMARK                         _______ _______ _______ _____ _____    ______ ____
ROOT
ATOM      1  N   UNL     1      -1.921  10.823  16.375  0.00  0.00    +0.000 N 
ATOM      2  C   UNL     1      -1.570  11.324  17.649  0.00  0.00    +0.000 A 
ATOM      3  N   UNL     1      -0.515  10.777  18.299  0.00  0.00    +0.000 NA
ATOM      4  C   UNL     1      -0.234  11.122  19.579  0.00  0.00    +0.000 A 
ATOM      5  N   UNL     1       0.792  10.472  20.317  0.00  0.00    +0.000 N 
ATOM      6  N   UNL     1      -1.003  12.051  20.192  0.00  0.00    +0.000 NA
ATOM      7  C   UNL     1      -2.061  12.614  19.548  0.00  0.00    +0.000 A 
ATOM      8  N   UNL     1      -2.879  13.565  20.212  0.00  0.00    +0.000 N 
ATOM      9  N   UNL     1      -2.343  12.250  18.276  0.00  0.00    +0.000 NA
ATOM     10  H   UNL     1      -1.210  10.293  15.846  0.00  0.00    +0.000 HD
ATOM     11  H   UNL     1       1.140  10.955  21.160  0.00  0.00    +0.000 HD
ATOM     12  H   UNL     1      -3.412  14.241  19.641  0.00  0.00    +0.000 HD
ENDROOT
BRANCH   5  13
ATOM     13  C   UNL     1       1.224   9.120  20.108  0.00  0.00    +0.000 A 
ATOM     14  C   UNL     1       1.085   8.108  21.089  0.00  0.00    +0.000 A 
ATOM     15  C   UNL     1       1.583   6.825  20.869  0.00  0.00    +0.000 A 
ATOM     16  C   UNL     1       2.230   6.521  19.674  0.00  0.00    +0.000 A 
ATOM     17  F   UNL     1       2.722   5.274  19.473  0.00  0.00    +0.000 F 
ATOM     18  C   UNL     1       2.381   7.503  18.694  0.00  0.00    +0.000 A 
ATOM     19  C   UNL     1       1.884   8.794  18.909  0.00  0.00    +0.000 A 
ENDBRANCH   5  13
BRANCH   8  20
ATOM     20  C   UNL     1      -2.998  13.610  21.632  0.00  0.00    +0.000 A 
ATOM     21  C   UNL     1      -2.339  14.613  22.355  0.00  0.00    +0.000 A 
ATOM     22  C   UNL     1      -2.449  14.663  23.750  0.00  0.00    +0.000 A 
ATOM     23  C   UNL     1      -3.240  13.730  24.426  0.00  0.00    +0.000 A 
ATOM     24  F   UNL     1      -3.352  13.783  25.775  0.00  0.00    +0.000 F 
ATOM     25  C   UNL     1      -3.922  12.744  23.713  0.00  0.00    +0.000 A 
ATOM     26  C   UNL     1      -3.800  12.679  22.327  0.00  0.00    +0.000 A 
ENDBRANCH   8  20
BRANCH   1  28
ATOM     27  C   UNL     1      -3.385  10.159  14.535  0.00  0.00    +0.000 C 
ATOM     28  C   UNL     1      -3.292  10.862  15.892  0.00  0.00    +0.000 C 
ATOM     29  C   UNL     1      -4.213  10.142  16.898  0.00  0.00    +0.000 C 
ENDBRANCH   1  28
TORSDOF 3
ENDMDL
MODEL 9
REMARK VINA RESULT:      -6.9      7.993      8.840
REMARK  Name = 
REMARK  5 active torsions:
REMARK  status: ('A' for Active; 'I' for Inactive)
REMARK    1  A    between atoms: C_1  and  C_2
REMARK    2  A    between atoms: C_2  and  C_3
REMARK    3  A    between atoms: C_2  and  N_4
REMARK    4  A    between atoms: N_8  and  C_9
REMARK    5  A    between atoms: N_18  and  C_19
REMARK                            x       y       z     vdW  Elec       q    Type
REMARK                         _______ _______ _______ _____ _____    ______ ____
ROOT
ATOM      1  N   UNL     1       5.486  12.307  25.841  0.00  0.00    +0.000 N 
ATOM      2  C   UNL     1       6.129  12.756  24.666  0.00  0.00    +0.000 A 
ATOM      3  N   UNL     1       5.458  13.581  23.828  0.00  0.00    +0.000 NA
ATOM      4  C   UNL     1       5.977  13.917  22.621  0.00  0.00    +0.000 A 
ATOM      5  N   UNL     1       5.236  14.681  21.680  0.00  0.00    +0.000 N 
ATOM      6  N   UNL     1       7.197  13.443  22.277  0.00  0.00    +0.000 NA
ATOM      7  C   UNL     1       7.885  12.620  23.113  0.00  0.00    +0.000 A 
ATOM      8  N   UNL     1       9.150  12.105  22.728  0.00  0.00    +0.000 N 
ATOM      9  N   UNL     1       7.350  12.278  24.308  0.00  0.00    +0.000 NA
ATOM     10  H   UNL     1       4.673  12.841  26.188  0.00  0.00    +0.000 HD
ATOM     11  H   UNL     1       5.770  15.134  20.921  0.00  0.00    +0.000 HD
ATOM     12  H   UNL     1       9.810  11.814  23.467  0.00  0.00    +0.000 HD
ENDROOT
BRANCH   5  13
ATOM     13  C   UNL     1       3.805  14.695  21.576  0.00  0.00    +0.000 A 
ATOM     14  C   UNL     1       2.997  15.657  22.229  0.00  0.00    +0.000 A 
ATOM     15  C   UNL     1       1.607  15.590  22.156  0.00  0.00    +0.000 A 
ATOM     16  C   UNL     1       0.991  14.568  21.437  0.00  0.00    +0.000 A 
ATOM     17  F   UNL     1      -0.361  14.503  21.382  0.00  0.00    +0.000 F 
ATOM     18  C   UNL     1       1.769  13.607  20.788  0.00  0.00    +0.000 A 
ATOM     19  C   UNL     1       3.165  13.668  20.858  0.00  0.00    +0.000 A 
ENDBRANCH   5  13
BRANCH   8  20
ATOM     20  C   UNL     1       9.533  11.966  21.362  0.00  0.00    +0.000 A 
ATOM     21  C   UNL     1      10.304  12.964  20.749  0.00  0.00    +0.000 A 
ATOM     22  C   UNL     1      10.683  12.835  19.408  0.00  0.00    +0.000 A 
ATOM     23  C   UNL     1      10.320  11.699  18.680  0.00  0.00    +0.000 A 
ATOM     24  F   UNL     1      10.692  11.572  17.385  0.00  0.00    +0.000 F 
ATOM     25  C   UNL     1       9.576  10.687  19.290  0.00  0.00    +0.000 A 
ATOM     26  C   UNL     1       9.180  10.819  20.619  0.00  0.00    +0.000 A 
ENDBRANCH   8  20
BRANCH   1  28
ATOM     27  C   UNL     1       6.667  11.239  27.695  0.00  0.00    +0.000 C 
ATOM     28  C   UNL     1       5.810  11.024  26.444  0.00  0.00    +0.000 C 
ATOM     29  C   UNL     1       4.508  10.298  26.842  0.00  0.00    +0.000 C 
ENDBRANCH   1  28
TORSDOF 3
ENDMDL
