MODEL 1
REMARK VINA RESULT:      -8.9      0.000      0.000
REMARK  Name = 
REMARK  9 active torsions:
REMARK  status: ('A' for Active; 'I' for Inactive)
REMARK    1  A    between atoms: S_2  and  N_4
REMARK    2  A    between atoms: S_2  and  C_25
REMARK    3  A    between atoms: N_4  and  C_5
REMARK    4  A    between atoms: C_5  and  C_6
REMARK    5  A    between atoms: C_9  and  C_10
REMARK    6  A    between atoms: C_10  and  N_11
REMARK    7  A    between atoms: N_11  and  C_12
REMARK    8  A    between atoms: C_12  and  C_13
REMARK    9  A    between atoms: C_30  and  C_31
REMARK                            x       y       z     vdW  Elec       q    Type
REMARK                         _______ _______ _______ _____ _____    ______ ____
ROOT
ATOM      1  C   UNL     1       2.767   7.320  18.612  0.00  0.00    +0.000 C 
ATOM      2  C   UNL     1       2.088   8.185  17.538  0.00  0.00    +0.000 C 
ATOM      3  C   UNL     1       1.829   9.611  18.029  0.00  0.00    +0.000 C 
ATOM      4  C   UNL     1       1.031   9.632  19.345  0.00  0.00    +0.000 C 
ATOM      5  C   UNL     1       1.738   8.784  20.408  0.00  0.00    +0.000 C 
ATOM      6  C   UNL     1       1.957   7.361  19.919  0.00  0.00    +0.000 C 
ENDROOT
BRANCH   1   7
ATOM      7  C   UNL     1       2.914   5.851  18.191  0.00  0.00    +0.000 C 
BRANCH   7   8
ATOM      8  N   UNL     1       3.760   5.091  19.115  0.00  0.00    +0.000 NA
ATOM      9  H   UNL     1       4.348   5.588  19.787  0.00  0.00    +0.000 HD
BRANCH   8  11
ATOM     10  O   UNL     1       5.485   3.239  19.460  0.00  0.00    +0.000 OA
ATOM     11  S   UNL     1       4.489   3.696  18.517  0.00  0.00    +0.000 S 
ATOM     12  O   UNL     1       3.438   2.822  18.056  0.00  0.00    +0.000 OA
BRANCH  11  13
ATOM     13  C   UNL     1       5.378   4.294  17.084  0.00  0.00    +0.000 A 
ATOM     14  C   UNL     1       4.893   3.895  15.826  0.00  0.00    +0.000 A 
ATOM     15  C   UNL     1       5.573   4.246  14.662  0.00  0.00    +0.000 A 
ATOM     16  C   UNL     1       6.735   5.004  14.742  0.00  0.00    +0.000 A 
ATOM     17  C   UNL     1       7.212   5.415  15.987  0.00  0.00    +0.000 A 
ATOM     18  C   UNL     1       6.548   5.068  17.186  0.00  0.00    +0.000 A 
BRANCH  18  19
ATOM     19  C   UNL     1       7.179   5.567  18.466  0.00  0.00    +0.000 C 
ATOM     20  F   UNL     1       6.336   5.870  19.484  0.00  0.00    +0.000 F 
ATOM     21  F   UNL     1       8.099   4.696  18.963  0.00  0.00    +0.000 F 
ATOM     22  F   UNL     1       7.862   6.731  18.248  0.00  0.00    +0.000 F 
ENDBRANCH  18  19
ENDBRANCH  11  13
ENDBRANCH   8  11
ENDBRANCH   7   8
ENDBRANCH   1   7
BRANCH   4  23
ATOM     23  C   UNL     1       0.827  11.054  19.894  0.00  0.00    +0.000 C 
BRANCH  23  24
ATOM     24  N   UNL     1      -0.351  11.684  19.310  0.00  0.00    +0.000 NA
ATOM     25  H   UNL     1      -0.212  11.842  18.313  0.00  0.00    +0.000 HD
BRANCH  24  26
ATOM     26  C   UNL     1      -1.533  10.846  19.502  0.00  0.00    +0.000 C 
BRANCH  26  27
ATOM     27  C   UNL     1      -2.413  10.868  18.273  0.00  0.00    +0.000 A 
ATOM     28  C   UNL     1      -1.945  10.187  17.131  0.00  0.00    +0.000 A 
ATOM     29  C   UNL     1      -2.680  10.180  15.955  0.00  0.00    +0.000 A 
ATOM     30  C   UNL     1      -3.904  10.843  15.902  0.00  0.00    +0.000 A 
ATOM     31  C   UNL     1      -4.415  11.502  17.028  0.00  0.00    +0.000 A 
ATOM     32  C   UNL     1      -5.665  12.141  16.955  0.00  0.00    +0.000 A 
ATOM     33  C   UNL     1      -6.207  12.791  18.061  0.00  0.00    +0.000 A 
ATOM     34  C   UNL     1      -5.506  12.807  19.259  0.00  0.00    +0.000 A 
ATOM     35  C   UNL     1      -4.260  12.179  19.349  0.00  0.00    +0.000 A 
ATOM     36  C   UNL     1      -3.680  11.517  18.241  0.00  0.00    +0.000 A 
ENDBRANCH  26  27
ENDBRANCH  24  26
ENDBRANCH  23  24
ENDBRANCH   4  23
TORSDOF 9
ENDMDL
MODEL 2
REMARK VINA RESULT:      -8.8      6.067      9.007
REMARK  Name = 
REMARK  9 active torsions:
REMARK  status: ('A' for Active; 'I' for Inactive)
REMARK    1  A    between atoms: S_2  and  N_4
REMARK    2  A    between atoms: S_2  and  C_25
REMARK    3  A    between atoms: N_4  and  C_5
REMARK    4  A    between atoms: C_5  and  C_6
REMARK    5  A    between atoms: C_9  and  C_10
REMARK    6  A    between atoms: C_10  and  N_11
REMARK    7  A    between atoms: N_11  and  C_12
REMARK    8  A    between atoms: C_12  and  C_13
REMARK    9  A    between atoms: C_30  and  C_31
REMARK                            x       y       z     vdW  Elec       q    Type
REMARK                         _______ _______ _______ _____ _____    ______ ____
ROOT
ATOM      1  C   UNL     1       8.131   7.741  18.011  0.00  0.00    +0.000 C 
ATOM      2  C   UNL     1       8.106   6.452  18.848  0.00  0.00    +0.000 C 
ATOM      3  C   UNL     1       7.578   5.259  18.047  0.00  0.00    +0.000 C 
ATOM      4  C   UNL     1       6.199   5.545  17.428  0.00  0.00    +0.000 C 
ATOM      5  C   UNL     1       6.253   6.820  16.579  0.00  0.00    +0.000 C 
ATOM      6  C   UNL     1       6.746   8.004  17.397  0.00  0.00    +0.000 C 
ENDROOT
BRANCH   1   7
ATOM      7  C   UNL     1       8.529   8.977  18.830  0.00  0.00    +0.000 C 
BRANCH   7   8
ATOM      8  N   UNL     1       8.893  10.112  17.979  0.00  0.00    +0.000 NA
ATOM      9  H   UNL     1       9.016   9.973  16.974  0.00  0.00    +0.000 HD
BRANCH   8  11
ATOM     10  O   UNL     1      10.120  10.999  20.037  0.00  0.00    +0.000 OA
ATOM     11  S   UNL     1       9.975  11.234  18.618  0.00  0.00    +0.000 S 
ATOM     12  O   UNL     1      11.121  11.276  17.745  0.00  0.00    +0.000 OA
BRANCH  11  13
ATOM     13  C   UNL     1       9.093  12.781  18.445  0.00  0.00    +0.000 A 
ATOM     14  C   UNL     1       7.916  12.757  17.676  0.00  0.00    +0.000 A 
ATOM     15  C   UNL     1       7.213  13.932  17.421  0.00  0.00    +0.000 A 
ATOM     16  C   UNL     1       7.672  15.138  17.938  0.00  0.00    +0.000 A 
ATOM     17  C   UNL     1       8.830  15.165  18.715  0.00  0.00    +0.000 A 
ATOM     18  C   UNL     1       9.569  13.991  18.985  0.00  0.00    +0.000 A 
BRANCH  18  19
ATOM     19  C   UNL     1      10.811  14.163  19.828  0.00  0.00    +0.000 C 
ATOM     20  F   UNL     1      11.170  15.434  20.133  0.00  0.00    +0.000 F 
ATOM     21  F   UNL     1      10.736  13.484  21.006  0.00  0.00    +0.000 F 
ATOM     22  F   UNL     1      11.906  13.657  19.187  0.00  0.00    +0.000 F 
ENDBRANCH  18  19
ENDBRANCH  11  13
ENDBRANCH   8  11
ENDBRANCH   7   8
ENDBRANCH   1   7
BRANCH   4  23
ATOM     23  C   UNL     1       5.686   4.387  16.557  0.00  0.00    +0.000 C 
BRANCH  23  24
ATOM     24  N   UNL     1       5.058   3.350  17.369  0.00  0.00    +0.000 NA
ATOM     25  H   UNL     1       5.355   3.433  18.340  0.00  0.00    +0.000 HD
BRANCH  24  26
ATOM     26  C   UNL     1       3.603   3.453  17.302  0.00  0.00    +0.000 C 
BRANCH  26  27
ATOM     27  C   UNL     1       3.027   3.836  18.646  0.00  0.00    +0.000 A 
ATOM     28  C   UNL     1       2.869   2.808  19.598  0.00  0.00    +0.000 A 
ATOM     29  C   UNL     1       2.324   3.072  20.846  0.00  0.00    +0.000 A 
ATOM     30  C   UNL     1       1.940   4.371  21.172  0.00  0.00    +0.000 A 
ATOM     31  C   UNL     1       2.114   5.422  20.262  0.00  0.00    +0.000 A 
ATOM     32  C   UNL     1       1.741   6.728  20.627  0.00  0.00    +0.000 A 
ATOM     33  C   UNL     1       1.917   7.796  19.750  0.00  0.00    +0.000 A 
ATOM     34  C   UNL     1       2.471   7.573  18.498  0.00  0.00    +0.000 A 
ATOM     35  C   UNL     1       2.844   6.281  18.118  0.00  0.00    +0.000 A 
ATOM     36  C   UNL     1       2.673   5.174  18.983  0.00  0.00    +0.000 A 
ENDBRANCH  26  27
ENDBRANCH  24  26
ENDBRANCH  23  24
ENDBRANCH   4  23
TORSDOF 9
ENDMDL
MODEL 3
REMARK VINA RESULT:      -8.7      4.879     10.484
REMARK  Name = 
REMARK  9 active torsions:
REMARK  status: ('A' for Active; 'I' for Inactive)
REMARK    1  A    between atoms: S_2  and  N_4
REMARK    2  A    between atoms: S_2  and  C_25
REMARK    3  A    between atoms: N_4  and  C_5
REMARK    4  A    between atoms: C_5  and  C_6
REMARK    5  A    between atoms: C_9  and  C_10
REMARK    6  A    between atoms: C_10  and  N_11
REMARK    7  A    between atoms: N_11  and  C_12
REMARK    8  A    between atoms: C_12  and  C_13
REMARK    9  A    between atoms: C_30  and  C_31
REMARK                            x       y       z     vdW  Elec       q    Type
REMARK                         _______ _______ _______ _____ _____    ______ ____
ROOT
ATOM      1  C   UNL     1       1.434   8.760  18.810  0.00  0.00    +0.000 C 
ATOM      2  C   UNL     1       2.477   8.029  17.949  0.00  0.00    +0.000 C 
ATOM      3  C   UNL     1       2.504   6.525  18.236  0.00  0.00    +0.000 C 
ATOM      4  C   UNL     1       2.712   6.227  19.731  0.00  0.00    +0.000 C 
ATOM      5  C   UNL     1       1.647   6.945  20.567  0.00  0.00    +0.000 C 
ATOM      6  C   UNL     1       1.655   8.442  20.298  0.00  0.00    +0.000 C 
ENDROOT
BRANCH   1   7
ATOM      7  C   UNL     1       1.480  10.284  18.638  0.00  0.00    +0.000 C 
BRANCH   7   8
ATOM      8  N   UNL     1       0.219  10.824  18.123  0.00  0.00    +0.000 NA
ATOM      9  H   UNL     1       0.169  11.160  17.159  0.00  0.00    +0.000 HD
BRANCH   8  11
ATOM     10  O   UNL     1      -0.652  11.154  20.501  0.00  0.00    +0.000 OA
ATOM     11  S   UNL     1      -0.712  11.744  19.183  0.00  0.00    +0.000 S 
ATOM     12  O   UNL     1      -0.373  13.129  18.966  0.00  0.00    +0.000 OA
BRANCH  11  13
ATOM     13  C   UNL     1      -2.376  11.482  18.581  0.00  0.00    +0.000 A 
ATOM     14  C   UNL     1      -2.516  10.682  17.433  0.00  0.00    +0.000 A 
ATOM     15  C   UNL     1      -3.767  10.495  16.849  0.00  0.00    +0.000 A 
ATOM     16  C   UNL     1      -4.888  11.096  17.409  0.00  0.00    +0.000 A 
ATOM     17  C   UNL     1      -4.757  11.877  18.558  0.00  0.00    +0.000 A 
ATOM     18  C   UNL     1      -3.501  12.091  19.169  0.00  0.00    +0.000 A 
BRANCH  18  19
ATOM     19  C   UNL     1      -3.498  12.969  20.399  0.00  0.00    +0.000 C 
ATOM     20  F   UNL     1      -2.674  14.046  20.378  0.00  0.00    +0.000 F 
ATOM     21  F   UNL     1      -4.740  13.431  20.708  0.00  0.00    +0.000 F 
ATOM     22  F   UNL     1      -3.089  12.264  21.496  0.00  0.00    +0.000 F 
ENDBRANCH  18  19
ENDBRANCH  11  13
ENDBRANCH   8  11
ENDBRANCH   7   8
ENDBRANCH   1   7
BRANCH   4  23
ATOM     23  C   UNL     1       2.666   4.723  20.050  0.00  0.00    +0.000 C 
BRANCH  23  24
ATOM     24  N   UNL     1       2.636   3.924  18.830  0.00  0.00    +0.000 NA
ATOM     25  H   UNL     1       2.414   4.511  18.026  0.00  0.00    +0.000 HD
BRANCH  24  26
ATOM     26  C   UNL     1       3.925   3.274  18.607  0.00  0.00    +0.000 C 
BRANCH  26  27
ATOM     27  C   UNL     1       4.744   4.038  17.591  0.00  0.00    +0.000 A 
ATOM     28  C   UNL     1       4.375   3.911  16.237  0.00  0.00    +0.000 A 
ATOM     29  C   UNL     1       5.092   4.558  15.241  0.00  0.00    +0.000 A 
ATOM     30  C   UNL     1       6.182   5.355  15.581  0.00  0.00    +0.000 A 
ATOM     31  C   UNL     1       6.557   5.529  16.919  0.00  0.00    +0.000 A 
ATOM     32  C   UNL     1       7.646   6.360  17.237  0.00  0.00    +0.000 A 
ATOM     33  C   UNL     1       8.032   6.565  18.559  0.00  0.00    +0.000 A 
ATOM     34  C   UNL     1       7.331   5.945  19.583  0.00  0.00    +0.000 A 
ATOM     35  C   UNL     1       6.247   5.114  19.286  0.00  0.00    +0.000 A 
ATOM     36  C   UNL     1       5.835   4.879  17.953  0.00  0.00    +0.000 A 
ENDBRANCH  26  27
ENDBRANCH  24  26
ENDBRANCH  23  24
ENDBRANCH   4  23
TORSDOF 9
ENDMDL
MODEL 4
REMARK VINA RESULT:      -8.5      6.851     11.584
REMARK  Name = 
REMARK  9 active torsions:
REMARK  status: ('A' for Active; 'I' for Inactive)
REMARK    1  A    between atoms: S_2  and  N_4
REMARK    2  A    between atoms: S_2  and  C_25
REMARK    3  A    between atoms: N_4  and  C_5
REMARK    4  A    between atoms: C_5  and  C_6
REMARK    5  A    between atoms: C_9  and  C_10
REMARK    6  A    between atoms: C_10  and  N_11
REMARK    7  A    between atoms: N_11  and  C_12
REMARK    8  A    between atoms: C_12  and  C_13
REMARK    9  A    between atoms: C_30  and  C_31
REMARK                            x       y       z     vdW  Elec       q    Type
REMARK                         _______ _______ _______ _____ _____    ______ ____
ROOT
ATOM      1  C   UNL     1       0.138  10.262  22.053  0.00  0.00    +0.000 C 
ATOM      2  C   UNL     1       0.122   8.791  21.604  0.00  0.00    +0.000 C 
ATOM      3  C   UNL     1       1.124   8.524  20.479  0.00  0.00    +0.000 C 
ATOM      4  C   UNL     1       0.915   9.471  19.284  0.00  0.00    +0.000 C 
ATOM      5  C   UNL     1       0.959  10.931  19.749  0.00  0.00    +0.000 C 
ATOM      6  C   UNL     1      -0.066  11.189  20.843  0.00  0.00    +0.000 C 
ENDROOT
BRANCH   1   7
ATOM      7  C   UNL     1      -0.951  10.583  23.085  0.00  0.00    +0.000 C 
BRANCH   7   8
ATOM      8  N   UNL     1      -1.202  12.022  23.197  0.00  0.00    +0.000 NA
ATOM      9  H   UNL     1      -0.645  12.584  23.845  0.00  0.00    +0.000 HD
BRANCH   8  11
ATOM     10  O   UNL     1      -3.152  12.757  21.721  0.00  0.00    +0.000 OA
ATOM     11  S   UNL     1      -2.805  12.531  23.105  0.00  0.00    +0.000 S 
ATOM     12  O   UNL     1      -3.587  11.652  23.939  0.00  0.00    +0.000 OA
BRANCH  11  13
ATOM     13  C   UNL     1      -2.758  14.139  23.889  0.00  0.00    +0.000 A 
ATOM     14  C   UNL     1      -1.501  14.595  24.325  0.00  0.00    +0.000 A 
ATOM     15  C   UNL     1      -1.386  15.797  25.019  0.00  0.00    +0.000 A 
ATOM     16  C   UNL     1      -2.520  16.558  25.277  0.00  0.00    +0.000 A 
ATOM     17  C   UNL     1      -3.768  16.118  24.832  0.00  0.00    +0.000 A 
ATOM     18  C   UNL     1      -3.917  14.899  24.132  0.00  0.00    +0.000 A 
BRANCH  18  19
ATOM     19  C   UNL     1      -5.325  14.535  23.720  0.00  0.00    +0.000 C 
ATOM     20  F   UNL     1      -5.546  14.356  22.395  0.00  0.00    +0.000 F 
ATOM     21  F   UNL     1      -5.774  13.413  24.348  0.00  0.00    +0.000 F 
ATOM     22  F   UNL     1      -6.203  15.522  24.069  0.00  0.00    +0.000 F 
ENDBRANCH  18  19
ENDBRANCH  11  13
ENDBRANCH   8  11
ENDBRANCH   7   8
ENDBRANCH   1   7
BRANCH   4  23
ATOM     23  C   UNL     1       1.961   9.269  18.175  0.00  0.00    +0.000 C 
BRANCH  23  24
ATOM     24  N   UNL     1       2.086   7.861  17.815  0.00  0.00    +0.000 NA
ATOM     25  H   UNL     1       2.138   7.757  16.802  0.00  0.00    +0.000 HD
BRANCH  24  26
ATOM     26  C   UNL     1       3.282   7.279  18.419  0.00  0.00    +0.000 C 
BRANCH  26  27
ATOM     27  C   UNL     1       3.373   5.800  18.115  0.00  0.00    +0.000 A 
ATOM     28  C   UNL     1       4.214   5.409  17.054  0.00  0.00    +0.000 A 
ATOM     29  C   UNL     1       4.333   4.074  16.695  0.00  0.00    +0.000 A 
ATOM     30  C   UNL     1       3.623   3.104  17.399  0.00  0.00    +0.000 A 
ATOM     31  C   UNL     1       2.803   3.455  18.479  0.00  0.00    +0.000 A 
ATOM     32  C   UNL     1       2.118   2.452  19.189  0.00  0.00    +0.000 A 
ATOM     33  C   UNL     1       1.309   2.767  20.277  0.00  0.00    +0.000 A 
ATOM     34  C   UNL     1       1.176   4.090  20.674  0.00  0.00    +0.000 A 
ATOM     35  C   UNL     1       1.848   5.100  19.979  0.00  0.00    +0.000 A 
ATOM     36  C   UNL     1       2.672   4.813  18.865  0.00  0.00    +0.000 A 
ENDBRANCH  26  27
ENDBRANCH  24  26
ENDBRANCH  23  24
ENDBRANCH   4  23
TORSDOF 9
ENDMDL
MODEL 5
REMARK VINA RESULT:      -8.5      1.703      2.881
REMARK  Name = 
REMARK  9 active torsions:
REMARK  status: ('A' for Active; 'I' for Inactive)
REMARK    1  A    between atoms: S_2  and  N_4
REMARK    2  A    between atoms: S_2  and  C_25
REMARK    3  A    between atoms: N_4  and  C_5
REMARK    4  A    between atoms: C_5  and  C_6
REMARK    5  A    between atoms: C_9  and  C_10
REMARK    6  A    between atoms: C_10  and  N_11
REMARK    7  A    between atoms: N_11  and  C_12
REMARK    8  A    between atoms: C_12  and  C_13
REMARK    9  A    between atoms: C_30  and  C_31
REMARK                            x       y       z     vdW  Elec       q    Type
REMARK                         _______ _______ _______ _____ _____    ______ ____
ROOT
ATOM      1  C   UNL     1       2.801   6.463  19.668  0.00  0.00    +0.000 C 
ATOM      2  C   UNL     1       2.714   6.833  18.178  0.00  0.00    +0.000 C 
ATOM      3  C   UNL     1       2.566   8.342  17.970  0.00  0.00    +0.000 C 
ATOM      4  C   UNL     1       1.374   8.918  18.755  0.00  0.00    +0.000 C 
ATOM      5  C   UNL     1       1.494   8.559  20.240  0.00  0.00    +0.000 C 
ATOM      6  C   UNL     1       1.605   7.054  20.434  0.00  0.00    +0.000 C 
ENDROOT
BRANCH   1   7
ATOM      7  C   UNL     1       2.814   4.947  19.907  0.00  0.00    +0.000 C 
BRANCH   7   8
ATOM      8  N   UNL     1       3.101   4.194  18.683  0.00  0.00    +0.000 NA
ATOM      9  H   UNL     1       2.336   3.749  18.172  0.00  0.00    +0.000 HD
BRANCH   8  11
ATOM     10  O   UNL     1       4.799   2.803  19.989  0.00  0.00    +0.000 OA
ATOM     11  S   UNL     1       4.519   3.285  18.656  0.00  0.00    +0.000 S 
ATOM     12  O   UNL     1       4.432   2.381  17.536  0.00  0.00    +0.000 OA
BRANCH  11  13
ATOM     13  C   UNL     1       5.770   4.509  18.282  0.00  0.00    +0.000 A 
ATOM     14  C   UNL     1       6.499   5.021  19.369  0.00  0.00    +0.000 A 
ATOM     15  C   UNL     1       7.434   6.036  19.178  0.00  0.00    +0.000 A 
ATOM     16  C   UNL     1       7.654   6.543  17.903  0.00  0.00    +0.000 A 
ATOM     17  C   UNL     1       6.944   6.026  16.818  0.00  0.00    +0.000 A 
ATOM     18  C   UNL     1       5.985   5.001  16.982  0.00  0.00    +0.000 A 
BRANCH  18  19
ATOM     19  C   UNL     1       5.277   4.543  15.727  0.00  0.00    +0.000 C 
ATOM     20  F   UNL     1       5.350   5.366  14.651  0.00  0.00    +0.000 F 
ATOM     21  F   UNL     1       5.700   3.318  15.312  0.00  0.00    +0.000 F 
ATOM     22  F   UNL     1       3.936   4.409  15.948  0.00  0.00    +0.000 F 
ENDBRANCH  18  19
ENDBRANCH  11  13
ENDBRANCH   8  11
ENDBRANCH   7   8
ENDBRANCH   1   7
BRANCH   4  23
ATOM     23  C   UNL     1       1.255  10.445  18.619  0.00  0.00    +0.000 C 
BRANCH  23  24
ATOM     24  N   UNL     1       0.343  10.996  19.615  0.00  0.00    +0.000 NA
ATOM     25  H   UNL     1       0.829  11.141  20.499  0.00  0.00    +0.000 HD
BRANCH  24  26
ATOM     26  C   UNL     1      -0.214  12.267  19.159  0.00  0.00    +0.000 C 
BRANCH  26  27
ATOM     27  C   UNL     1      -1.725  12.230  19.178  0.00  0.00    +0.000 A 
ATOM     28  C   UNL     1      -2.369  12.743  20.322  0.00  0.00    +0.000 A 
ATOM     29  C   UNL     1      -3.752  12.723  20.430  0.00  0.00    +0.000 A 
ATOM     30  C   UNL     1      -4.518  12.202  19.389  0.00  0.00    +0.000 A 
ATOM     31  C   UNL     1      -3.912  11.715  18.224  0.00  0.00    +0.000 A 
ATOM     32  C   UNL     1      -4.711  11.218  17.178  0.00  0.00    +0.000 A 
ATOM     33  C   UNL     1      -4.139  10.742  16.001  0.00  0.00    +0.000 A 
ATOM     34  C   UNL     1      -2.759  10.759  15.852  0.00  0.00    +0.000 A 
ATOM     35  C   UNL     1      -1.951  11.246  16.883  0.00  0.00    +0.000 A 
ATOM     36  C   UNL     1      -2.500  11.730  18.093  0.00  0.00    +0.000 A 
ENDBRANCH  26  27
ENDBRANCH  24  26
ENDBRANCH  23  24
ENDBRANCH   4  23
TORSDOF 9
ENDMDL
MODEL 6
REMARK VINA RESULT:      -8.4      4.538     10.138
REMARK  Name = 
REMARK  9 active torsions:
REMARK  status: ('A' for Active; 'I' for Inactive)
REMARK    1  A    between atoms: S_2  and  N_4
REMARK    2  A    between atoms: S_2  and  C_25
REMARK    3  A    between atoms: N_4  and  C_5
REMARK    4  A    between atoms: C_5  and  C_6
REMARK    5  A    between atoms: C_9  and  C_10
REMARK    6  A    between atoms: C_10  and  N_11
REMARK    7  A    between atoms: N_11  and  C_12
REMARK    8  A    between atoms: C_12  and  C_13
REMARK    9  A    between atoms: C_30  and  C_31
REMARK                            x       y       z     vdW  Elec       q    Type
REMARK                         _______ _______ _______ _____ _____    ______ ____
ROOT
ATOM      1  C   UNL     1       2.507   8.094  18.464  0.00  0.00    +0.000 C 
ATOM      2  C   UNL     1       2.158   7.692  19.906  0.00  0.00    +0.000 C 
ATOM      3  C   UNL     1       2.501   6.229  20.193  0.00  0.00    +0.000 C 
ATOM      4  C   UNL     1       1.849   5.273  19.178  0.00  0.00    +0.000 C 
ATOM      5  C   UNL     1       2.231   5.677  17.749  0.00  0.00    +0.000 C 
ATOM      6  C   UNL     1       1.852   7.123  17.468  0.00  0.00    +0.000 C 
ENDROOT
BRANCH   1   7
ATOM      7  C   UNL     1       2.049   9.515  18.112  0.00  0.00    +0.000 C 
BRANCH   7   8
ATOM      8  N   UNL     1       0.598   9.601  17.931  0.00  0.00    +0.000 NA
ATOM      9  H   UNL     1       0.203   9.574  16.988  0.00  0.00    +0.000 HD
BRANCH   8  11
ATOM     10  O   UNL     1      -0.461   9.972  20.226  0.00  0.00    +0.000 OA
ATOM     11  S   UNL     1      -0.245  10.635  18.960  0.00  0.00    +0.000 S 
ATOM     12  O   UNL     1       0.392  11.927  18.892  0.00  0.00    +0.000 OA
BRANCH  11  13
ATOM     13  C   UNL     1      -1.845  10.766  18.171  0.00  0.00    +0.000 A 
ATOM     14  C   UNL     1      -2.043  10.000  17.009  0.00  0.00    +0.000 A 
ATOM     15  C   UNL     1      -3.229  10.105  16.286  0.00  0.00    +0.000 A 
ATOM     16  C   UNL     1      -4.229  10.967  16.718  0.00  0.00    +0.000 A 
ATOM     17  C   UNL     1      -4.044  11.718  17.880  0.00  0.00    +0.000 A 
ATOM     18  C   UNL     1      -2.849  11.638  18.631  0.00  0.00    +0.000 A 
BRANCH  18  19
ATOM     19  C   UNL     1      -2.774  12.515  19.860  0.00  0.00    +0.000 C 
ATOM     20  F   UNL     1      -2.460  11.903  21.028  0.00  0.00    +0.000 F 
ATOM     21  F   UNL     1      -1.897  13.544  19.708  0.00  0.00    +0.000 F 
ATOM     22  F   UNL     1      -3.982  13.102  20.111  0.00  0.00    +0.000 F 
ENDBRANCH  18  19
ENDBRANCH  11  13
ENDBRANCH   8  11
ENDBRANCH   7   8
ENDBRANCH   1   7
BRANCH   4  23
ATOM     23  C   UNL     1       2.244   3.805  19.404  0.00  0.00    +0.000 C 
BRANCH  23  24
ATOM     24  N   UNL     1       3.617   3.694  19.882  0.00  0.00    +0.000 NA
ATOM     25  H   UNL     1       3.640   3.240  20.795  0.00  0.00    +0.000 HD
BRANCH  24  26
ATOM     26  C   UNL     1       4.430   2.924  18.944  0.00  0.00    +0.000 C 
BRANCH  26  27
ATOM     27  C   UNL     1       4.973   3.813  17.848  0.00  0.00    +0.000 A 
ATOM     28  C   UNL     1       4.440   3.644  16.554  0.00  0.00    +0.000 A 
ATOM     29  C   UNL     1       4.902   4.401  15.489  0.00  0.00    +0.000 A 
ATOM     30  C   UNL     1       5.898   5.353  15.699  0.00  0.00    +0.000 A 
ATOM     31  C   UNL     1       6.428   5.570  16.977  0.00  0.00    +0.000 A 
ATOM     32  C   UNL     1       7.414   6.554  17.166  0.00  0.00    +0.000 A 
ATOM     33  C   UNL     1       7.948   6.804  18.427  0.00  0.00    +0.000 A 
ATOM     34  C   UNL     1       7.500   6.075  19.520  0.00  0.00    +0.000 A 
ATOM     35  C   UNL     1       6.522   5.091  19.350  0.00  0.00    +0.000 A 
ATOM     36  C   UNL     1       5.965   4.808  18.080  0.00  0.00    +0.000 A 
ENDBRANCH  26  27
ENDBRANCH  24  26
ENDBRANCH  23  24
ENDBRANCH   4  23
TORSDOF 9
ENDMDL
MODEL 7
REMARK VINA RESULT:      -8.4      5.398      9.728
REMARK  Name = 
REMARK  9 active torsions:
REMARK  status: ('A' for Active; 'I' for Inactive)
REMARK    1  A    between atoms: S_2  and  N_4
REMARK    2  A    between atoms: S_2  and  C_25
REMARK    3  A    between atoms: N_4  and  C_5
REMARK    4  A    between atoms: C_5  and  C_6
REMARK    5  A    between atoms: C_9  and  C_10
REMARK    6  A    between atoms: C_10  and  N_11
REMARK    7  A    between atoms: N_11  and  C_12
REMARK    8  A    between atoms: C_12  and  C_13
REMARK    9  A    between atoms: C_30  and  C_31
REMARK                            x       y       z     vdW  Elec       q    Type
REMARK                         _______ _______ _______ _____ _____    ______ ____
ROOT
ATOM      1  C   UNL     1       6.035   4.778  18.250  0.00  0.00    +0.000 C 
ATOM      2  C   UNL     1       5.293   5.903  17.510  0.00  0.00    +0.000 C 
ATOM      3  C   UNL     1       6.256   6.947  16.940  0.00  0.00    +0.000 C 
ATOM      4  C   UNL     1       7.193   7.517  18.019  0.00  0.00    +0.000 C 
ATOM      5  C   UNL     1       7.941   6.380  18.726  0.00  0.00    +0.000 C 
ATOM      6  C   UNL     1       6.970   5.370  19.318  0.00  0.00    +0.000 C 
ENDROOT
BRANCH   1   7
ATOM      7  C   UNL     1       5.085   3.793  18.945  0.00  0.00    +0.000 C 
BRANCH   7   8
ATOM      8  N   UNL     1       4.450   2.873  17.998  0.00  0.00    +0.000 NA
ATOM      9  H   UNL     1       4.911   2.662  17.110  0.00  0.00    +0.000 HD
BRANCH   8  11
ATOM     10  O   UNL     1       2.425   3.257  16.488  0.00  0.00    +0.000 OA
ATOM     11  S   UNL     1       2.773   2.953  17.858  0.00  0.00    +0.000 S 
ATOM     12  O   UNL     1       2.227   1.800  18.530  0.00  0.00    +0.000 OA
BRANCH  11  13
ATOM     13  C   UNL     1       2.361   4.402  18.823  0.00  0.00    +0.000 A 
ATOM     14  C   UNL     1       2.304   5.626  18.135  0.00  0.00    +0.000 A 
ATOM     15  C   UNL     1       2.072   6.815  18.824  0.00  0.00    +0.000 A 
ATOM     16  C   UNL     1       1.888   6.791  20.201  0.00  0.00    +0.000 A 
ATOM     17  C   UNL     1       1.928   5.576  20.886  0.00  0.00    +0.000 A 
ATOM     18  C   UNL     1       2.168   4.356  20.216  0.00  0.00    +0.000 A 
BRANCH  18  19
ATOM     19  C   UNL     1       2.200   3.116  21.080  0.00  0.00    +0.000 C 
ATOM     20  F   UNL     1       3.287   2.315  20.959  0.00  0.00    +0.000 F 
ATOM     21  F   UNL     1       2.070   3.404  22.404  0.00  0.00    +0.000 F 
ATOM     22  F   UNL     1       1.151   2.291  20.784  0.00  0.00    +0.000 F 
ENDBRANCH  18  19
ENDBRANCH  11  13
ENDBRANCH   8  11
ENDBRANCH   7   8
ENDBRANCH   1   7
BRANCH   4  23
ATOM     23  C   UNL     1       8.220   8.511  17.451  0.00  0.00    +0.000 C 
BRANCH  23  24
ATOM     24  N   UNL     1       8.341   9.690  18.301  0.00  0.00    +0.000 NA
ATOM     25  H   UNL     1       8.323   9.422  19.285  0.00  0.00    +0.000 HD
BRANCH  24  26
ATOM     26  C   UNL     1       9.586  10.402  18.021  0.00  0.00    +0.000 C 
BRANCH  26  27
ATOM     27  C   UNL     1       9.853  11.453  19.075  0.00  0.00    +0.000 A 
ATOM     28  C   UNL     1       9.400  11.187  20.383  0.00  0.00    +0.000 A 
ATOM     29  C   UNL     1       9.582  12.110  21.401  0.00  0.00    +0.000 A 
ATOM     30  C   UNL     1      10.235  13.312  21.135  0.00  0.00    +0.000 A 
ATOM     31  C   UNL     1      10.728  13.594  19.855  0.00  0.00    +0.000 A 
ATOM     32  C   UNL     1      11.405  14.804  19.620  0.00  0.00    +0.000 A 
ATOM     33  C   UNL     1      11.921  15.106  18.362  0.00  0.00    +0.000 A 
ATOM     34  C   UNL     1      11.769  14.201  17.321  0.00  0.00    +0.000 A 
ATOM     35  C   UNL     1      11.096  12.995  17.537  0.00  0.00    +0.000 A 
ATOM     36  C   UNL     1      10.554  12.662  18.801  0.00  0.00    +0.000 A 
ENDBRANCH  26  27
ENDBRANCH  24  26
ENDBRANCH  23  24
ENDBRANCH   4  23
TORSDOF 9
ENDMDL
MODEL 8
REMARK VINA RESULT:      -8.4      1.762      2.537
REMARK  Name = 
REMARK  9 active torsions:
REMARK  status: ('A' for Active; 'I' for Inactive)
REMARK    1  A    between atoms: S_2  and  N_4
REMARK    2  A    between atoms: S_2  and  C_25
REMARK    3  A    between atoms: N_4  and  C_5
REMARK    4  A    between atoms: C_5  and  C_6
REMARK    5  A    between atoms: C_9  and  C_10
REMARK    6  A    between atoms: C_10  and  N_11
REMARK    7  A    between atoms: N_11  and  C_12
REMARK    8  A    between atoms: C_12  and  C_13
REMARK    9  A    between atoms: C_30  and  C_31
REMARK                            x       y       z     vdW  Elec       q    Type
REMARK                         _______ _______ _______ _____ _____    ______ ____
ROOT
ATOM      1  C   UNL     1       2.222   6.782  19.581  0.00  0.00    +0.000 C 
ATOM      2  C   UNL     1       1.841   7.385  20.943  0.00  0.00    +0.000 C 
ATOM      3  C   UNL     1       0.724   8.424  20.818  0.00  0.00    +0.000 C 
ATOM      4  C   UNL     1       1.072   9.526  19.801  0.00  0.00    +0.000 C 
ATOM      5  C   UNL     1       1.423   8.903  18.445  0.00  0.00    +0.000 C 
ATOM      6  C   UNL     1       2.558   7.899  18.579  0.00  0.00    +0.000 C 
ENDROOT
BRANCH   1   7
ATOM      7  C   UNL     1       3.429   5.838  19.662  0.00  0.00    +0.000 C 
BRANCH   7   8
ATOM      8  N   UNL     1       3.280   4.671  18.790  0.00  0.00    +0.000 NA
ATOM      9  H   UNL     1       2.430   4.106  18.841  0.00  0.00    +0.000 HD
BRANCH   8  11
ATOM     10  O   UNL     1       4.987   2.998  19.692  0.00  0.00    +0.000 OA
ATOM     11  S   UNL     1       4.659   3.747  18.501  0.00  0.00    +0.000 S 
ATOM     12  O   UNL     1       4.482   3.091  17.229  0.00  0.00    +0.000 OA
BRANCH  11  13
ATOM     13  C   UNL     1       5.935   4.987  18.309  0.00  0.00    +0.000 A 
ATOM     14  C   UNL     1       6.883   5.085  19.343  0.00  0.00    +0.000 A 
ATOM     15  C   UNL     1       7.861   6.077  19.314  0.00  0.00    +0.000 A 
ATOM     16  C   UNL     1       7.907   6.973  18.253  0.00  0.00    +0.000 A 
ATOM     17  C   UNL     1       6.978   6.869  17.216  0.00  0.00    +0.000 A 
ATOM     18  C   UNL     1       5.971   5.878  17.221  0.00  0.00    +0.000 A 
BRANCH  18  19
ATOM     19  C   UNL     1       5.022   5.886  16.044  0.00  0.00    +0.000 C 
ATOM     20  F   UNL     1       5.167   4.890  15.136  0.00  0.00    +0.000 F 
ATOM     21  F   UNL     1       3.717   5.877  16.431  0.00  0.00    +0.000 F 
ATOM     22  F   UNL     1       5.174   7.027  15.307  0.00  0.00    +0.000 F 
ENDBRANCH  18  19
ENDBRANCH  11  13
ENDBRANCH   8  11
ENDBRANCH   7   8
ENDBRANCH   1   7
BRANCH   4  23
ATOM     23  C   UNL     1      -0.070  10.536  19.606  0.00  0.00    +0.000 C 
BRANCH  23  24
ATOM     24  N   UNL     1       0.111  11.309  18.382  0.00  0.00    +0.000 NA
ATOM     25  H   UNL     1      -0.002  10.711  17.564  0.00  0.00    +0.000 HD
BRANCH  24  26
ATOM     26  C   UNL     1      -0.856  12.402  18.313  0.00  0.00    +0.000 C 
BRANCH  26  27
ATOM     27  C   UNL     1      -2.243  11.875  18.019  0.00  0.00    +0.000 A 
ATOM     28  C   UNL     1      -2.421  11.159  16.819  0.00  0.00    +0.000 A 
ATOM     29  C   UNL     1      -3.667  10.666  16.463  0.00  0.00    +0.000 A 
ATOM     30  C   UNL     1      -4.757  10.867  17.307  0.00  0.00    +0.000 A 
ATOM     31  C   UNL     1      -4.609  11.546  18.523  0.00  0.00    +0.000 A 
ATOM     32  C   UNL     1      -5.720  11.713  19.369  0.00  0.00    +0.000 A 
ATOM     33  C   UNL     1      -5.600  12.368  20.592  0.00  0.00    +0.000 A 
ATOM     34  C   UNL     1      -4.366  12.864  20.987  0.00  0.00    +0.000 A 
ATOM     35  C   UNL     1      -3.252  12.709  20.158  0.00  0.00    +0.000 A 
ATOM     36  C   UNL     1      -3.342  12.055  18.907  0.00  0.00    +0.000 A 
ENDBRANCH  26  27
ENDBRANCH  24  26
ENDBRANCH  23  24
ENDBRANCH   4  23
TORSDOF 9
ENDMDL
MODEL 9
REMARK VINA RESULT:      -8.4      6.328     11.009
REMARK  Name = 
REMARK  9 active torsions:
REMARK  status: ('A' for Active; 'I' for Inactive)
REMARK    1  A    between atoms: S_2  and  N_4
REMARK    2  A    between atoms: S_2  and  C_25
REMARK    3  A    between atoms: N_4  and  C_5
REMARK    4  A    between atoms: C_5  and  C_6
REMARK    5  A    between atoms: C_9  and  C_10
REMARK    6  A    between atoms: C_10  and  N_11
REMARK    7  A    between atoms: N_11  and  C_12
REMARK    8  A    between atoms: C_12  and  C_13
REMARK    9  A    between atoms: C_30  and  C_31
REMARK                            x       y       z     vdW  Elec       q    Type
REMARK                         _______ _______ _______ _____ _____    ______ ____
ROOT
ATOM      1  C   UNL     1      -0.518  11.109  22.161  0.00  0.00    +0.000 C 
ATOM      2  C   UNL     1      -0.410   9.790  22.945  0.00  0.00    +0.000 C 
ATOM      3  C   UNL     1       0.736   8.914  22.437  0.00  0.00    +0.000 C 
ATOM      4  C   UNL     1       0.636   8.652  20.923  0.00  0.00    +0.000 C 
ATOM      5  C   UNL     1       0.554   9.980  20.161  0.00  0.00    +0.000 C 
ATOM      6  C   UNL     1      -0.611  10.825  20.653  0.00  0.00    +0.000 C 
ENDROOT
BRANCH   1   7
ATOM      7  C   UNL     1      -1.742  11.943  22.562  0.00  0.00    +0.000 C 
BRANCH   7   8
ATOM      8  N   UNL     1      -2.198  12.816  21.478  0.00  0.00    +0.000 NA
ATOM      9  H   UNL     1      -1.656  13.649  21.237  0.00  0.00    +0.000 HD
BRANCH   8  11
ATOM     10  O   UNL     1      -4.542  12.262  22.328  0.00  0.00    +0.000 OA
ATOM     11  S   UNL     1      -3.859  13.055  21.331  0.00  0.00    +0.000 S 
ATOM     12  O   UNL     1      -4.084  14.475  21.221  0.00  0.00    +0.000 OA
BRANCH  11  13
ATOM     13  C   UNL     1      -4.230  12.313  19.746  0.00  0.00    +0.000 A 
ATOM     14  C   UNL     1      -3.135  12.005  18.919  0.00  0.00    +0.000 A 
ATOM     15  C   UNL     1      -3.337  11.502  17.636  0.00  0.00    +0.000 A 
ATOM     16  C   UNL     1      -4.630  11.295  17.170  0.00  0.00    +0.000 A 
ATOM     17  C   UNL     1      -5.720  11.584  17.992  0.00  0.00    +0.000 A 
ATOM     18  C   UNL     1      -5.546  12.101  19.296  0.00  0.00    +0.000 A 
BRANCH  18  19
ATOM     19  C   UNL     1      -6.811  12.384  20.075  0.00  0.00    +0.000 C 
ATOM     20  F   UNL     1      -7.017  11.645  21.193  0.00  0.00    +0.000 F 
ATOM     21  F   UNL     1      -6.911  13.690  20.444  0.00  0.00    +0.000 F 
ATOM     22  F   UNL     1      -7.916  12.137  19.310  0.00  0.00    +0.000 F 
ENDBRANCH  18  19
ENDBRANCH  11  13
ENDBRANCH   8  11
ENDBRANCH   7   8
ENDBRANCH   1   7
BRANCH   4  23
ATOM     23  C   UNL     1       1.821   7.837  20.380  0.00  0.00    +0.000 C 
BRANCH  23  24
ATOM     24  N   UNL     1       2.228   8.308  19.062  0.00  0.00    +0.000 NA
ATOM     25  H   UNL     1       3.235   8.461  19.034  0.00  0.00    +0.000 HD
BRANCH  24  26
ATOM     26  C   UNL     1       1.862   7.340  18.031  0.00  0.00    +0.000 C 
BRANCH  26  27
ATOM     27  C   UNL     1       2.994   6.371  17.777  0.00  0.00    +0.000 A 
ATOM     28  C   UNL     1       4.257   6.918  17.472  0.00  0.00    +0.000 A 
ATOM     29  C   UNL     1       5.342   6.098  17.200  0.00  0.00    +0.000 A 
ATOM     30  C   UNL     1       5.188   4.714  17.241  0.00  0.00    +0.000 A 
ATOM     31  C   UNL     1       3.956   4.136  17.572  0.00  0.00    +0.000 A 
ATOM     32  C   UNL     1       3.835   2.736  17.631  0.00  0.00    +0.000 A 
ATOM     33  C   UNL     1       2.627   2.133  17.974  0.00  0.00    +0.000 A 
ATOM     34  C   UNL     1       1.524   2.922  18.265  0.00  0.00    +0.000 A 
ATOM     35  C   UNL     1       1.625   4.315  18.209  0.00  0.00    +0.000 A 
ATOM     36  C   UNL     1       2.836   4.958  17.858  0.00  0.00    +0.000 A 
ENDBRANCH  26  27
ENDBRANCH  24  26
ENDBRANCH  23  24
ENDBRANCH   4  23
TORSDOF 9
ENDMDL
