MODEL 1
REMARK VINA RESULT:      -6.9      0.000      0.000
REMARK  Name = 
REMARK  6 active torsions:
REMARK  status: ('A' for Active; 'I' for Inactive)
REMARK    1  A    between atoms: C_1  and  C_2
REMARK    2  A    between atoms: C_2  and  C_3
REMARK    3  A    between atoms: C_2  and  C_4
REMARK    4  A    between atoms: C_2  and  C_5
REMARK    5  A    between atoms: C_5  and  C_14
REMARK    6  A    between atoms: C_6  and  C_7
REMARK                            x       y       z     vdW  Elec       q    Type
REMARK                         _______ _______ _______ _____ _____    ______ ____
ROOT
ATOM      1  C   UNL     1       3.828   5.494  18.313  0.00  0.00    +0.000 C 
ATOM      2  C   UNL     1       3.762   6.846  18.389  0.00  0.00    +0.000 C 
ENDROOT
BRANCH   2   3
ATOM      3  C   UNL     1       2.599   7.678  18.702  0.00  0.00    +0.000 A 
ATOM      4  C   UNL     1       2.036   8.515  17.729  0.00  0.00    +0.000 A 
ATOM      5  C   UNL     1       1.030   9.418  18.083  0.00  0.00    +0.000 A 
ATOM      6  C   UNL     1       0.581   9.471  19.402  0.00  0.00    +0.000 A 
ATOM      7 CL   UNL     1      -0.578  10.656  19.864  0.00  0.00    +0.000 Cl
ATOM      8  C   UNL     1       1.086   8.591  20.358  0.00  0.00    +0.000 A 
ATOM      9  C   UNL     1       2.083   7.681  20.005  0.00  0.00    +0.000 A 
ENDBRANCH   2   3
BRANCH   1  10
ATOM     10  C   UNL     1       5.175   4.873  17.942  0.00  0.00    +0.000 C 
ATOM     11  O   UNL     1       5.894   4.316  18.763  0.00  0.00    +0.000 OA
ATOM     12  N   UNL     1       5.655   4.881  16.618  0.00  0.00    +0.000 N 
ATOM     13  C   UNL     1       5.366   5.679  15.528  0.00  0.00    +0.000 A 
ATOM     14  C   UNL     1       6.087   5.162  14.475  0.00  0.00    +0.000 A 
ATOM     15  N   UNL     1       6.872   4.131  14.883  0.00  0.00    +0.000 NA
ATOM     16  C   UNL     1       6.635   4.013  16.171  0.00  0.00    +0.000 A 
ENDBRANCH   1  10
BRANCH   1  18
ATOM     17  C   UNL     1       1.324   4.825  17.681  0.00  0.00    +0.000 C 
ATOM     18  C   UNL     1       2.642   4.463  18.411  0.00  0.00    +0.000 C 
ATOM     19  C   UNL     1       2.252   4.272  19.892  0.00  0.00    +0.000 C 
ATOM     20  C   UNL     1       3.036   3.095  17.791  0.00  0.00    +0.000 C 
ENDBRANCH   1  18
TORSDOF 3
ENDMDL
MODEL 2
REMARK VINA RESULT:      -6.9      3.147      4.736
REMARK  Name = 
REMARK  6 active torsions:
REMARK  status: ('A' for Active; 'I' for Inactive)
REMARK    1  A    between atoms: C_1  and  C_2
REMARK    2  A    between atoms: C_2  and  C_3
REMARK    3  A    between atoms: C_2  and  C_4
REMARK    4  A    between atoms: C_2  and  C_5
REMARK    5  A    between atoms: C_5  and  C_14
REMARK    6  A    between atoms: C_6  and  C_7
REMARK                            x       y       z     vdW  Elec       q    Type
REMARK                         _______ _______ _______ _____ _____    ______ ____
ROOT
ATOM      1  C   UNL     1       5.359   4.541  16.192  0.00  0.00    +0.000 C 
ATOM      2  C   UNL     1       4.933   3.343  16.661  0.00  0.00    +0.000 C 
ENDROOT
BRANCH   2   3
ATOM      3  C   UNL     1       3.983   3.084  17.745  0.00  0.00    +0.000 A 
ATOM      4  C   UNL     1       2.620   2.903  17.472  0.00  0.00    +0.000 A 
ATOM      5  C   UNL     1       1.704   2.815  18.524  0.00  0.00    +0.000 A 
ATOM      6  C   UNL     1       2.155   2.893  19.841  0.00  0.00    +0.000 A 
ATOM      7 CL   UNL     1       1.019   2.896  21.134  0.00  0.00    +0.000 Cl
ATOM      8  C   UNL     1       3.517   3.000  20.119  0.00  0.00    +0.000 A 
ATOM      9  C   UNL     1       4.433   3.077  19.071  0.00  0.00    +0.000 A 
ENDBRANCH   2   3
BRANCH   1  10
ATOM     10  C   UNL     1       6.383   4.531  15.056  0.00  0.00    +0.000 C 
ATOM     11  O   UNL     1       7.531   4.934  15.199  0.00  0.00    +0.000 OA
ATOM     12  N   UNL     1       6.070   4.025  13.780  0.00  0.00    +0.000 N 
ATOM     13  C   UNL     1       4.868   3.838  13.122  0.00  0.00    +0.000 A 
ATOM     14  C   UNL     1       5.179   3.232  11.926  0.00  0.00    +0.000 A 
ATOM     15  N   UNL     1       6.525   3.109  11.778  0.00  0.00    +0.000 NA
ATOM     16  C   UNL     1       7.036   3.631  12.871  0.00  0.00    +0.000 A 
ENDBRANCH   1  10
BRANCH   1  18
ATOM     17  C   UNL     1       3.708   6.154  17.531  0.00  0.00    +0.000 C 
ATOM     18  C   UNL     1       5.047   5.972  16.772  0.00  0.00    +0.000 C 
ATOM     19  C   UNL     1       5.008   6.995  15.617  0.00  0.00    +0.000 C 
ATOM     20  C   UNL     1       6.116   6.399  17.815  0.00  0.00    +0.000 C 
ENDBRANCH   1  18
TORSDOF 3
ENDMDL
MODEL 3
REMARK VINA RESULT:      -6.8      0.252      1.031
REMARK  Name = 
REMARK  6 active torsions:
REMARK  status: ('A' for Active; 'I' for Inactive)
REMARK    1  A    between atoms: C_1  and  C_2
REMARK    2  A    between atoms: C_2  and  C_3
REMARK    3  A    between atoms: C_2  and  C_4
REMARK    4  A    between atoms: C_2  and  C_5
REMARK    5  A    between atoms: C_5  and  C_14
REMARK    6  A    between atoms: C_6  and  C_7
REMARK                            x       y       z     vdW  Elec       q    Type
REMARK                         _______ _______ _______ _____ _____    ______ ____
ROOT
ATOM      1  C   UNL     1       3.718   5.532  18.500  0.00  0.00    +0.000 C 
ATOM      2  C   UNL     1       3.649   6.885  18.510  0.00  0.00    +0.000 C 
ENDROOT
BRANCH   2   3
ATOM      3  C   UNL     1       2.488   7.730  18.798  0.00  0.00    +0.000 A 
ATOM      4  C   UNL     1       1.920   8.529  17.797  0.00  0.00    +0.000 A 
ATOM      5  C   UNL     1       0.917   9.446  18.122  0.00  0.00    +0.000 A 
ATOM      6  C   UNL     1       0.476   9.550  19.441  0.00  0.00    +0.000 A 
ATOM      7 CL   UNL     1      -0.679  10.752  19.864  0.00  0.00    +0.000 Cl
ATOM      8  C   UNL     1       0.986   8.706  20.426  0.00  0.00    +0.000 A 
ATOM      9  C   UNL     1       1.980   7.783  20.102  0.00  0.00    +0.000 A 
ENDBRANCH   2   3
BRANCH   1  10
ATOM     10  C   UNL     1       5.060   4.895  18.140  0.00  0.00    +0.000 C 
ATOM     11  O   UNL     1       5.772   4.343  18.971  0.00  0.00    +0.000 OA
ATOM     12  N   UNL     1       5.544   4.881  16.818  0.00  0.00    +0.000 N 
ATOM     13  C   UNL     1       5.263   5.668  15.716  0.00  0.00    +0.000 A 
ATOM     14  C   UNL     1       5.983   5.131  14.672  0.00  0.00    +0.000 A 
ATOM     15  N   UNL     1       6.759   4.100  15.096  0.00  0.00    +0.000 NA
ATOM     16  C   UNL     1       6.518   4.000  16.385  0.00  0.00    +0.000 A 
ENDBRANCH   1  10
BRANCH   1  18
ATOM     17  C   UNL     1       2.849   3.011  18.395  0.00  0.00    +0.000 C 
ATOM     18  C   UNL     1       2.535   4.504  18.667  0.00  0.00    +0.000 C 
ATOM     19  C   UNL     1       1.398   4.870  17.690  0.00  0.00    +0.000 C 
ATOM     20  C   UNL     1       1.997   4.501  20.123  0.00  0.00    +0.000 C 
ENDBRANCH   1  18
TORSDOF 3
ENDMDL
MODEL 4
REMARK VINA RESULT:      -6.8      3.090      4.623
REMARK  Name = 
REMARK  6 active torsions:
REMARK  status: ('A' for Active; 'I' for Inactive)
REMARK    1  A    between atoms: C_1  and  C_2
REMARK    2  A    between atoms: C_2  and  C_3
REMARK    3  A    between atoms: C_2  and  C_4
REMARK    4  A    between atoms: C_2  and  C_5
REMARK    5  A    between atoms: C_5  and  C_14
REMARK    6  A    between atoms: C_6  and  C_7
REMARK                            x       y       z     vdW  Elec       q    Type
REMARK                         _______ _______ _______ _____ _____    ______ ____
ROOT
ATOM      1  C   UNL     1       5.568   4.805  16.494  0.00  0.00    +0.000 C 
ATOM      2  C   UNL     1       4.838   3.669  16.620  0.00  0.00    +0.000 C 
ENDROOT
BRANCH   2   3
ATOM      3  C   UNL     1       3.862   3.333  17.659  0.00  0.00    +0.000 A 
ATOM      4  C   UNL     1       2.496   3.571  17.459  0.00  0.00    +0.000 A 
ATOM      5  C   UNL     1       1.596   3.395  18.514  0.00  0.00    +0.000 A 
ATOM      6  C   UNL     1       2.062   2.969  19.757  0.00  0.00    +0.000 A 
ATOM      7 CL   UNL     1       0.975   2.857  21.085  0.00  0.00    +0.000 Cl
ATOM      8  C   UNL     1       3.410   2.662  19.941  0.00  0.00    +0.000 A 
ATOM      9  C   UNL     1       4.308   2.827  18.887  0.00  0.00    +0.000 A 
ENDBRANCH   2   3
BRANCH   1  10
ATOM     10  C   UNL     1       6.541   4.891  15.318  0.00  0.00    +0.000 C 
ATOM     11  O   UNL     1       7.644   5.417  15.412  0.00  0.00    +0.000 OA
ATOM     12  N   UNL     1       6.234   4.339  14.059  0.00  0.00    +0.000 N 
ATOM     13  C   UNL     1       5.035   4.017  13.452  0.00  0.00    +0.000 A 
ATOM     14  C   UNL     1       5.362   3.433  12.249  0.00  0.00    +0.000 A 
ATOM     15  N   UNL     1       6.706   3.455  12.048  0.00  0.00    +0.000 NA
ATOM     16  C   UNL     1       7.200   4.041  13.115  0.00  0.00    +0.000 A 
ENDBRANCH   1  10
BRANCH   1  18
ATOM     17  C   UNL     1       6.487   7.245  17.061  0.00  0.00    +0.000 C 
ATOM     18  C   UNL     1       5.659   6.011  17.503  0.00  0.00    +0.000 C 
ATOM     19  C   UNL     1       6.307   5.530  18.818  0.00  0.00    +0.000 C 
ATOM     20  C   UNL     1       4.254   6.604  17.795  0.00  0.00    +0.000 C 
ENDBRANCH   1  18
TORSDOF 3
ENDMDL
MODEL 5
REMARK VINA RESULT:      -6.7      1.294      1.852
REMARK  Name = 
REMARK  6 active torsions:
REMARK  status: ('A' for Active; 'I' for Inactive)
REMARK    1  A    between atoms: C_1  and  C_2
REMARK    2  A    between atoms: C_2  and  C_3
REMARK    3  A    between atoms: C_2  and  C_4
REMARK    4  A    between atoms: C_2  and  C_5
REMARK    5  A    between atoms: C_5  and  C_14
REMARK    6  A    between atoms: C_6  and  C_7
REMARK                            x       y       z     vdW  Elec       q    Type
REMARK                         _______ _______ _______ _____ _____    ______ ____
ROOT
ATOM      1  C   UNL     1       3.435   5.347  17.817  0.00  0.00    +0.000 C 
ATOM      2  C   UNL     1       3.415   6.703  17.821  0.00  0.00    +0.000 C 
ENDROOT
BRANCH   2   3
ATOM      3  C   UNL     1       2.450   7.591  18.472  0.00  0.00    +0.000 A 
ATOM      4  C   UNL     1       1.791   8.588  17.742  0.00  0.00    +0.000 A 
ATOM      5  C   UNL     1       0.996   9.527  18.404  0.00  0.00    +0.000 A 
ATOM      6  C   UNL     1       0.851   9.457  19.789  0.00  0.00    +0.000 A 
ATOM      7 CL   UNL     1      -0.037  10.675  20.618  0.00  0.00    +0.000 Cl
ATOM      8  C   UNL     1       1.445   8.424  20.511  0.00  0.00    +0.000 A 
ATOM      9  C   UNL     1       2.231   7.479  19.852  0.00  0.00    +0.000 A 
ENDBRANCH   2   3
BRANCH   1  10
ATOM     10  C   UNL     1       4.552   4.660  17.032  0.00  0.00    +0.000 C 
ATOM     11  O   UNL     1       4.351   4.069  15.977  0.00  0.00    +0.000 OA
ATOM     12  N   UNL     1       5.892   4.694  17.465  0.00  0.00    +0.000 N 
ATOM     13  C   UNL     1       6.463   4.907  18.705  0.00  0.00    +0.000 A 
ATOM     14  C   UNL     1       7.825   4.904  18.502  0.00  0.00    +0.000 A 
ATOM     15  N   UNL     1       8.123   4.617  17.208  0.00  0.00    +0.000 NA
ATOM     16  C   UNL     1       6.960   4.449  16.620  0.00  0.00    +0.000 A 
ENDBRANCH   1  10
BRANCH   1  18
ATOM     17  C   UNL     1       1.824   4.653  19.828  0.00  0.00    +0.000 C 
ATOM     18  C   UNL     1       2.350   4.364  18.399  0.00  0.00    +0.000 C 
ATOM     19  C   UNL     1       2.933   2.936  18.456  0.00  0.00    +0.000 C 
ATOM     20  C   UNL     1       1.063   4.372  17.531  0.00  0.00    +0.000 C 
ENDBRANCH   1  18
TORSDOF 3
ENDMDL
MODEL 6
REMARK VINA RESULT:      -6.6      1.291      1.925
REMARK  Name = 
REMARK  6 active torsions:
REMARK  status: ('A' for Active; 'I' for Inactive)
REMARK    1  A    between atoms: C_1  and  C_2
REMARK    2  A    between atoms: C_2  and  C_3
REMARK    3  A    between atoms: C_2  and  C_4
REMARK    4  A    between atoms: C_2  and  C_5
REMARK    5  A    between atoms: C_5  and  C_14
REMARK    6  A    between atoms: C_6  and  C_7
REMARK                            x       y       z     vdW  Elec       q    Type
REMARK                         _______ _______ _______ _____ _____    ______ ____
ROOT
ATOM      1  C   UNL     1       3.460   5.307  17.772  0.00  0.00    +0.000 C 
ATOM      2  C   UNL     1       3.449   6.662  17.814  0.00  0.00    +0.000 C 
ENDROOT
BRANCH   2   3
ATOM      3  C   UNL     1       2.480   7.537  18.478  0.00  0.00    +0.000 A 
ATOM      4  C   UNL     1       1.825   8.548  17.763  0.00  0.00    +0.000 A 
ATOM      5  C   UNL     1       1.026   9.475  18.440  0.00  0.00    +0.000 A 
ATOM      6  C   UNL     1       0.875   9.378  19.823  0.00  0.00    +0.000 A 
ATOM      7 CL   UNL     1      -0.017  10.580  20.671  0.00  0.00    +0.000 Cl
ATOM      8  C   UNL     1       1.466   8.331  20.528  0.00  0.00    +0.000 A 
ATOM      9  C   UNL     1       2.255   7.399  19.854  0.00  0.00    +0.000 A 
ENDBRANCH   2   3
BRANCH   1  10
ATOM     10  C   UNL     1       4.583   4.635  16.982  0.00  0.00    +0.000 C 
ATOM     11  O   UNL     1       4.390   4.066  15.914  0.00  0.00    +0.000 OA
ATOM     12  N   UNL     1       5.919   4.658  17.427  0.00  0.00    +0.000 N 
ATOM     13  C   UNL     1       6.481   4.846  18.676  0.00  0.00    +0.000 A 
ATOM     14  C   UNL     1       7.845   4.845  18.484  0.00  0.00    +0.000 A 
ATOM     15  N   UNL     1       8.153   4.585  17.186  0.00  0.00    +0.000 NA
ATOM     16  C   UNL     1       6.994   4.430  16.586  0.00  0.00    +0.000 A 
ENDBRANCH   1  10
BRANCH   1  18
ATOM     17  C   UNL     1       2.636   2.797  18.152  0.00  0.00    +0.000 C 
ATOM     18  C   UNL     1       2.363   4.315  18.314  0.00  0.00    +0.000 C 
ATOM     19  C   UNL     1       1.031   4.574  17.578  0.00  0.00    +0.000 C 
ATOM     20  C   UNL     1       2.159   4.485  19.844  0.00  0.00    +0.000 C 
ENDBRANCH   1  18
TORSDOF 3
ENDMDL
MODEL 7
REMARK VINA RESULT:      -6.6      3.177      4.811
REMARK  Name = 
REMARK  6 active torsions:
REMARK  status: ('A' for Active; 'I' for Inactive)
REMARK    1  A    between atoms: C_1  and  C_2
REMARK    2  A    between atoms: C_2  and  C_3
REMARK    3  A    between atoms: C_2  and  C_4
REMARK    4  A    between atoms: C_2  and  C_5
REMARK    5  A    between atoms: C_5  and  C_14
REMARK    6  A    between atoms: C_6  and  C_7
REMARK                            x       y       z     vdW  Elec       q    Type
REMARK                         _______ _______ _______ _____ _____    ______ ____
ROOT
ATOM      1  C   UNL     1       5.415   4.719  16.105  0.00  0.00    +0.000 C 
ATOM      2  C   UNL     1       4.943   3.600  16.707  0.00  0.00    +0.000 C 
ENDROOT
BRANCH   2   3
ATOM      3  C   UNL     1       4.002   3.503  17.825  0.00  0.00    +0.000 A 
ATOM      4  C   UNL     1       4.463   3.482  19.148  0.00  0.00    +0.000 A 
ATOM      5  C   UNL     1       3.572   3.230  20.194  0.00  0.00    +0.000 A 
ATOM      6  C   UNL     1       2.222   3.015  19.915  0.00  0.00    +0.000 A 
ATOM      7 CL   UNL     1       1.143   2.597  21.188  0.00  0.00    +0.000 Cl
ATOM      8  C   UNL     1       1.745   3.107  18.609  0.00  0.00    +0.000 A 
ATOM      9  C   UNL     1       2.632   3.369  17.564  0.00  0.00    +0.000 A 
ENDBRANCH   2   3
BRANCH   1  10
ATOM     10  C   UNL     1       6.416   4.538  14.964  0.00  0.00    +0.000 C 
ATOM     11  O   UNL     1       7.602   4.828  15.075  0.00  0.00    +0.000 OA
ATOM     12  N   UNL     1       6.035   3.995  13.722  0.00  0.00    +0.000 N 
ATOM     13  C   UNL     1       4.812   3.897  13.086  0.00  0.00    +0.000 A 
ATOM     14  C   UNL     1       5.042   3.195  11.924  0.00  0.00    +0.000 A 
ATOM     15  N   UNL     1       6.365   2.926  11.773  0.00  0.00    +0.000 NA
ATOM     16  C   UNL     1       6.942   3.453  12.830  0.00  0.00    +0.000 A 
ENDBRANCH   1  10
BRANCH   1  18
ATOM     17  C   UNL     1       3.958   6.514  17.439  0.00  0.00    +0.000 C 
ATOM     18  C   UNL     1       5.179   6.217  16.532  0.00  0.00    +0.000 C 
ATOM     19  C   UNL     1       4.974   7.081  15.270  0.00  0.00    +0.000 C 
ATOM     20  C   UNL     1       6.380   6.761  17.352  0.00  0.00    +0.000 C 
ENDBRANCH   1  18
TORSDOF 3
ENDMDL
MODEL 8
REMARK VINA RESULT:      -6.6      3.306      4.661
REMARK  Name = 
REMARK  6 active torsions:
REMARK  status: ('A' for Active; 'I' for Inactive)
REMARK    1  A    between atoms: C_1  and  C_2
REMARK    2  A    between atoms: C_2  and  C_3
REMARK    3  A    between atoms: C_2  and  C_4
REMARK    4  A    between atoms: C_2  and  C_5
REMARK    5  A    between atoms: C_5  and  C_14
REMARK    6  A    between atoms: C_6  and  C_7
REMARK                            x       y       z     vdW  Elec       q    Type
REMARK                         _______ _______ _______ _____ _____    ______ ____
ROOT
ATOM      1  C   UNL     1       5.814   4.816  16.356  0.00  0.00    +0.000 C 
ATOM      2  C   UNL     1       4.648   4.136  16.228  0.00  0.00    +0.000 C 
ENDROOT
BRANCH   2   3
ATOM      3  C   UNL     1       3.681   3.795  17.274  0.00  0.00    +0.000 A 
ATOM      4  C   UNL     1       2.741   4.738  17.712  0.00  0.00    +0.000 A 
ATOM      5  C   UNL     1       1.933   4.455  18.816  0.00  0.00    +0.000 A 
ATOM      6  C   UNL     1       2.056   3.227  19.467  0.00  0.00    +0.000 A 
ATOM      7 CL   UNL     1       1.141   2.920  20.891  0.00  0.00    +0.000 Cl
ATOM      8  C   UNL     1       2.939   2.259  18.991  0.00  0.00    +0.000 A 
ATOM      9  C   UNL     1       3.739   2.535  17.883  0.00  0.00    +0.000 A 
ENDBRANCH   2   3
BRANCH   1  10
ATOM     10  C   UNL     1       6.655   5.017  15.095  0.00  0.00    +0.000 C 
ATOM     11  O   UNL     1       7.644   5.740  15.071  0.00  0.00    +0.000 OA
ATOM     12  N   UNL     1       6.356   4.353  13.890  0.00  0.00    +0.000 N 
ATOM     13  C   UNL     1       5.193   3.785  13.405  0.00  0.00    +0.000 A 
ATOM     14  C   UNL     1       5.526   3.208  12.199  0.00  0.00    +0.000 A 
ATOM     15  N   UNL     1       6.821   3.465  11.878  0.00  0.00    +0.000 NA
ATOM     16  C   UNL     1       7.282   4.188  12.875  0.00  0.00    +0.000 A 
ENDBRANCH   1  10
BRANCH   1  18
ATOM     17  C   UNL     1       5.725   5.101  19.007  0.00  0.00    +0.000 C 
ATOM     18  C   UNL     1       6.505   5.307  17.684  0.00  0.00    +0.000 C 
ATOM     19  C   UNL     1       6.767   6.825  17.592  0.00  0.00    +0.000 C 
ATOM     20  C   UNL     1       7.842   4.556  17.930  0.00  0.00    +0.000 C 
ENDBRANCH   1  18
TORSDOF 3
ENDMDL
MODEL 9
REMARK VINA RESULT:      -6.4      3.257      4.735
REMARK  Name = 
REMARK  6 active torsions:
REMARK  status: ('A' for Active; 'I' for Inactive)
REMARK    1  A    between atoms: C_1  and  C_2
REMARK    2  A    between atoms: C_2  and  C_3
REMARK    3  A    between atoms: C_2  and  C_4
REMARK    4  A    between atoms: C_2  and  C_5
REMARK    5  A    between atoms: C_5  and  C_14
REMARK    6  A    between atoms: C_6  and  C_7
REMARK                            x       y       z     vdW  Elec       q    Type
REMARK                         _______ _______ _______ _____ _____    ______ ____
ROOT
ATOM      1  C   UNL     1       5.977   4.872  16.299  0.00  0.00    +0.000 C 
ATOM      2  C   UNL     1       4.788   4.226  16.227  0.00  0.00    +0.000 C 
ENDROOT
BRANCH   2   3
ATOM      3  C   UNL     1       3.847   3.942  17.313  0.00  0.00    +0.000 A 
ATOM      4  C   UNL     1       3.845   2.693  17.949  0.00  0.00    +0.000 A 
ATOM      5  C   UNL     1       2.842   2.381  18.870  0.00  0.00    +0.000 A 
ATOM      6  C   UNL     1       1.855   3.321  19.163  0.00  0.00    +0.000 A 
ATOM      7 CL   UNL     1       0.559   2.900  20.212  0.00  0.00    +0.000 Cl
ATOM      8  C   UNL     1       1.894   4.590  18.588  0.00  0.00    +0.000 A 
ATOM      9  C   UNL     1       2.900   4.908  17.676  0.00  0.00    +0.000 A 
ENDBRANCH   2   3
BRANCH   1  10
ATOM     10  C   UNL     1       6.781   5.015  15.006  0.00  0.00    +0.000 C 
ATOM     11  O   UNL     1       7.795   5.699  14.933  0.00  0.00    +0.000 OA
ATOM     12  N   UNL     1       6.415   4.339  13.826  0.00  0.00    +0.000 N 
ATOM     13  C   UNL     1       5.216   3.806  13.394  0.00  0.00    +0.000 A 
ATOM     14  C   UNL     1       5.484   3.193  12.190  0.00  0.00    +0.000 A 
ATOM     15  N   UNL     1       6.776   3.393  11.820  0.00  0.00    +0.000 NA
ATOM     16  C   UNL     1       7.298   4.117  12.784  0.00  0.00    +0.000 A 
ENDBRANCH   1  10
BRANCH   1  18
ATOM     17  C   UNL     1       5.938   5.351  18.923  0.00  0.00    +0.000 C 
ATOM     18  C   UNL     1       6.727   5.375  17.590  0.00  0.00    +0.000 C 
ATOM     19  C   UNL     1       7.156   6.844  17.392  0.00  0.00    +0.000 C 
ATOM     20  C   UNL     1       7.973   4.499  17.890  0.00  0.00    +0.000 C 
ENDBRANCH   1  18
TORSDOF 3
ENDMDL
