MODEL 1
REMARK VINA RESULT:      -7.1      0.000      0.000
REMARK  Name = 
REMARK  9 active torsions:
REMARK  status: ('A' for Active; 'I' for Inactive)
REMARK    1  A    between atoms: C_1  and  C_2
REMARK    2  A    between atoms: C_2  and  C_3
REMARK    3  A    between atoms: C_8  and  C_9
REMARK    4  A    between atoms: N_11  and  C_12
REMARK    5  A    between atoms: C_12  and  C_13
REMARK    6  A    between atoms: N_16  and  C_17
REMARK    7  A    between atoms: C_17  and  C_18
REMARK    8  A    between atoms: C_18  and  C_19
REMARK    9  A    between atoms: C_18  and  C_20
REMARK                            x       y       z     vdW  Elec       q    Type
REMARK                         _______ _______ _______ _____ _____    ______ ____
ROOT
ATOM      1  C   UNL     1       4.367   3.679  17.583  0.00  0.00    +0.000 C 
ATOM      2  O   UNL     1       3.523   3.868  16.716  0.00  0.00    +0.000 OA
ATOM      3  N   UNL     1       4.215   2.690  18.531  0.00  0.00    +0.000 N 
ATOM      4  H   UNL     1       4.966   2.564  19.196  0.00  0.00    +0.000 HD
ENDROOT
BRANCH   1  10
ATOM      5  C   UNL     1       6.624   4.666  16.776  0.00  0.00    +0.000 A 
ATOM      6  N   UNL     1       7.670   5.460  17.230  0.00  0.00    +0.000 NA
ATOM      7  C   UNL     1       7.455   5.843  18.458  0.00  0.00    +0.000 A 
ATOM      8  N   UNL     1       8.323   6.601  19.144  0.00  0.00    +0.000 N 
ATOM      9  S   UNL     1       5.999   5.291  19.153  0.00  0.00    +0.000 S 
ATOM     10  C   UNL     1       5.596   4.455  17.694  0.00  0.00    +0.000 A 
ATOM     11  H   UNL     1       9.254   6.651  18.745  0.00  0.00    +0.000 HD
ATOM     12  H   UNL     1       8.314   6.541  20.155  0.00  0.00    +0.000 HD
BRANCH   5  14
ATOM     13  C   UNL     1       5.908   4.885  14.390  0.00  0.00    +0.000 C 
ATOM     14  C   UNL     1       6.769   4.124  15.386  0.00  0.00    +0.000 C 
ENDBRANCH   5  14
ENDBRANCH   1  10
BRANCH   3  15
ATOM     15  C   UNL     1       3.091   1.767  18.607  0.00  0.00    +0.000 C 
BRANCH  15  16
ATOM     16  C   UNL     1       2.095   2.136  19.706  0.00  0.00    +0.000 C 
ATOM     17  C   UNL     1       2.739   2.418  21.060  0.00  0.00    +0.000 C 
ATOM     18  C   UNL     1       1.719   3.342  21.707  0.00  0.00    +0.000 C 
ATOM     19  N   UNL     1       1.311   4.260  20.622  0.00  0.00    +0.000 NA
ATOM     20  C   UNL     1       1.298   3.416  19.405  0.00  0.00    +0.000 C 
BRANCH  19  21
ATOM     21  C   UNL     1       2.245   5.400  20.535  0.00  0.00    +0.000 C 
BRANCH  21  22
ATOM     22  C   UNL     1       1.730   6.676  19.824  0.00  0.00    +0.000 C 
ATOM     23  C   UNL     1       1.577   7.879  20.753  0.00  0.00    +0.000 C 
ATOM     24  C   UNL     1       2.690   7.030  18.681  0.00  0.00    +0.000 C 
ENDBRANCH  21  22
ENDBRANCH  19  21
ENDBRANCH  15  16
ENDBRANCH   3  15
TORSDOF 6
ENDMDL
MODEL 2
REMARK VINA RESULT:      -7.1      1.841      2.618
REMARK  Name = 
REMARK  9 active torsions:
REMARK  status: ('A' for Active; 'I' for Inactive)
REMARK    1  A    between atoms: C_1  and  C_2
REMARK    2  A    between atoms: C_2  and  C_3
REMARK    3  A    between atoms: C_8  and  C_9
REMARK    4  A    between atoms: N_11  and  C_12
REMARK    5  A    between atoms: C_12  and  C_13
REMARK    6  A    between atoms: N_16  and  C_17
REMARK    7  A    between atoms: C_17  and  C_18
REMARK    8  A    between atoms: C_18  and  C_19
REMARK    9  A    between atoms: C_18  and  C_20
REMARK                            x       y       z     vdW  Elec       q    Type
REMARK                         _______ _______ _______ _____ _____    ______ ____
ROOT
ATOM      1  C   UNL     1       5.761   4.339  18.819  0.00  0.00    +0.000 C 
ATOM      2  O   UNL     1       5.821   4.970  19.866  0.00  0.00    +0.000 OA
ATOM      3  N   UNL     1       5.104   3.129  18.745  0.00  0.00    +0.000 N 
ATOM      4  H   UNL     1       5.062   2.677  17.841  0.00  0.00    +0.000 HD
ENDROOT
BRANCH   1  10
ATOM      5  C   UNL     1       7.254   5.830  17.312  0.00  0.00    +0.000 A 
ATOM      6  N   UNL     1       7.603   5.995  15.978  0.00  0.00    +0.000 NA
ATOM      7  C   UNL     1       6.992   5.117  15.232  0.00  0.00    +0.000 A 
ATOM      8  N   UNL     1       7.136   5.071  13.900  0.00  0.00    +0.000 N 
ATOM      9  S   UNL     1       5.968   4.036  16.063  0.00  0.00    +0.000 S 
ATOM     10  C   UNL     1       6.357   4.794  17.568  0.00  0.00    +0.000 A 
ATOM     11  H   UNL     1       7.545   5.902  13.485  0.00  0.00    +0.000 HD
ATOM     12  H   UNL     1       6.384   4.669  13.352  0.00  0.00    +0.000 HD
BRANCH   5  14
ATOM     13  C   UNL     1       7.910   8.212  17.693  0.00  0.00    +0.000 C 
ATOM     14  C   UNL     1       7.858   6.808  18.274  0.00  0.00    +0.000 C 
ENDBRANCH   5  14
ENDBRANCH   1  10
BRANCH   3  15
ATOM     15  C   UNL     1       4.405   2.486  19.848  0.00  0.00    +0.000 C 
BRANCH  15  16
ATOM     16  C   UNL     1       2.956   2.951  19.984  0.00  0.00    +0.000 C 
ATOM     17  C   UNL     1       2.715   3.900  21.154  0.00  0.00    +0.000 C 
ATOM     18  C   UNL     1       1.493   4.674  20.685  0.00  0.00    +0.000 C 
ATOM     19  N   UNL     1       1.756   4.951  19.257  0.00  0.00    +0.000 NA
ATOM     20  C   UNL     1       2.449   3.739  18.764  0.00  0.00    +0.000 C 
BRANCH  19  21
ATOM     21  C   UNL     1       2.557   6.183  19.112  0.00  0.00    +0.000 C 
BRANCH  21  22
ATOM     22  C   UNL     1       1.776   7.513  18.963  0.00  0.00    +0.000 C 
ATOM     23  C   UNL     1       1.605   8.276  20.276  0.00  0.00    +0.000 C 
ATOM     24  C   UNL     1       2.499   8.403  17.943  0.00  0.00    +0.000 C 
ENDBRANCH  21  22
ENDBRANCH  19  21
ENDBRANCH  15  16
ENDBRANCH   3  15
TORSDOF 6
ENDMDL
MODEL 3
REMARK VINA RESULT:      -7.0      1.675      2.575
REMARK  Name = 
REMARK  9 active torsions:
REMARK  status: ('A' for Active; 'I' for Inactive)
REMARK    1  A    between atoms: C_1  and  C_2
REMARK    2  A    between atoms: C_2  and  C_3
REMARK    3  A    between atoms: C_8  and  C_9
REMARK    4  A    between atoms: N_11  and  C_12
REMARK    5  A    between atoms: C_12  and  C_13
REMARK    6  A    between atoms: N_16  and  C_17
REMARK    7  A    between atoms: C_17  and  C_18
REMARK    8  A    between atoms: C_18  and  C_19
REMARK    9  A    between atoms: C_18  and  C_20
REMARK                            x       y       z     vdW  Elec       q    Type
REMARK                         _______ _______ _______ _____ _____    ______ ____
ROOT
ATOM      1  C   UNL     1       5.305   3.590  18.192  0.00  0.00    +0.000 C 
ATOM      2  O   UNL     1       5.458   3.802  19.388  0.00  0.00    +0.000 OA
ATOM      3  N   UNL     1       4.375   2.680  17.737  0.00  0.00    +0.000 N 
ATOM      4  H   UNL     1       4.276   2.578  16.735  0.00  0.00    +0.000 HD
ENDROOT
BRANCH   1  10
ATOM      5  C   UNL     1       7.031   5.270  17.234  0.00  0.00    +0.000 A 
ATOM      6  N   UNL     1       7.545   5.702  16.018  0.00  0.00    +0.000 NA
ATOM      7  C   UNL     1       6.991   5.055  15.030  0.00  0.00    +0.000 A 
ATOM      8  N   UNL     1       7.291   5.296  13.746  0.00  0.00    +0.000 N 
ATOM      9  S   UNL     1       5.827   3.891  15.479  0.00  0.00    +0.000 S 
ATOM     10  C   UNL     1       6.066   4.268  17.149  0.00  0.00    +0.000 A 
ATOM     11  H   UNL     1       7.783   6.167  13.578  0.00  0.00    +0.000 HD
ATOM     12  H   UNL     1       6.594   5.079  13.043  0.00  0.00    +0.000 HD
BRANCH   5  14
ATOM     13  C   UNL     1       7.939   7.408  18.158  0.00  0.00    +0.000 C 
ATOM     14  C   UNL     1       7.558   5.966  18.452  0.00  0.00    +0.000 C 
ENDBRANCH   5  14
ENDBRANCH   1  10
BRANCH   3  15
ATOM     15  C   UNL     1       3.477   1.905  18.581  0.00  0.00    +0.000 C 
BRANCH  15  16
ATOM     16  C   UNL     1       2.168   2.636  18.880  0.00  0.00    +0.000 C 
ATOM     17  C   UNL     1       1.949   2.936  20.360  0.00  0.00    +0.000 C 
ATOM     18  C   UNL     1       1.032   4.148  20.302  0.00  0.00    +0.000 C 
ATOM     19  N   UNL     1       1.593   4.985  19.220  0.00  0.00    +0.000 NA
ATOM     20  C   UNL     1       2.070   4.015  18.208  0.00  0.00    +0.000 C 
BRANCH  19  21
ATOM     21  C   UNL     1       2.663   5.856  19.747  0.00  0.00    +0.000 C 
BRANCH  21  22
ATOM     22  C   UNL     1       2.475   7.383  19.568  0.00  0.00    +0.000 C 
ATOM     23  C   UNL     1       2.046   7.790  18.159  0.00  0.00    +0.000 C 
ATOM     24  C   UNL     1       1.437   7.879  20.583  0.00  0.00    +0.000 C 
ENDBRANCH  21  22
ENDBRANCH  19  21
ENDBRANCH  15  16
ENDBRANCH   3  15
TORSDOF 6
ENDMDL
MODEL 4
REMARK VINA RESULT:      -6.9      1.795      2.658
REMARK  Name = 
REMARK  9 active torsions:
REMARK  status: ('A' for Active; 'I' for Inactive)
REMARK    1  A    between atoms: C_1  and  C_2
REMARK    2  A    between atoms: C_2  and  C_3
REMARK    3  A    between atoms: C_8  and  C_9
REMARK    4  A    between atoms: N_11  and  C_12
REMARK    5  A    between atoms: C_12  and  C_13
REMARK    6  A    between atoms: N_16  and  C_17
REMARK    7  A    between atoms: C_17  and  C_18
REMARK    8  A    between atoms: C_18  and  C_19
REMARK    9  A    between atoms: C_18  and  C_20
REMARK                            x       y       z     vdW  Elec       q    Type
REMARK                         _______ _______ _______ _____ _____    ______ ____
ROOT
ATOM      1  C   UNL     1       5.706   4.572  18.862  0.00  0.00    +0.000 C 
ATOM      2  O   UNL     1       5.593   5.347  19.803  0.00  0.00    +0.000 OA
ATOM      3  N   UNL     1       5.268   3.268  18.949  0.00  0.00    +0.000 N 
ATOM      4  H   UNL     1       5.359   2.691  18.124  0.00  0.00    +0.000 HD
ENDROOT
BRANCH   1  10
ATOM      5  C   UNL     1       7.239   5.913  17.259  0.00  0.00    +0.000 A 
ATOM      6  N   UNL     1       7.564   6.003  15.912  0.00  0.00    +0.000 NA
ATOM      7  C   UNL     1       6.888   5.129  15.219  0.00  0.00    +0.000 A 
ATOM      8  N   UNL     1       6.995   5.020  13.886  0.00  0.00    +0.000 N 
ATOM      9  S   UNL     1       5.827   4.143  16.119  0.00  0.00    +0.000 S 
ATOM     10  C   UNL     1       6.295   4.940  17.580  0.00  0.00    +0.000 A 
ATOM     11  H   UNL     1       7.438   5.809  13.428  0.00  0.00    +0.000 HD
ATOM     12  H   UNL     1       6.210   4.638  13.374  0.00  0.00    +0.000 HD
BRANCH   5  14
ATOM     13  C   UNL     1       7.796   8.320  17.646  0.00  0.00    +0.000 C 
ATOM     14  C   UNL     1       7.920   6.896  18.164  0.00  0.00    +0.000 C 
ENDBRANCH   5  14
ENDBRANCH   1  10
BRANCH   3  15
ATOM     15  C   UNL     1       4.619   2.677  20.111  0.00  0.00    +0.000 C 
BRANCH  15  16
ATOM     16  C   UNL     1       3.116   2.480  19.914  0.00  0.00    +0.000 C 
ATOM     17  C   UNL     1       2.310   2.519  21.209  0.00  0.00    +0.000 C 
ATOM     18  C   UNL     1       0.941   2.959  20.713  0.00  0.00    +0.000 C 
ATOM     19  N   UNL     1       1.229   4.018  19.722  0.00  0.00    +0.000 NA
ATOM     20  C   UNL     1       2.465   3.567  19.044  0.00  0.00    +0.000 C 
BRANCH  19  21
ATOM     21  C   UNL     1       1.373   5.325  20.395  0.00  0.00    +0.000 C 
BRANCH  21  22
ATOM     22  C   UNL     1       2.329   6.351  19.737  0.00  0.00    +0.000 C 
ATOM     23  C   UNL     1       2.310   6.317  18.209  0.00  0.00    +0.000 C 
ATOM     24  C   UNL     1       1.959   7.758  20.223  0.00  0.00    +0.000 C 
ENDBRANCH  21  22
ENDBRANCH  19  21
ENDBRANCH  15  16
ENDBRANCH   3  15
TORSDOF 6
ENDMDL
MODEL 5
REMARK VINA RESULT:      -6.9      1.335      1.356
REMARK  Name = 
REMARK  9 active torsions:
REMARK  status: ('A' for Active; 'I' for Inactive)
REMARK    1  A    between atoms: C_1  and  C_2
REMARK    2  A    between atoms: C_2  and  C_3
REMARK    3  A    between atoms: C_8  and  C_9
REMARK    4  A    between atoms: N_11  and  C_12
REMARK    5  A    between atoms: C_12  and  C_13
REMARK    6  A    between atoms: N_16  and  C_17
REMARK    7  A    between atoms: C_17  and  C_18
REMARK    8  A    between atoms: C_18  and  C_19
REMARK    9  A    between atoms: C_18  and  C_20
REMARK                            x       y       z     vdW  Elec       q    Type
REMARK                         _______ _______ _______ _____ _____    ______ ____
ROOT
ATOM      1  C   UNL     1       5.149   3.595  18.462  0.00  0.00    +0.000 C 
ATOM      2  O   UNL     1       5.383   3.276  19.621  0.00  0.00    +0.000 OA
ATOM      3  N   UNL     1       4.236   2.902  17.696  0.00  0.00    +0.000 N 
ATOM      4  H   UNL     1       4.064   3.240  16.758  0.00  0.00    +0.000 HD
ENDROOT
BRANCH   1  10
ATOM      5  C   UNL     1       5.833   5.068  16.442  0.00  0.00    +0.000 A 
ATOM      6  N   UNL     1       6.561   6.215  16.149  0.00  0.00    +0.000 NA
ATOM      7  C   UNL     1       7.062   6.730  17.238  0.00  0.00    +0.000 A 
ATOM      8  N   UNL     1       7.828   7.831  17.234  0.00  0.00    +0.000 N 
ATOM      9  S   UNL     1       6.702   5.891  18.678  0.00  0.00    +0.000 S 
ATOM     10  C   UNL     1       5.789   4.720  17.791  0.00  0.00    +0.000 A 
ATOM     11  H   UNL     1       8.194   8.093  16.325  0.00  0.00    +0.000 HD
ATOM     12  H   UNL     1       8.488   7.956  17.992  0.00  0.00    +0.000 HD
BRANCH   5  14
ATOM     13  C   UNL     1       6.283   4.021  14.217  0.00  0.00    +0.000 C 
ATOM     14  C   UNL     1       5.236   4.354  15.267  0.00  0.00    +0.000 C 
ENDBRANCH   5  14
ENDBRANCH   1  10
BRANCH   3  15
ATOM     15  C   UNL     1       3.448   1.766  18.153  0.00  0.00    +0.000 C 
BRANCH  15  16
ATOM     16  C   UNL     1       2.125   2.182  18.794  0.00  0.00    +0.000 C 
ATOM     17  C   UNL     1       2.194   2.352  20.309  0.00  0.00    +0.000 C 
ATOM     18  C   UNL     1       1.066   3.340  20.566  0.00  0.00    +0.000 C 
ATOM     19  N   UNL     1       1.189   4.332  19.477  0.00  0.00    +0.000 NA
ATOM     20  C   UNL     1       1.604   3.541  18.296  0.00  0.00    +0.000 C 
BRANCH  19  21
ATOM     21  C   UNL     1       2.156   5.384  19.847  0.00  0.00    +0.000 C 
BRANCH  21  22
ATOM     22  C   UNL     1       1.942   6.785  19.222  0.00  0.00    +0.000 C 
ATOM     23  C   UNL     1       1.854   7.912  20.252  0.00  0.00    +0.000 C 
ATOM     24  C   UNL     1       3.088   7.074  18.244  0.00  0.00    +0.000 C 
ENDBRANCH  21  22
ENDBRANCH  19  21
ENDBRANCH  15  16
ENDBRANCH   3  15
TORSDOF 6
ENDMDL
MODEL 6
REMARK VINA RESULT:      -6.7      1.410      2.365
REMARK  Name = 
REMARK  9 active torsions:
REMARK  status: ('A' for Active; 'I' for Inactive)
REMARK    1  A    between atoms: C_1  and  C_2
REMARK    2  A    between atoms: C_2  and  C_3
REMARK    3  A    between atoms: C_8  and  C_9
REMARK    4  A    between atoms: N_11  and  C_12
REMARK    5  A    between atoms: C_12  and  C_13
REMARK    6  A    between atoms: N_16  and  C_17
REMARK    7  A    between atoms: C_17  and  C_18
REMARK    8  A    between atoms: C_18  and  C_19
REMARK    9  A    between atoms: C_18  and  C_20
REMARK                            x       y       z     vdW  Elec       q    Type
REMARK                         _______ _______ _______ _____ _____    ______ ____
ROOT
ATOM      1  C   UNL     1       4.083   3.469  17.112  0.00  0.00    +0.000 C 
ATOM      2  O   UNL     1       2.951   3.789  16.772  0.00  0.00    +0.000 OA
ATOM      3  N   UNL     1       4.302   2.426  17.987  0.00  0.00    +0.000 N 
ATOM      4  H   UNL     1       5.263   2.191  18.199  0.00  0.00    +0.000 HD
ENDROOT
BRANCH   1  10
ATOM      5  C   UNL     1       6.257   4.865  17.318  0.00  0.00    +0.000 A 
ATOM      6  N   UNL     1       7.278   5.381  16.529  0.00  0.00    +0.000 NA
ATOM      7  C   UNL     1       7.097   5.060  15.278  0.00  0.00    +0.000 A 
ATOM      8  N   UNL     1       7.928   5.453  14.302  0.00  0.00    +0.000 N 
ATOM      9  S   UNL     1       5.709   4.124  14.955  0.00  0.00    +0.000 S 
ATOM     10  C   UNL     1       5.288   4.135  16.633  0.00  0.00    +0.000 A 
ATOM     11  H   UNL     1       8.557   6.208  14.553  0.00  0.00    +0.000 HD
ATOM     12  H   UNL     1       7.559   5.525  13.361  0.00  0.00    +0.000 HD
BRANCH   5  14
ATOM     13  C   UNL     1       7.691   5.736  19.172  0.00  0.00    +0.000 C 
ATOM     14  C   UNL     1       6.325   5.199  18.778  0.00  0.00    +0.000 C 
ENDBRANCH   5  14
ENDBRANCH   1  10
BRANCH   3  15
ATOM     15  C   UNL     1       3.264   1.591  18.575  0.00  0.00    +0.000 C 
BRANCH  15  16
ATOM     16  C   UNL     1       2.707   2.167  19.876  0.00  0.00    +0.000 C 
ATOM     17  C   UNL     1       3.530   3.317  20.449  0.00  0.00    +0.000 C 
ATOM     18  C   UNL     1       2.489   4.078  21.256  0.00  0.00    +0.000 C 
ATOM     19  N   UNL     1       1.288   4.086  20.394  0.00  0.00    +0.000 NA
ATOM     20  C   UNL     1       1.298   2.765  19.727  0.00  0.00    +0.000 C 
BRANCH  19  21
ATOM     21  C   UNL     1       1.342   5.220  19.450  0.00  0.00    +0.000 C 
BRANCH  21  22
ATOM     22  C   UNL     1       2.371   6.338  19.754  0.00  0.00    +0.000 C 
ATOM     23  C   UNL     1       3.026   6.928  18.506  0.00  0.00    +0.000 C 
ATOM     24  C   UNL     1       1.675   7.454  20.544  0.00  0.00    +0.000 C 
ENDBRANCH  21  22
ENDBRANCH  19  21
ENDBRANCH  15  16
ENDBRANCH   3  15
TORSDOF 6
ENDMDL
MODEL 7
REMARK VINA RESULT:      -6.5      3.417      6.603
REMARK  Name = 
REMARK  9 active torsions:
REMARK  status: ('A' for Active; 'I' for Inactive)
REMARK    1  A    between atoms: C_1  and  C_2
REMARK    2  A    between atoms: C_2  and  C_3
REMARK    3  A    between atoms: C_8  and  C_9
REMARK    4  A    between atoms: N_11  and  C_12
REMARK    5  A    between atoms: C_12  and  C_13
REMARK    6  A    between atoms: N_16  and  C_17
REMARK    7  A    between atoms: C_17  and  C_18
REMARK    8  A    between atoms: C_18  and  C_19
REMARK    9  A    between atoms: C_18  and  C_20
REMARK                            x       y       z     vdW  Elec       q    Type
REMARK                         _______ _______ _______ _____ _____    ______ ____
ROOT
ATOM      1  C   UNL     1       1.953   8.835  18.374  0.00  0.00    +0.000 C 
ATOM      2  O   UNL     1       1.948   9.478  17.332  0.00  0.00    +0.000 OA
ATOM      3  N   UNL     1       2.814   7.775  18.560  0.00  0.00    +0.000 N 
ATOM      4  H   UNL     1       2.790   7.309  19.457  0.00  0.00    +0.000 HD
ENDROOT
BRANCH   1  10
ATOM      5  C   UNL     1      -0.014   9.985  19.610  0.00  0.00    +0.000 A 
ATOM      6  N   UNL     1      -0.619  10.022  20.860  0.00  0.00    +0.000 NA
ATOM      7  C   UNL     1      -0.012   9.217  21.687  0.00  0.00    +0.000 A 
ATOM      8  N   UNL     1      -0.381   9.080  22.969  0.00  0.00    +0.000 N 
ATOM      9  S   UNL     1       1.312   8.361  21.037  0.00  0.00    +0.000 S 
ATOM     10  C   UNL     1       1.075   9.122  19.502  0.00  0.00    +0.000 A 
ATOM     11  H   UNL     1      -0.992   9.811  23.318  0.00  0.00    +0.000 HD
ATOM     12  H   UNL     1       0.318   8.777  23.637  0.00  0.00    +0.000 HD
BRANCH   5  14
ATOM     13  C   UNL     1      -1.681  10.217  17.761  0.00  0.00    +0.000 C 
ATOM     14  C   UNL     1      -0.594  10.901  18.574  0.00  0.00    +0.000 C 
ENDBRANCH   5  14
ENDBRANCH   1  10
BRANCH   3  15
ATOM     15  C   UNL     1       3.803   7.318  17.594  0.00  0.00    +0.000 C 
BRANCH  15  16
ATOM     16  C   UNL     1       4.085   5.819  17.698  0.00  0.00    +0.000 C 
ATOM     17  C   UNL     1       4.870   5.420  18.944  0.00  0.00    +0.000 C 
ATOM     18  C   UNL     1       4.443   3.973  19.134  0.00  0.00    +0.000 C 
ATOM     19  N   UNL     1       2.988   3.979  18.872  0.00  0.00    +0.000 NA
ATOM     20  C   UNL     1       2.811   4.962  17.778  0.00  0.00    +0.000 C 
BRANCH  19  21
ATOM     21  C   UNL     1       2.246   4.330  20.099  0.00  0.00    +0.000 C 
BRANCH  21  22
ATOM     22  C   UNL     1       1.072   3.402  20.498  0.00  0.00    +0.000 C 
ATOM     23  C   UNL     1       0.596   2.491  19.366  0.00  0.00    +0.000 C 
ATOM     24  C   UNL     1       1.498   2.547  21.699  0.00  0.00    +0.000 C 
ENDBRANCH  21  22
ENDBRANCH  19  21
ENDBRANCH  15  16
ENDBRANCH   3  15
TORSDOF 6
ENDMDL
MODEL 8
REMARK VINA RESULT:      -6.4      0.806      1.177
REMARK  Name = 
REMARK  9 active torsions:
REMARK  status: ('A' for Active; 'I' for Inactive)
REMARK    1  A    between atoms: C_1  and  C_2
REMARK    2  A    between atoms: C_2  and  C_3
REMARK    3  A    between atoms: C_8  and  C_9
REMARK    4  A    between atoms: N_11  and  C_12
REMARK    5  A    between atoms: C_12  and  C_13
REMARK    6  A    between atoms: N_16  and  C_17
REMARK    7  A    between atoms: C_17  and  C_18
REMARK    8  A    between atoms: C_18  and  C_19
REMARK    9  A    between atoms: C_18  and  C_20
REMARK                            x       y       z     vdW  Elec       q    Type
REMARK                         _______ _______ _______ _____ _____    ______ ____
ROOT
ATOM      1  C   UNL     1       4.370   3.939  17.495  0.00  0.00    +0.000 C 
ATOM      2  O   UNL     1       3.303   4.180  16.945  0.00  0.00    +0.000 OA
ATOM      3  N   UNL     1       4.578   2.757  18.174  0.00  0.00    +0.000 N 
ATOM      4  H   UNL     1       5.494   2.607  18.575  0.00  0.00    +0.000 HD
ENDROOT
BRANCH   1  10
ATOM      5  C   UNL     1       6.180   5.451  16.419  0.00  0.00    +0.000 A 
ATOM      6  N   UNL     1       7.249   6.263  16.776  0.00  0.00    +0.000 NA
ATOM      7  C   UNL     1       7.395   6.284  18.072  0.00  0.00    +0.000 A 
ATOM      8  N   UNL     1       8.370   6.975  18.681  0.00  0.00    +0.000 N 
ATOM      9  S   UNL     1       6.275   5.346  18.951  0.00  0.00    +0.000 S 
ATOM     10  C   UNL     1       5.508   4.851  17.482  0.00  0.00    +0.000 A 
ATOM     11  H   UNL     1       9.125   7.274  18.073  0.00  0.00    +0.000 HD
ATOM     12  H   UNL     1       8.680   6.660  19.593  0.00  0.00    +0.000 HD
BRANCH   5  14
ATOM     13  C   UNL     1       6.415   3.969  14.419  0.00  0.00    +0.000 C 
ATOM     14  C   UNL     1       5.928   5.309  14.948  0.00  0.00    +0.000 C 
ENDBRANCH   5  14
ENDBRANCH   1  10
BRANCH   3  15
ATOM     15  C   UNL     1       3.607   1.680  18.298  0.00  0.00    +0.000 C 
BRANCH  15  16
ATOM     16  C   UNL     1       2.745   1.800  19.554  0.00  0.00    +0.000 C 
ATOM     17  C   UNL     1       3.278   2.797  20.580  0.00  0.00    +0.000 C 
ATOM     18  C   UNL     1       2.010   3.197  21.317  0.00  0.00    +0.000 C 
ATOM     19  N   UNL     1       0.997   3.357  20.252  0.00  0.00    +0.000 NA
ATOM     20  C   UNL     1       1.317   2.294  19.271  0.00  0.00    +0.000 C 
BRANCH  19  21
ATOM     21  C   UNL     1       1.061   4.718  19.683  0.00  0.00    +0.000 C 
BRANCH  21  22
ATOM     22  C   UNL     1       1.937   5.751  20.433  0.00  0.00    +0.000 C 
ATOM     23  C   UNL     1       2.915   6.501  19.528  0.00  0.00    +0.000 C 
ATOM     24  C   UNL     1       1.023   6.757  21.144  0.00  0.00    +0.000 C 
ENDBRANCH  21  22
ENDBRANCH  19  21
ENDBRANCH  15  16
ENDBRANCH   3  15
TORSDOF 6
ENDMDL
MODEL 9
REMARK VINA RESULT:      -6.3      1.997      2.957
REMARK  Name = 
REMARK  9 active torsions:
REMARK  status: ('A' for Active; 'I' for Inactive)
REMARK    1  A    between atoms: C_1  and  C_2
REMARK    2  A    between atoms: C_2  and  C_3
REMARK    3  A    between atoms: C_8  and  C_9
REMARK    4  A    between atoms: N_11  and  C_12
REMARK    5  A    between atoms: C_12  and  C_13
REMARK    6  A    between atoms: N_16  and  C_17
REMARK    7  A    between atoms: C_17  and  C_18
REMARK    8  A    between atoms: C_18  and  C_19
REMARK    9  A    between atoms: C_18  and  C_20
REMARK                            x       y       z     vdW  Elec       q    Type
REMARK                         _______ _______ _______ _____ _____    ______ ____
ROOT
ATOM      1  C   UNL     1       5.926   4.464  18.683  0.00  0.00    +0.000 C 
ATOM      2  O   UNL     1       6.035   5.016  19.771  0.00  0.00    +0.000 OA
ATOM      3  N   UNL     1       5.239   3.277  18.545  0.00  0.00    +0.000 N 
ATOM      4  H   UNL     1       5.157   2.893  17.613  0.00  0.00    +0.000 HD
ENDROOT
BRANCH   1  10
ATOM      5  C   UNL     1       6.921   6.281  17.126  0.00  0.00    +0.000 A 
ATOM      6  N   UNL     1       7.396   6.440  15.830  0.00  0.00    +0.000 NA
ATOM      7  C   UNL     1       7.331   5.312  15.178  0.00  0.00    +0.000 A 
ATOM      8  N   UNL     1       7.707   5.193  13.896  0.00  0.00    +0.000 N 
ATOM      9  S   UNL     1       6.706   3.992  16.057  0.00  0.00    +0.000 S 
ATOM     10  C   UNL     1       6.492   4.996  17.449  0.00  0.00    +0.000 A 
ATOM     11  H   UNL     1       7.809   6.071  13.398  0.00  0.00    +0.000 HD
ATOM     12  H   UNL     1       7.288   4.455  13.342  0.00  0.00    +0.000 HD
BRANCH   5  14
ATOM     13  C   UNL     1       8.182   8.326  17.819  0.00  0.00    +0.000 C 
ATOM     14  C   UNL     1       6.903   7.519  17.973  0.00  0.00    +0.000 C 
ENDBRANCH   5  14
ENDBRANCH   1  10
BRANCH   3  15
ATOM     15  C   UNL     1       4.561   2.570  19.623  0.00  0.00    +0.000 C 
BRANCH  15  16
ATOM     16  C   UNL     1       3.153   2.116  19.240  0.00  0.00    +0.000 C 
ATOM     17  C   UNL     1       2.065   2.587  20.201  0.00  0.00    +0.000 C 
ATOM     18  C   UNL     1       0.837   2.598  19.304  0.00  0.00    +0.000 C 
ATOM     19  N   UNL     1       1.315   3.174  18.029  0.00  0.00    +0.000 NA
ATOM     20  C   UNL     1       2.689   2.646  17.873  0.00  0.00    +0.000 C 
BRANCH  19  21
ATOM     21  C   UNL     1       1.256   4.649  18.079  0.00  0.00    +0.000 C 
BRANCH  21  22
ATOM     22  C   UNL     1       2.516   5.383  18.599  0.00  0.00    +0.000 C 
ATOM     23  C   UNL     1       3.038   6.461  17.648  0.00  0.00    +0.000 C 
ATOM     24  C   UNL     1       2.198   6.013  19.961  0.00  0.00    +0.000 C 
ENDBRANCH  21  22
ENDBRANCH  19  21
ENDBRANCH  15  16
ENDBRANCH   3  15
TORSDOF 6
ENDMDL
