MODEL 1
REMARK VINA RESULT:      -7.2      0.000      0.000
REMARK  Name = 
REMARK  3 active torsions:
REMARK  status: ('A' for Active; 'I' for Inactive)
REMARK    1  A    between atoms: C_2  and  C_3
REMARK    2  A    between atoms: C_4  and  C_5
REMARK    3  A    between atoms: N_17  and  S_18
REMARK                            x       y       z     vdW  Elec       q    Type
REMARK                         _______ _______ _______ _____ _____    ______ ____
ROOT
ATOM      1  O   UNL     1       1.574   4.706  21.016  0.00  0.00    +0.000 OA
ATOM      2  C   UNL     1       2.289   5.372  20.260  0.00  0.00    +0.000 C 
ATOM      3  N   UNL     1       3.406   4.864  19.648  0.00  0.00    +0.000 N 
ATOM      4  C   UNL     1       3.729   3.437  19.681  0.00  0.00    +0.000 C 
ATOM      5  C   UNL     1       4.822   3.259  18.635  0.00  0.00    +0.000 C 
ATOM      6  C   UNL     1       5.610   4.569  18.661  0.00  0.00    +0.000 C 
ATOM      7  C   UNL     1       4.597   5.625  19.173  0.00  0.00    +0.000 C 
ATOM      8  C   UNL     1       4.670   6.184  17.711  0.00  0.00    +0.000 C 
ATOM      9  O   UNL     1       4.210   7.116  17.097  0.00  0.00    +0.000 OA
ATOM     10  N   UNL     1       5.602   5.215  17.339  0.00  0.00    +0.000 N 
ENDROOT
BRANCH  10  11
ATOM     11  S   UNL     1       6.914   5.575  16.375  0.00  0.00    +0.000 S 
ATOM     12  O   UNL     1       7.803   4.438  16.591  0.00  0.00    +0.000 OA
ATOM     13  O   UNL     1       6.308   5.628  15.051  0.00  0.00    +0.000 OA
ATOM     14  O   UNL     1       7.379   6.855  16.898  0.00  0.00    +0.000 OA
ENDBRANCH  10  11
BRANCH   2  15
ATOM     15  C   UNL     1       1.997   6.801  20.005  0.00  0.00    +0.000 C 
ATOM     16  C   UNL     1       1.390   7.528  20.958  0.00  0.00    +0.000 C 
BRANCH  16  17
ATOM     17  C   UNL     1       1.072   8.904  20.846  0.00  0.00    +0.000 A 
ATOM     18  C   UNL     1       0.753   9.797  21.838  0.00  0.00    +0.000 A 
ATOM     19  N   UNL     1       0.557  10.982  21.183  0.00  0.00    +0.000 N 
ATOM     20  C   UNL     1       0.749  10.749  19.848  0.00  0.00    +0.000 A 
ATOM     21  N   UNL     1       1.072   9.495  19.616  0.00  0.00    +0.000 NA
ATOM     22  H   UNL     1       0.321  11.872  21.603  0.00  0.00    +0.000 HD
ENDBRANCH  16  17
ENDBRANCH   2  15
TORSDOF 3
ENDMDL
MODEL 2
REMARK VINA RESULT:      -7.1      4.078      7.782
REMARK  Name = 
REMARK  3 active torsions:
REMARK  status: ('A' for Active; 'I' for Inactive)
REMARK    1  A    between atoms: C_2  and  C_3
REMARK    2  A    between atoms: C_4  and  C_5
REMARK    3  A    between atoms: N_17  and  S_18
REMARK                            x       y       z     vdW  Elec       q    Type
REMARK                         _______ _______ _______ _____ _____    ______ ____
ROOT
ATOM      1  O   UNL     1       7.328   5.648  15.742  0.00  0.00    +0.000 OA
ATOM      2  C   UNL     1       6.313   4.979  15.958  0.00  0.00    +0.000 C 
ATOM      3  N   UNL     1       5.800   4.785  17.216  0.00  0.00    +0.000 N 
ATOM      4  C   UNL     1       6.298   5.519  18.380  0.00  0.00    +0.000 C 
ATOM      5  C   UNL     1       5.269   5.263  19.474  0.00  0.00    +0.000 C 
ATOM      6  C   UNL     1       4.745   3.852  19.200  0.00  0.00    +0.000 C 
ATOM      7  C   UNL     1       4.960   3.643  17.679  0.00  0.00    +0.000 C 
ATOM      8  C   UNL     1       3.396   3.706  17.603  0.00  0.00    +0.000 C 
ATOM      9  O   UNL     1       2.547   3.589  16.752  0.00  0.00    +0.000 OA
ATOM     10  N   UNL     1       3.290   3.864  18.984  0.00  0.00    +0.000 N 
ENDROOT
BRANCH  10  11
ATOM     11  S   UNL     1       2.124   3.074  19.876  0.00  0.00    +0.000 S 
ATOM     12  O   UNL     1       2.644   3.150  21.238  0.00  0.00    +0.000 OA
ATOM     13  O   UNL     1       0.948   3.899  19.630  0.00  0.00    +0.000 OA
ATOM     14  O   UNL     1       2.085   1.743  19.283  0.00  0.00    +0.000 OA
ENDBRANCH  10  11
BRANCH   2  15
ATOM     15  C   UNL     1       5.604   4.298  14.852  0.00  0.00    +0.000 C 
ATOM     16  C   UNL     1       6.284   3.961  13.744  0.00  0.00    +0.000 C 
BRANCH  16  17
ATOM     17  C   UNL     1       5.730   3.292  12.625  0.00  0.00    +0.000 A 
ATOM     18  C   UNL     1       6.229   2.221  11.929  0.00  0.00    +0.000 A 
ATOM     19  N   UNL     1       5.291   1.972  10.964  0.00  0.00    +0.000 N 
ATOM     20  C   UNL     1       4.295   2.898  11.111  0.00  0.00    +0.000 A 
ATOM     21  N   UNL     1       4.532   3.709  12.121  0.00  0.00    +0.000 NA
ATOM     22  H   UNL     1       5.320   1.235  10.270  0.00  0.00    +0.000 HD
ENDBRANCH  16  17
ENDBRANCH   2  15
TORSDOF 3
ENDMDL
MODEL 3
REMARK VINA RESULT:      -7.1      0.980      1.279
REMARK  Name = 
REMARK  3 active torsions:
REMARK  status: ('A' for Active; 'I' for Inactive)
REMARK    1  A    between atoms: C_2  and  C_3
REMARK    2  A    between atoms: C_4  and  C_5
REMARK    3  A    between atoms: N_17  and  S_18
REMARK                            x       y       z     vdW  Elec       q    Type
REMARK                         _______ _______ _______ _____ _____    ______ ____
ROOT
ATOM      1  O   UNL     1       1.574   5.555  20.748  0.00  0.00    +0.000 OA
ATOM      2  C   UNL     1       2.390   5.980  19.924  0.00  0.00    +0.000 C 
ATOM      3  N   UNL     1       3.469   5.250  19.495  0.00  0.00    +0.000 N 
ATOM      4  C   UNL     1       3.630   3.834  19.826  0.00  0.00    +0.000 C 
ATOM      5  C   UNL     1       4.740   3.341  18.907  0.00  0.00    +0.000 C 
ATOM      6  C   UNL     1       5.667   4.543  18.727  0.00  0.00    +0.000 C 
ATOM      7  C   UNL     1       4.756   5.777  18.957  0.00  0.00    +0.000 C 
ATOM      8  C   UNL     1       4.953   6.020  17.422  0.00  0.00    +0.000 C 
ATOM      9  O   UNL     1       4.626   6.851  16.610  0.00  0.00    +0.000 OA
ATOM     10  N   UNL     1       5.787   4.908  17.307  0.00  0.00    +0.000 N 
ENDROOT
BRANCH  10  11
ATOM     11  S   UNL     1       7.170   4.934  16.377  0.00  0.00    +0.000 S 
ATOM     12  O   UNL     1       8.110   4.140  17.163  0.00  0.00    +0.000 OA
ATOM     13  O   UNL     1       6.718   4.295  15.148  0.00  0.00    +0.000 OA
ATOM     14  O   UNL     1       7.477   6.355  16.263  0.00  0.00    +0.000 OA
ENDBRANCH  10  11
BRANCH   2  15
ATOM     15  C   UNL     1       2.270   7.351  19.376  0.00  0.00    +0.000 C 
ATOM     16  C   UNL     1       1.403   8.209  19.938  0.00  0.00    +0.000 C 
BRANCH  16  17
ATOM     17  C   UNL     1       1.205   9.548  19.522  0.00  0.00    +0.000 A 
ATOM     18  C   UNL     1       1.207  10.064  18.251  0.00  0.00    +0.000 A 
ATOM     19  N   UNL     1       0.950  11.398  18.421  0.00  0.00    +0.000 N 
ATOM     20  C   UNL     1       0.823  11.623  19.765  0.00  0.00    +0.000 A 
ATOM     21  N   UNL     1       0.965  10.513  20.458  0.00  0.00    +0.000 NA
ATOM     22  H   UNL     1       0.862  12.093  17.691  0.00  0.00    +0.000 HD
ENDBRANCH  16  17
ENDBRANCH   2  15
TORSDOF 3
ENDMDL
MODEL 4
REMARK VINA RESULT:      -7.0      0.567      1.262
REMARK  Name = 
REMARK  3 active torsions:
REMARK  status: ('A' for Active; 'I' for Inactive)
REMARK    1  A    between atoms: C_2  and  C_3
REMARK    2  A    between atoms: C_4  and  C_5
REMARK    3  A    between atoms: N_17  and  S_18
REMARK                            x       y       z     vdW  Elec       q    Type
REMARK                         _______ _______ _______ _____ _____    ______ ____
ROOT
ATOM      1  O   UNL     1       1.475   4.594  20.925  0.00  0.00    +0.000 OA
ATOM      2  C   UNL     1       2.239   5.275  20.233  0.00  0.00    +0.000 C 
ATOM      3  N   UNL     1       3.320   4.747  19.573  0.00  0.00    +0.000 N 
ATOM      4  C   UNL     1       3.540   3.304  19.472  0.00  0.00    +0.000 C 
ATOM      5  C   UNL     1       4.622   3.146  18.412  0.00  0.00    +0.000 C 
ATOM      6  C   UNL     1       5.502   4.388  18.558  0.00  0.00    +0.000 C 
ATOM      7  C   UNL     1       4.565   5.462  19.168  0.00  0.00    +0.000 C 
ATOM      8  C   UNL     1       4.684   6.147  17.765  0.00  0.00    +0.000 C 
ATOM      9  O   UNL     1       4.294   7.163  17.241  0.00  0.00    +0.000 OA
ATOM     10  N   UNL     1       5.546   5.153  17.302  0.00  0.00    +0.000 N 
ENDROOT
BRANCH  10  11
ATOM     11  S   UNL     1       6.884   5.507  16.374  0.00  0.00    +0.000 S 
ATOM     12  O   UNL     1       6.335   5.594  15.024  0.00  0.00    +0.000 OA
ATOM     13  O   UNL     1       7.313   6.780  16.937  0.00  0.00    +0.000 OA
ATOM     14  O   UNL     1       7.779   4.383  16.625  0.00  0.00    +0.000 OA
ENDBRANCH  10  11
BRANCH   2  15
ATOM     15  C   UNL     1       2.052   6.738  20.112  0.00  0.00    +0.000 C 
ATOM     16  C   UNL     1       1.152   7.353  20.898  0.00  0.00    +0.000 C 
BRANCH  16  17
ATOM     17  C   UNL     1       0.889   8.744  20.894  0.00  0.00    +0.000 A 
ATOM     18  C   UNL     1       0.857   9.611  19.831  0.00  0.00    +0.000 A 
ATOM     19  N   UNL     1       0.540  10.822  20.385  0.00  0.00    +0.000 N 
ATOM     20  C   UNL     1       0.414  10.635  21.734  0.00  0.00    +0.000 A 
ATOM     21  N   UNL     1       0.612   9.378  22.071  0.00  0.00    +0.000 NA
ATOM     22  H   UNL     1       0.415  11.696  19.891  0.00  0.00    +0.000 HD
ENDBRANCH  16  17
ENDBRANCH   2  15
TORSDOF 3
ENDMDL
MODEL 5
REMARK VINA RESULT:      -6.9      4.091      7.847
REMARK  Name = 
REMARK  3 active torsions:
REMARK  status: ('A' for Active; 'I' for Inactive)
REMARK    1  A    between atoms: C_2  and  C_3
REMARK    2  A    between atoms: C_4  and  C_5
REMARK    3  A    between atoms: N_17  and  S_18
REMARK                            x       y       z     vdW  Elec       q    Type
REMARK                         _______ _______ _______ _____ _____    ______ ____
ROOT
ATOM      1  O   UNL     1       7.266   5.701  15.697  0.00  0.00    +0.000 OA
ATOM      2  C   UNL     1       6.282   4.997  15.941  0.00  0.00    +0.000 C 
ATOM      3  N   UNL     1       5.746   4.871  17.198  0.00  0.00    +0.000 N 
ATOM      4  C   UNL     1       6.173   5.716  18.313  0.00  0.00    +0.000 C 
ATOM      5  C   UNL     1       5.129   5.489  19.399  0.00  0.00    +0.000 C 
ATOM      6  C   UNL     1       4.687   4.036  19.223  0.00  0.00    +0.000 C 
ATOM      7  C   UNL     1       4.954   3.724  17.728  0.00  0.00    +0.000 C 
ATOM      8  C   UNL     1       3.392   3.696  17.611  0.00  0.00    +0.000 C 
ATOM      9  O   UNL     1       2.574   3.469  16.752  0.00  0.00    +0.000 OA
ATOM     10  N   UNL     1       3.240   3.952  18.973  0.00  0.00    +0.000 N 
ENDROOT
BRANCH  10  11
ATOM     11  S   UNL     1       2.092   3.170  19.896  0.00  0.00    +0.000 S 
ATOM     12  O   UNL     1       2.131   1.805  19.381  0.00  0.00    +0.000 OA
ATOM     13  O   UNL     1       2.632   3.326  21.240  0.00  0.00    +0.000 OA
ATOM     14  O   UNL     1       0.870   3.918  19.625  0.00  0.00    +0.000 OA
ENDBRANCH  10  11
BRANCH   2  15
ATOM     15  C   UNL     1       5.640   4.196  14.874  0.00  0.00    +0.000 C 
ATOM     16  C   UNL     1       6.252   4.074  13.685  0.00  0.00    +0.000 C 
BRANCH  16  17
ATOM     17  C   UNL     1       5.755   3.325  12.591  0.00  0.00    +0.000 A 
ATOM     18  C   UNL     1       4.539   3.422  11.963  0.00  0.00    +0.000 A 
ATOM     19  N   UNL     1       4.591   2.483  10.968  0.00  0.00    +0.000 N 
ATOM     20  C   UNL     1       5.808   1.864  11.051  0.00  0.00    +0.000 A 
ATOM     21  N   UNL     1       6.541   2.363  12.025  0.00  0.00    +0.000 NA
ATOM     22  H   UNL     1       3.867   2.284  10.289  0.00  0.00    +0.000 HD
ENDBRANCH  16  17
ENDBRANCH   2  15
TORSDOF 3
ENDMDL
MODEL 6
REMARK VINA RESULT:      -6.8      0.552      1.055
REMARK  Name = 
REMARK  3 active torsions:
REMARK  status: ('A' for Active; 'I' for Inactive)
REMARK    1  A    between atoms: C_2  and  C_3
REMARK    2  A    between atoms: C_4  and  C_5
REMARK    3  A    between atoms: N_17  and  S_18
REMARK                            x       y       z     vdW  Elec       q    Type
REMARK                         _______ _______ _______ _____ _____    ______ ____
ROOT
ATOM      1  O   UNL     1       1.264   4.025  21.090  0.00  0.00    +0.000 OA
ATOM      2  C   UNL     1       1.921   4.814  20.403  0.00  0.00    +0.000 C 
ATOM      3  N   UNL     1       3.137   4.493  19.854  0.00  0.00    +0.000 N 
ATOM      4  C   UNL     1       3.660   3.127  19.869  0.00  0.00    +0.000 C 
ATOM      5  C   UNL     1       4.831   3.146  18.895  0.00  0.00    +0.000 C 
ATOM      6  C   UNL     1       5.419   4.552  19.011  0.00  0.00    +0.000 C 
ATOM      7  C   UNL     1       4.233   5.434  19.483  0.00  0.00    +0.000 C 
ATOM      8  C   UNL     1       4.317   6.052  18.046  0.00  0.00    +0.000 C 
ATOM      9  O   UNL     1       3.767   6.932  17.428  0.00  0.00    +0.000 OA
ATOM     10  N   UNL     1       5.400   5.240  17.711  0.00  0.00    +0.000 N 
ENDROOT
BRANCH  10  11
ATOM     11  S   UNL     1       6.705   5.819  16.849  0.00  0.00    +0.000 S 
ATOM     12  O   UNL     1       7.103   7.001  17.609  0.00  0.00    +0.000 OA
ATOM     13  O   UNL     1       7.638   4.704  16.931  0.00  0.00    +0.000 OA
ATOM     14  O   UNL     1       6.152   6.072  15.524  0.00  0.00    +0.000 OA
ENDBRANCH  10  11
BRANCH   2  15
ATOM     15  C   UNL     1       1.443   6.196  20.169  0.00  0.00    +0.000 C 
ATOM     16  C   UNL     1       1.643   7.129  21.114  0.00  0.00    +0.000 C 
BRANCH  16  17
ATOM     17  C   UNL     1       1.251   8.485  21.008  0.00  0.00    +0.000 A 
ATOM     18  C   UNL     1       0.919   9.367  22.006  0.00  0.00    +0.000 A 
ATOM     19  N   UNL     1       0.641  10.537  21.352  0.00  0.00    +0.000 N 
ATOM     20  C   UNL     1       0.802  10.307  20.013  0.00  0.00    +0.000 A 
ATOM     21  N   UNL     1       1.182   9.069  19.775  0.00  0.00    +0.000 NA
ATOM     22  H   UNL     1       0.373  11.416  21.776  0.00  0.00    +0.000 HD
ENDBRANCH  16  17
ENDBRANCH   2  15
TORSDOF 3
ENDMDL
MODEL 7
REMARK VINA RESULT:      -6.6      4.007      7.757
REMARK  Name = 
REMARK  3 active torsions:
REMARK  status: ('A' for Active; 'I' for Inactive)
REMARK    1  A    between atoms: C_2  and  C_3
REMARK    2  A    between atoms: C_4  and  C_5
REMARK    3  A    between atoms: N_17  and  S_18
REMARK                            x       y       z     vdW  Elec       q    Type
REMARK                         _______ _______ _______ _____ _____    ______ ____
ROOT
ATOM      1  O   UNL     1       7.384   5.332  16.275  0.00  0.00    +0.000 OA
ATOM      2  C   UNL     1       6.356   4.654  16.363  0.00  0.00    +0.000 C 
ATOM      3  N   UNL     1       5.559   4.646  17.481  0.00  0.00    +0.000 N 
ATOM      4  C   UNL     1       5.755   5.592  18.580  0.00  0.00    +0.000 C 
ATOM      5  C   UNL     1       4.497   5.468  19.431  0.00  0.00    +0.000 C 
ATOM      6  C   UNL     1       4.073   4.005  19.297  0.00  0.00    +0.000 C 
ATOM      7  C   UNL     1       4.648   3.555  17.929  0.00  0.00    +0.000 C 
ATOM      8  C   UNL     1       3.148   3.518  17.480  0.00  0.00    +0.000 C 
ATOM      9  O   UNL     1       2.529   3.212  16.489  0.00  0.00    +0.000 OA
ATOM     10  N   UNL     1       2.712   3.900  18.748  0.00  0.00    +0.000 N 
ENDROOT
BRANCH  10  11
ATOM     11  S   UNL     1       1.376   3.209  19.469  0.00  0.00    +0.000 S 
ATOM     12  O   UNL     1       0.872   4.280  20.322  0.00  0.00    +0.000 OA
ATOM     13  O   UNL     1       0.537   2.906  18.317  0.00  0.00    +0.000 OA
ATOM     14  O   UNL     1       1.925   2.049  20.161  0.00  0.00    +0.000 OA
ENDBRANCH  10  11
BRANCH   2  15
ATOM     15  C   UNL     1       5.941   3.758  15.260  0.00  0.00    +0.000 C 
ATOM     16  C   UNL     1       5.909   4.232  14.004  0.00  0.00    +0.000 C 
BRANCH  16  17
ATOM     17  C   UNL     1       5.549   3.477  12.862  0.00  0.00    +0.000 A 
ATOM     18  C   UNL     1       4.399   3.539  12.116  0.00  0.00    +0.000 A 
ATOM     19  N   UNL     1       4.581   2.611  11.126  0.00  0.00    +0.000 N 
ATOM     20  C   UNL     1       5.805   2.032  11.327  0.00  0.00    +0.000 A 
ATOM     21  N   UNL     1       6.420   2.547  12.371  0.00  0.00    +0.000 NA
ATOM     22  H   UNL     1       3.937   2.394  10.377  0.00  0.00    +0.000 HD
ENDBRANCH  16  17
ENDBRANCH   2  15
TORSDOF 3
ENDMDL
MODEL 8
REMARK VINA RESULT:      -6.6      2.829      3.866
REMARK  Name = 
REMARK  3 active torsions:
REMARK  status: ('A' for Active; 'I' for Inactive)
REMARK    1  A    between atoms: C_2  and  C_3
REMARK    2  A    between atoms: C_4  and  C_5
REMARK    3  A    between atoms: N_17  and  S_18
REMARK                            x       y       z     vdW  Elec       q    Type
REMARK                         _______ _______ _______ _____ _____    ______ ____
ROOT
ATOM      1  O   UNL     1       2.586   9.247  17.865  0.00  0.00    +0.000 OA
ATOM      2  C   UNL     1       2.395   8.210  18.508  0.00  0.00    +0.000 C 
ATOM      3  N   UNL     1       2.888   6.989  18.122  0.00  0.00    +0.000 N 
ATOM      4  C   UNL     1       3.848   6.851  17.026  0.00  0.00    +0.000 C 
ATOM      5  C   UNL     1       4.374   5.425  17.144  0.00  0.00    +0.000 C 
ATOM      6  C   UNL     1       3.197   4.615  17.689  0.00  0.00    +0.000 C 
ATOM      7  C   UNL     1       2.336   5.646  18.463  0.00  0.00    +0.000 C 
ATOM      8  C   UNL     1       2.821   4.871  19.735  0.00  0.00    +0.000 C 
ATOM      9  O   UNL     1       2.625   4.917  20.926  0.00  0.00    +0.000 OA
ATOM     10  N   UNL     1       3.549   3.967  18.963  0.00  0.00    +0.000 N 
ENDROOT
BRANCH  10  11
ATOM     11  S   UNL     1       3.572   2.335  19.300  0.00  0.00    +0.000 S 
ATOM     12  O   UNL     1       2.236   2.091  19.837  0.00  0.00    +0.000 OA
ATOM     13  O   UNL     1       3.810   1.759  17.984  0.00  0.00    +0.000 OA
ATOM     14  O   UNL     1       4.672   2.199  20.247  0.00  0.00    +0.000 OA
ENDBRANCH  10  11
BRANCH   2  15
ATOM     15  C   UNL     1       1.566   8.220  19.735  0.00  0.00    +0.000 C 
ATOM     16  C   UNL     1       1.155   9.395  20.241  0.00  0.00    +0.000 C 
BRANCH  16  17
ATOM     17  C   UNL     1       0.347   9.542  21.394  0.00  0.00    +0.000 A 
ATOM     18  C   UNL     1      -0.345   8.582  22.088  0.00  0.00    +0.000 A 
ATOM     19  N   UNL     1      -0.936   9.262  23.118  0.00  0.00    +0.000 N 
ATOM     20  C   UNL     1      -0.592  10.580  22.990  0.00  0.00    +0.000 A 
ATOM     21  N   UNL     1       0.196  10.777  21.954  0.00  0.00    +0.000 NA
ATOM     22  H   UNL     1      -1.516   8.867  23.847  0.00  0.00    +0.000 HD
ENDBRANCH  16  17
ENDBRANCH   2  15
TORSDOF 3
ENDMDL
MODEL 9
REMARK VINA RESULT:      -6.6      4.025      6.125
REMARK  Name = 
REMARK  3 active torsions:
REMARK  status: ('A' for Active; 'I' for Inactive)
REMARK    1  A    between atoms: C_2  and  C_3
REMARK    2  A    between atoms: C_4  and  C_5
REMARK    3  A    between atoms: N_17  and  S_18
REMARK                            x       y       z     vdW  Elec       q    Type
REMARK                         _______ _______ _______ _____ _____    ______ ____
ROOT
ATOM      1  O   UNL     1       5.822   3.625  15.059  0.00  0.00    +0.000 OA
ATOM      2  C   UNL     1       5.367   4.210  16.047  0.00  0.00    +0.000 C 
ATOM      3  N   UNL     1       4.332   3.712  16.798  0.00  0.00    +0.000 N 
ATOM      4  C   UNL     1       3.818   2.355  16.610  0.00  0.00    +0.000 C 
ATOM      5  C   UNL     1       2.937   2.099  17.826  0.00  0.00    +0.000 C 
ATOM      6  C   UNL     1       2.344   3.463  18.179  0.00  0.00    +0.000 C 
ATOM      7  C   UNL     1       3.372   4.489  17.634  0.00  0.00    +0.000 C 
ATOM      8  C   UNL     1       3.662   4.775  19.146  0.00  0.00    +0.000 C 
ATOM      9  O   UNL     1       4.357   5.528  19.786  0.00  0.00    +0.000 OA
ATOM     10  N   UNL     1       2.699   3.852  19.553  0.00  0.00    +0.000 N 
ENDROOT
BRANCH  10  11
ATOM     11  S   UNL     1       1.662   4.159  20.822  0.00  0.00    +0.000 S 
ATOM     12  O   UNL     1       0.463   3.411  20.456  0.00  0.00    +0.000 OA
ATOM     13  O   UNL     1       2.399   3.607  21.951  0.00  0.00    +0.000 OA
ATOM     14  O   UNL     1       1.534   5.612  20.813  0.00  0.00    +0.000 OA
ENDBRANCH  10  11
BRANCH   2  15
ATOM     15  C   UNL     1       5.894   5.531  16.456  0.00  0.00    +0.000 C 
ATOM     16  C   UNL     1       6.917   5.591  17.324  0.00  0.00    +0.000 C 
BRANCH  16  17
ATOM     17  C   UNL     1       7.523   6.786  17.780  0.00  0.00    +0.000 A 
ATOM     18  C   UNL     1       8.302   6.987  18.892  0.00  0.00    +0.000 A 
ATOM     19  N   UNL     1       8.634   8.314  18.844  0.00  0.00    +0.000 N 
ATOM     20  C   UNL     1       8.038   8.846  17.733  0.00  0.00    +0.000 A 
ATOM     21  N   UNL     1       7.363   7.936  17.062  0.00  0.00    +0.000 NA
ATOM     22  H   UNL     1       9.218   8.813  19.502  0.00  0.00    +0.000 HD
ENDBRANCH  16  17
ENDBRANCH   2  15
TORSDOF 3
ENDMDL
