MODEL 1
REMARK VINA RESULT:      -8.7      0.000      0.000
REMARK  Name = 
REMARK  7 active torsions:
REMARK  status: ('A' for Active; 'I' for Inactive)
REMARK    1  A    between atoms: C_2  and  C_24
REMARK    2  A    between atoms: N_3  and  N_4
REMARK    3  A    between atoms: C_5  and  C_7
REMARK    4  A    between atoms: C_10  and  C_11
REMARK    5  A    between atoms: C_17  and  C_18
REMARK    6  A    between atoms: C_27  and  O_28
REMARK    7  A    between atoms: C_29  and  O_30
REMARK                            x       y       z     vdW  Elec       q    Type
REMARK                         _______ _______ _______ _____ _____    ______ ____
ROOT
ATOM      1  N   UNL     1       1.568   8.037  20.840  0.00  0.00    +0.000 N 
ATOM      2  C   UNL     1       1.123   9.273  20.416  0.00  0.00    +0.000 C 
ATOM      3  O   UNL     1       1.481   9.663  19.307  0.00  0.00    +0.000 OA
ATOM      4  H   UNL     1       1.340   7.629  21.740  0.00  0.00    +0.000 HD
ENDROOT
BRANCH   2   5
ATOM      5  C   UNL     1       0.260   9.975  21.356  0.00  0.00    +0.000 A 
ATOM      6  O   UNL     1      -0.256   9.230  22.384  0.00  0.00    +0.000 OA
ATOM      7  C   UNL     1      -1.009  10.044  23.158  0.00  0.00    +0.000 A 
ATOM      8  C   UNL     1      -1.035  11.328  22.650  0.00  0.00    +0.000 A 
ATOM      9  C   UNL     1      -0.201  11.293  21.465  0.00  0.00    +0.000 A 
BRANCH   8  10
ATOM     10  C   UNL     1      -1.818  12.409  23.254  0.00  0.00    +0.000 A 
ATOM     11  C   UNL     1      -3.144  12.197  23.665  0.00  0.00    +0.000 A 
ATOM     12  C   UNL     1      -3.839  13.162  24.398  0.00  0.00    +0.000 A 
ATOM     13  C   UNL     1      -3.246  14.391  24.665  0.00  0.00    +0.000 A 
ATOM     14  C   UNL     1      -1.954  14.646  24.210  0.00  0.00    +0.000 A 
ATOM     15  C   UNL     1      -1.240  13.660  23.519  0.00  0.00    +0.000 A 
ENDBRANCH   8  10
BRANCH   9  16
ATOM     16  C   UNL     1       0.062  12.356  20.492  0.00  0.00    +0.000 A 
ATOM     17  C   UNL     1      -0.719  12.506  19.342  0.00  0.00    +0.000 A 
ATOM     18  C   UNL     1      -0.486  13.525  18.423  0.00  0.00    +0.000 A 
ATOM     19  C   UNL     1       0.628  14.344  18.571  0.00  0.00    +0.000 A 
ATOM     20  C   UNL     1       1.463  14.176  19.666  0.00  0.00    +0.000 A 
ATOM     21  C   UNL     1       1.149  13.234  20.646  0.00  0.00    +0.000 A 
ENDBRANCH   9  16
ENDBRANCH   2   5
BRANCH   1  24
ATOM     22  O   UNL     1       1.530   5.303  20.710  0.00  0.00    +0.000 OA
ATOM     23  C   UNL     1       2.287   5.925  19.974  0.00  0.00    +0.000 C 
ATOM     24  N   UNL     1       2.360   7.300  19.955  0.00  0.00    +0.000 N 
ATOM     25  H   UNL     1       2.871   7.838  19.252  0.00  0.00    +0.000 HD
BRANCH  23  26
ATOM     26  C   UNL     1       3.178   5.218  19.022  0.00  0.00    +0.000 A 
ATOM     27  C   UNL     1       2.606   4.650  17.875  0.00  0.00    +0.000 A 
ATOM     28  C   UNL     1       3.394   3.924  16.973  0.00  0.00    +0.000 A 
ATOM     29  C   UNL     1       4.748   3.766  17.241  0.00  0.00    +0.000 A 
ATOM     30  C   UNL     1       5.314   4.330  18.382  0.00  0.00    +0.000 A 
ATOM     31  C   UNL     1       4.546   5.061  19.279  0.00  0.00    +0.000 A 
BRANCH  29  32
ATOM     32  O   UNL     1       5.571   3.051  16.414  0.00  0.00    +0.000 OA
ATOM     33  H   UNL     1       5.030   2.671  15.700  0.00  0.00    +0.000 HD
ENDBRANCH  29  32
BRANCH  30  34
ATOM     34  O   UNL     1       6.641   4.150  18.646  0.00  0.00    +0.000 OA
ATOM     35  H   UNL     1       6.785   3.187  18.559  0.00  0.00    +0.000 HD
ENDBRANCH  30  34
ENDBRANCH  23  26
ENDBRANCH   1  24
TORSDOF 7
ENDMDL
MODEL 2
REMARK VINA RESULT:      -8.6      0.728      1.278
REMARK  Name = 
REMARK  7 active torsions:
REMARK  status: ('A' for Active; 'I' for Inactive)
REMARK    1  A    between atoms: C_2  and  C_24
REMARK    2  A    between atoms: N_3  and  N_4
REMARK    3  A    between atoms: C_5  and  C_7
REMARK    4  A    between atoms: C_10  and  C_11
REMARK    5  A    between atoms: C_17  and  C_18
REMARK    6  A    between atoms: C_27  and  O_28
REMARK    7  A    between atoms: C_29  and  O_30
REMARK                            x       y       z     vdW  Elec       q    Type
REMARK                         _______ _______ _______ _____ _____    ______ ____
ROOT
ATOM      1  N   UNL     1       1.683   7.964  20.911  0.00  0.00    +0.000 N 
ATOM      2  C   UNL     1       1.098   9.100  20.388  0.00  0.00    +0.000 C 
ATOM      3  O   UNL     1       1.331   9.378  19.215  0.00  0.00    +0.000 OA
ATOM      4  H   UNL     1       1.564   7.653  21.868  0.00  0.00    +0.000 HD
ENDROOT
BRANCH   2   5
ATOM      5  C   UNL     1       0.252   9.842  21.315  0.00  0.00    +0.000 A 
ATOM      6  O   UNL     1      -0.301   9.124  22.343  0.00  0.00    +0.000 OA
ATOM      7  C   UNL     1      -1.031   9.972  23.102  0.00  0.00    +0.000 A 
ATOM      8  C   UNL     1      -1.005  11.251  22.585  0.00  0.00    +0.000 A 
ATOM      9  C   UNL     1      -0.161  11.176  21.408  0.00  0.00    +0.000 A 
BRANCH   8  10
ATOM     10  C   UNL     1      -1.754  12.366  23.172  0.00  0.00    +0.000 A 
ATOM     11  C   UNL     1      -3.089  12.205  23.575  0.00  0.00    +0.000 A 
ATOM     12  C   UNL     1      -3.755  13.202  24.293  0.00  0.00    +0.000 A 
ATOM     13  C   UNL     1      -3.120  14.411  24.553  0.00  0.00    +0.000 A 
ATOM     14  C   UNL     1      -1.816  14.616  24.105  0.00  0.00    +0.000 A 
ATOM     15  C   UNL     1      -1.133  13.598  23.430  0.00  0.00    +0.000 A 
ENDBRANCH   8  10
BRANCH   9  16
ATOM     16  C   UNL     1       0.151  12.221  20.430  0.00  0.00    +0.000 A 
ATOM     17  C   UNL     1       1.314  12.991  20.527  0.00  0.00    +0.000 A 
ATOM     18  C   UNL     1       1.624  13.973  19.591  0.00  0.00    +0.000 A 
ATOM     19  C   UNL     1       0.703  14.298  18.602  0.00  0.00    +0.000 A 
ATOM     20  C   UNL     1      -0.492  13.599  18.520  0.00  0.00    +0.000 A 
ATOM     21  C   UNL     1      -0.738  12.532  19.386  0.00  0.00    +0.000 A 
ENDBRANCH   9  16
ENDBRANCH   2   5
BRANCH   1  24
ATOM     22  O   UNL     1       1.382   5.258  20.634  0.00  0.00    +0.000 OA
ATOM     23  C   UNL     1       2.254   5.830  19.991  0.00  0.00    +0.000 C 
ATOM     24  N   UNL     1       2.466   7.190  20.050  0.00  0.00    +0.000 N 
ATOM     25  H   UNL     1       3.082   7.703  19.417  0.00  0.00    +0.000 HD
BRANCH  23  26
ATOM     26  C   UNL     1       3.143   5.078  19.071  0.00  0.00    +0.000 A 
ATOM     27  C   UNL     1       3.912   5.803  18.150  0.00  0.00    +0.000 A 
ATOM     28  C   UNL     1       4.725   5.138  17.224  0.00  0.00    +0.000 A 
ATOM     29  C   UNL     1       4.746   3.749  17.225  0.00  0.00    +0.000 A 
ATOM     30  C   UNL     1       3.980   3.030  18.141  0.00  0.00    +0.000 A 
ATOM     31  C   UNL     1       3.178   3.678  19.072  0.00  0.00    +0.000 A 
BRANCH  29  32
ATOM     32  O   UNL     1       5.500   3.036  16.334  0.00  0.00    +0.000 OA
ATOM     33  H   UNL     1       5.423   2.092  16.556  0.00  0.00    +0.000 HD
ENDBRANCH  29  32
BRANCH  30  34
ATOM     34  O   UNL     1       3.993   1.666  18.118  0.00  0.00    +0.000 OA
ATOM     35  H   UNL     1       3.271   1.419  17.508  0.00  0.00    +0.000 HD
ENDBRANCH  30  34
ENDBRANCH  23  26
ENDBRANCH   1  24
TORSDOF 7
ENDMDL
MODEL 3
REMARK VINA RESULT:      -8.6      0.749      1.305
REMARK  Name = 
REMARK  7 active torsions:
REMARK  status: ('A' for Active; 'I' for Inactive)
REMARK    1  A    between atoms: C_2  and  C_24
REMARK    2  A    between atoms: N_3  and  N_4
REMARK    3  A    between atoms: C_5  and  C_7
REMARK    4  A    between atoms: C_10  and  C_11
REMARK    5  A    between atoms: C_17  and  C_18
REMARK    6  A    between atoms: C_27  and  O_28
REMARK    7  A    between atoms: C_29  and  O_30
REMARK                            x       y       z     vdW  Elec       q    Type
REMARK                         _______ _______ _______ _____ _____    ______ ____
ROOT
ATOM      1  N   UNL     1       1.724   7.935  20.873  0.00  0.00    +0.000 N 
ATOM      2  C   UNL     1       1.156   9.095  20.387  0.00  0.00    +0.000 C 
ATOM      3  O   UNL     1       1.401   9.413  19.226  0.00  0.00    +0.000 OA
ATOM      4  H   UNL     1       1.595   7.591  21.818  0.00  0.00    +0.000 HD
ENDROOT
BRANCH   2   5
ATOM      5  C   UNL     1       0.313   9.814  21.334  0.00  0.00    +0.000 A 
ATOM      6  O   UNL     1      -0.215   9.076  22.362  0.00  0.00    +0.000 OA
ATOM      7  C   UNL     1      -0.946   9.904  23.141  0.00  0.00    +0.000 A 
ATOM      8  C   UNL     1      -0.947  11.190  22.638  0.00  0.00    +0.000 A 
ATOM      9  C   UNL     1      -0.119  11.141  21.448  0.00  0.00    +0.000 A 
BRANCH   8  10
ATOM     10  C   UNL     1      -1.704  12.286  23.248  0.00  0.00    +0.000 A 
ATOM     11  C   UNL     1      -1.140  13.565  23.380  0.00  0.00    +0.000 A 
ATOM     12  C   UNL     1      -1.907  14.656  23.797  0.00  0.00    +0.000 A 
ATOM     13  C   UNL     1      -3.235  14.471  24.164  0.00  0.00    +0.000 A 
ATOM     14  C   UNL     1      -3.796  13.198  24.102  0.00  0.00    +0.000 A 
ATOM     15  C   UNL     1      -3.041  12.114  23.638  0.00  0.00    +0.000 A 
ENDBRANCH   8  10
BRANCH   9  16
ATOM     16  C   UNL     1       0.162  12.201  20.477  0.00  0.00    +0.000 A 
ATOM     17  C   UNL     1      -0.711  12.476  19.420  0.00  0.00    +0.000 A 
ATOM     18  C   UNL     1      -0.458  13.493  18.505  0.00  0.00    +0.000 A 
ATOM     19  C   UNL     1       0.751  14.177  18.552  0.00  0.00    +0.000 A 
ATOM     20  C   UNL     1       1.669  13.880  19.548  0.00  0.00    +0.000 A 
ATOM     21  C   UNL     1       1.352  12.946  20.535  0.00  0.00    +0.000 A 
ENDBRANCH   9  16
ENDBRANCH   2   5
BRANCH   1  24
ATOM     22  O   UNL     1       1.552   5.211  20.665  0.00  0.00    +0.000 OA
ATOM     23  C   UNL     1       2.361   5.813  19.968  0.00  0.00    +0.000 C 
ATOM     24  N   UNL     1       2.503   7.183  19.990  0.00  0.00    +0.000 N 
ATOM     25  H   UNL     1       3.061   7.712  19.317  0.00  0.00    +0.000 HD
BRANCH  23  26
ATOM     26  C   UNL     1       3.242   5.086  19.022  0.00  0.00    +0.000 A 
ATOM     27  C   UNL     1       4.059   5.838  18.165  0.00  0.00    +0.000 A 
ATOM     28  C   UNL     1       4.868   5.202  17.215  0.00  0.00    +0.000 A 
ATOM     29  C   UNL     1       4.837   3.816  17.127  0.00  0.00    +0.000 A 
ATOM     30  C   UNL     1       4.023   3.071  17.979  0.00  0.00    +0.000 A 
ATOM     31  C   UNL     1       3.224   3.689  18.933  0.00  0.00    +0.000 A 
BRANCH  29  32
ATOM     32  O   UNL     1       5.585   3.132  16.209  0.00  0.00    +0.000 OA
ATOM     33  H   UNL     1       6.200   2.551  16.689  0.00  0.00    +0.000 HD
ENDBRANCH  29  32
BRANCH  30  34
ATOM     34  O   UNL     1       3.985   1.711  17.869  0.00  0.00    +0.000 OA
ATOM     35  H   UNL     1       3.865   1.540  16.915  0.00  0.00    +0.000 HD
ENDBRANCH  30  34
ENDBRANCH  23  26
ENDBRANCH   1  24
TORSDOF 7
ENDMDL
MODEL 4
REMARK VINA RESULT:      -8.5      2.410      3.547
REMARK  Name = 
REMARK  7 active torsions:
REMARK  status: ('A' for Active; 'I' for Inactive)
REMARK    1  A    between atoms: C_2  and  C_24
REMARK    2  A    between atoms: N_3  and  N_4
REMARK    3  A    between atoms: C_5  and  C_7
REMARK    4  A    between atoms: C_10  and  C_11
REMARK    5  A    between atoms: C_17  and  C_18
REMARK    6  A    between atoms: C_27  and  O_28
REMARK    7  A    between atoms: C_29  and  O_30
REMARK                            x       y       z     vdW  Elec       q    Type
REMARK                         _______ _______ _______ _____ _____    ______ ____
ROOT
ATOM      1  N   UNL     1       1.595   8.856  19.275  0.00  0.00    +0.000 N 
ATOM      2  C   UNL     1       0.815   9.343  20.305  0.00  0.00    +0.000 C 
ATOM      3  O   UNL     1       0.357   8.535  21.109  0.00  0.00    +0.000 OA
ATOM      4  H   UNL     1       2.010   9.436  18.554  0.00  0.00    +0.000 HD
ENDROOT
BRANCH   2   5
ATOM      5  C   UNL     1       0.631  10.788  20.311  0.00  0.00    +0.000 A 
ATOM      6  O   UNL     1       1.485  11.508  21.106  0.00  0.00    +0.000 OA
ATOM      7  C   UNL     1       1.180  12.818  20.972  0.00  0.00    +0.000 A 
ATOM      8  C   UNL     1       0.109  12.995  20.119  0.00  0.00    +0.000 A 
ATOM      9  C   UNL     1      -0.259  11.664  19.677  0.00  0.00    +0.000 A 
BRANCH   8  10
ATOM     10  C   UNL     1      -0.474  14.309  19.830  0.00  0.00    +0.000 A 
ATOM     11  C   UNL     1      -1.466  14.855  20.660  0.00  0.00    +0.000 A 
ATOM     12  C   UNL     1      -1.902  16.173  20.498  0.00  0.00    +0.000 A 
ATOM     13  C   UNL     1      -1.407  16.944  19.452  0.00  0.00    +0.000 A 
ATOM     14  C   UNL     1      -0.469  16.399  18.578  0.00  0.00    +0.000 A 
ATOM     15  C   UNL     1       0.004  15.095  18.770  0.00  0.00    +0.000 A 
ENDBRANCH   8  10
BRANCH   9  16
ATOM     16  C   UNL     1      -1.377  11.252  18.825  0.00  0.00    +0.000 A 
ATOM     17  C   UNL     1      -1.196  10.372  17.754  0.00  0.00    +0.000 A 
ATOM     18  C   UNL     1      -2.257   9.964  16.952  0.00  0.00    +0.000 A 
ATOM     19  C   UNL     1      -3.513  10.536  17.126  0.00  0.00    +0.000 A 
ATOM     20  C   UNL     1      -3.709  11.465  18.137  0.00  0.00    +0.000 A 
ATOM     21  C   UNL     1      -2.669  11.773  19.015  0.00  0.00    +0.000 A 
ENDBRANCH   9  16
ENDBRANCH   2   5
BRANCH   1  24
ATOM     22  O   UNL     1       3.330   7.674  17.519  0.00  0.00    +0.000 OA
ATOM     23  C   UNL     1       2.719   6.973  18.317  0.00  0.00    +0.000 C 
ATOM     24  N   UNL     1       1.842   7.481  19.250  0.00  0.00    +0.000 N 
ATOM     25  H   UNL     1       1.440   6.937  20.016  0.00  0.00    +0.000 HD
BRANCH  23  26
ATOM     26  C   UNL     1       2.907   5.502  18.341  0.00  0.00    +0.000 A 
ATOM     27  C   UNL     1       1.864   4.692  17.871  0.00  0.00    +0.000 A 
ATOM     28  C   UNL     1       1.969   3.297  17.923  0.00  0.00    +0.000 A 
ATOM     29  C   UNL     1       3.118   2.729  18.460  0.00  0.00    +0.000 A 
ATOM     30  C   UNL     1       4.153   3.537  18.929  0.00  0.00    +0.000 A 
ATOM     31  C   UNL     1       4.066   4.922  18.872  0.00  0.00    +0.000 A 
BRANCH  29  32
ATOM     32  O   UNL     1       3.277   1.375  18.562  0.00  0.00    +0.000 OA
ATOM     33  H   UNL     1       3.873   1.193  19.309  0.00  0.00    +0.000 HD
ENDBRANCH  29  32
BRANCH  30  34
ATOM     34  O   UNL     1       5.268   2.969  19.474  0.00  0.00    +0.000 OA
ATOM     35  H   UNL     1       6.014   3.346  18.967  0.00  0.00    +0.000 HD
ENDBRANCH  30  34
ENDBRANCH  23  26
ENDBRANCH   1  24
TORSDOF 7
ENDMDL
MODEL 5
REMARK VINA RESULT:      -8.3      2.389      3.568
REMARK  Name = 
REMARK  7 active torsions:
REMARK  status: ('A' for Active; 'I' for Inactive)
REMARK    1  A    between atoms: C_2  and  C_24
REMARK    2  A    between atoms: N_3  and  N_4
REMARK    3  A    between atoms: C_5  and  C_7
REMARK    4  A    between atoms: C_10  and  C_11
REMARK    5  A    between atoms: C_17  and  C_18
REMARK    6  A    between atoms: C_27  and  O_28
REMARK    7  A    between atoms: C_29  and  O_30
REMARK                            x       y       z     vdW  Elec       q    Type
REMARK                         _______ _______ _______ _____ _____    ______ ____
ROOT
ATOM      1  N   UNL     1       1.712   8.881  19.382  0.00  0.00    +0.000 N 
ATOM      2  C   UNL     1       0.817   9.348  20.324  0.00  0.00    +0.000 C 
ATOM      3  O   UNL     1       0.234   8.521  21.021  0.00  0.00    +0.000 OA
ATOM      4  H   UNL     1       2.234   9.478  18.750  0.00  0.00    +0.000 HD
ENDROOT
BRANCH   2   5
ATOM      5  C   UNL     1       0.675  10.797  20.376  0.00  0.00    +0.000 A 
ATOM      6  O   UNL     1       1.543  11.465  21.200  0.00  0.00    +0.000 OA
ATOM      7  C   UNL     1       1.277  12.787  21.108  0.00  0.00    +0.000 A 
ATOM      8  C   UNL     1       0.219  13.024  20.254  0.00  0.00    +0.000 A 
ATOM      9  C   UNL     1      -0.184  11.719  19.766  0.00  0.00    +0.000 A 
BRANCH   8  10
ATOM     10  C   UNL     1      -0.324  14.362  20.005  0.00  0.00    +0.000 A 
ATOM     11  C   UNL     1       0.161  15.151  18.950  0.00  0.00    +0.000 A 
ATOM     12  C   UNL     1      -0.464  16.350  18.595  0.00  0.00    +0.000 A 
ATOM     13  C   UNL     1      -1.540  16.819  19.340  0.00  0.00    +0.000 A 
ATOM     14  C   UNL     1      -1.995  16.083  20.431  0.00  0.00    +0.000 A 
ATOM     15  C   UNL     1      -1.400  14.858  20.756  0.00  0.00    +0.000 A 
ENDBRANCH   8  10
BRANCH   9  16
ATOM     16  C   UNL     1      -1.307  11.368  18.893  0.00  0.00    +0.000 A 
ATOM     17  C   UNL     1      -2.595  11.864  19.123  0.00  0.00    +0.000 A 
ATOM     18  C   UNL     1      -3.662  11.549  18.287  0.00  0.00    +0.000 A 
ATOM     19  C   UNL     1      -3.490  10.616  17.271  0.00  0.00    +0.000 A 
ATOM     20  C   UNL     1      -2.239  10.054  17.061  0.00  0.00    +0.000 A 
ATOM     21  C   UNL     1      -1.148  10.470  17.824  0.00  0.00    +0.000 A 
ENDBRANCH   9  16
ENDBRANCH   2   5
BRANCH   1  24
ATOM     22  O   UNL     1       3.334   7.687  17.529  0.00  0.00    +0.000 OA
ATOM     23  C   UNL     1       2.741   6.988  18.342  0.00  0.00    +0.000 C 
ATOM     24  N   UNL     1       1.921   7.501  19.322  0.00  0.00    +0.000 N 
ATOM     25  H   UNL     1       1.539   6.953  20.095  0.00  0.00    +0.000 HD
BRANCH  23  26
ATOM     26  C   UNL     1       2.891   5.512  18.332  0.00  0.00    +0.000 A 
ATOM     27  C   UNL     1       1.817   4.739  17.869  0.00  0.00    +0.000 A 
ATOM     28  C   UNL     1       1.886   3.340  17.891  0.00  0.00    +0.000 A 
ATOM     29  C   UNL     1       3.031   2.733  18.391  0.00  0.00    +0.000 A 
ATOM     30  C   UNL     1       4.097   3.503  18.852  0.00  0.00    +0.000 A 
ATOM     31  C   UNL     1       4.045   4.891  18.826  0.00  0.00    +0.000 A 
BRANCH  29  32
ATOM     32  O   UNL     1       3.157   1.373  18.461  0.00  0.00    +0.000 OA
ATOM     33  H   UNL     1       3.797   1.090  17.784  0.00  0.00    +0.000 HD
ENDBRANCH  29  32
BRANCH  30  34
ATOM     34  O   UNL     1       5.208   2.895  19.361  0.00  0.00    +0.000 OA
ATOM     35  H   UNL     1       5.903   3.044  18.691  0.00  0.00    +0.000 HD
ENDBRANCH  30  34
ENDBRANCH  23  26
ENDBRANCH   1  24
TORSDOF 7
ENDMDL
MODEL 6
REMARK VINA RESULT:      -8.3      0.732      1.258
REMARK  Name = 
REMARK  7 active torsions:
REMARK  status: ('A' for Active; 'I' for Inactive)
REMARK    1  A    between atoms: C_2  and  C_24
REMARK    2  A    between atoms: N_3  and  N_4
REMARK    3  A    between atoms: C_5  and  C_7
REMARK    4  A    between atoms: C_10  and  C_11
REMARK    5  A    between atoms: C_17  and  C_18
REMARK    6  A    between atoms: C_27  and  O_28
REMARK    7  A    between atoms: C_29  and  O_30
REMARK                            x       y       z     vdW  Elec       q    Type
REMARK                         _______ _______ _______ _____ _____    ______ ____
ROOT
ATOM      1  N   UNL     1       1.638   8.048  20.828  0.00  0.00    +0.000 N 
ATOM      2  C   UNL     1       1.055   9.208  20.360  0.00  0.00    +0.000 C 
ATOM      3  O   UNL     1       1.275   9.532  19.195  0.00  0.00    +0.000 OA
ATOM      4  H   UNL     1       1.529   7.700  21.774  0.00  0.00    +0.000 HD
ENDROOT
BRANCH   2   5
ATOM      5  C   UNL     1       0.227   9.918  21.326  0.00  0.00    +0.000 A 
ATOM      6  O   UNL     1      -0.304   9.166  22.342  0.00  0.00    +0.000 OA
ATOM      7  C   UNL     1      -1.020   9.988  23.142  0.00  0.00    +0.000 A 
ATOM      8  C   UNL     1      -1.007  11.283  22.666  0.00  0.00    +0.000 A 
ATOM      9  C   UNL     1      -0.186  11.248  21.470  0.00  0.00    +0.000 A 
BRANCH   8  10
ATOM     10  C   UNL     1      -1.745  12.377  23.303  0.00  0.00    +0.000 A 
ATOM     11  C   UNL     1      -1.155  13.639  23.478  0.00  0.00    +0.000 A 
ATOM     12  C   UNL     1      -1.902  14.733  23.921  0.00  0.00    +0.000 A 
ATOM     13  C   UNL     1      -3.237  14.566  24.273  0.00  0.00    +0.000 A 
ATOM     14  C   UNL     1      -3.824  13.307  24.168  0.00  0.00    +0.000 A 
ATOM     15  C   UNL     1      -3.089  12.222  23.676  0.00  0.00    +0.000 A 
ENDBRANCH   8  10
BRANCH   9  16
ATOM     16  C   UNL     1       0.104  12.324  20.520  0.00  0.00    +0.000 A 
ATOM     17  C   UNL     1      -0.751  12.604  19.449  0.00  0.00    +0.000 A 
ATOM     18  C   UNL     1      -0.490  13.637  18.553  0.00  0.00    +0.000 A 
ATOM     19  C   UNL     1       0.711  14.333  18.633  0.00  0.00    +0.000 A 
ATOM     20  C   UNL     1       1.612  14.032  19.645  0.00  0.00    +0.000 A 
ATOM     21  C   UNL     1       1.285  13.081  20.612  0.00  0.00    +0.000 A 
ENDBRANCH   9  16
ENDBRANCH   2   5
BRANCH   1  24
ATOM     22  O   UNL     1       1.443   5.330  20.580  0.00  0.00    +0.000 OA
ATOM     23  C   UNL     1       2.250   5.936  19.885  0.00  0.00    +0.000 C 
ATOM     24  N   UNL     1       2.404   7.304  19.927  0.00  0.00    +0.000 N 
ATOM     25  H   UNL     1       2.960   7.840  19.257  0.00  0.00    +0.000 HD
BRANCH  23  26
ATOM     26  C   UNL     1       3.117   5.217  18.919  0.00  0.00    +0.000 A 
ATOM     27  C   UNL     1       3.407   3.867  19.163  0.00  0.00    +0.000 A 
ATOM     28  C   UNL     1       4.265   3.160  18.313  0.00  0.00    +0.000 A 
ATOM     29  C   UNL     1       4.834   3.821  17.231  0.00  0.00    +0.000 A 
ATOM     30  C   UNL     1       4.546   5.163  16.991  0.00  0.00    +0.000 A 
ATOM     31  C   UNL     1       3.688   5.874  17.821  0.00  0.00    +0.000 A 
BRANCH  29  32
ATOM     32  O   UNL     1       5.697   3.196  16.373  0.00  0.00    +0.000 OA
ATOM     33  H   UNL     1       5.181   2.836  15.631  0.00  0.00    +0.000 HD
ENDBRANCH  29  32
BRANCH  30  34
ATOM     34  O   UNL     1       5.128   5.808  15.938  0.00  0.00    +0.000 OA
ATOM     35  H   UNL     1       5.997   5.375  15.829  0.00  0.00    +0.000 HD
ENDBRANCH  30  34
ENDBRANCH  23  26
ENDBRANCH   1  24
TORSDOF 7
ENDMDL
MODEL 7
REMARK VINA RESULT:      -8.3      0.722      1.218
REMARK  Name = 
REMARK  7 active torsions:
REMARK  status: ('A' for Active; 'I' for Inactive)
REMARK    1  A    between atoms: C_2  and  C_24
REMARK    2  A    between atoms: N_3  and  N_4
REMARK    3  A    between atoms: C_5  and  C_7
REMARK    4  A    between atoms: C_10  and  C_11
REMARK    5  A    between atoms: C_17  and  C_18
REMARK    6  A    between atoms: C_27  and  O_28
REMARK    7  A    between atoms: C_29  and  O_30
REMARK                            x       y       z     vdW  Elec       q    Type
REMARK                         _______ _______ _______ _____ _____    ______ ____
ROOT
ATOM      1  N   UNL     1       1.566   8.076  20.802  0.00  0.00    +0.000 N 
ATOM      2  C   UNL     1       1.057   9.279  20.354  0.00  0.00    +0.000 C 
ATOM      3  O   UNL     1       1.344   9.634  19.213  0.00  0.00    +0.000 OA
ATOM      4  H   UNL     1       1.399   7.699  21.728  0.00  0.00    +0.000 HD
ENDROOT
BRANCH   2   5
ATOM      5  C   UNL     1       0.221   9.991  21.310  0.00  0.00    +0.000 A 
ATOM      6  O   UNL     1      -0.285   9.252  22.347  0.00  0.00    +0.000 OA
ATOM      7  C   UNL     1      -1.014  10.075  23.135  0.00  0.00    +0.000 A 
ATOM      8  C   UNL     1      -1.034  11.359  22.629  0.00  0.00    +0.000 A 
ATOM      9  C   UNL     1      -0.222  11.315  21.427  0.00  0.00    +0.000 A 
BRANCH   8  10
ATOM     10  C   UNL     1      -1.792  12.450  23.247  0.00  0.00    +0.000 A 
ATOM     11  C   UNL     1      -3.132  12.272  23.626  0.00  0.00    +0.000 A 
ATOM     12  C   UNL     1      -3.809  13.240  24.371  0.00  0.00    +0.000 A 
ATOM     13  C   UNL     1      -3.180  14.440  24.685  0.00  0.00    +0.000 A 
ATOM     14  C   UNL     1      -1.872  14.663  24.263  0.00  0.00    +0.000 A 
ATOM     15  C   UNL     1      -1.177  13.673  23.559  0.00  0.00    +0.000 A 
ENDBRANCH   8  10
BRANCH   9  16
ATOM     16  C   UNL     1       0.036  12.375  20.451  0.00  0.00    +0.000 A 
ATOM     17  C   UNL     1       1.102  13.267  20.603  0.00  0.00    +0.000 A 
ATOM     18  C   UNL     1       1.363  14.266  19.669  0.00  0.00    +0.000 A 
ATOM     19  C   UNL     1       0.475  14.478  18.621  0.00  0.00    +0.000 A 
ATOM     20  C   UNL     1      -0.631  13.652  18.481  0.00  0.00    +0.000 A 
ATOM     21  C   UNL     1      -0.815  12.576  19.350  0.00  0.00    +0.000 A 
ENDBRANCH   9  16
ENDBRANCH   2   5
BRANCH   1  24
ATOM     22  O   UNL     1       1.447   5.347  20.632  0.00  0.00    +0.000 OA
ATOM     23  C   UNL     1       2.222   5.957  19.905  0.00  0.00    +0.000 C 
ATOM     24  N   UNL     1       2.336   7.330  19.906  0.00  0.00    +0.000 N 
ATOM     25  H   UNL     1       2.862   7.862  19.211  0.00  0.00    +0.000 HD
BRANCH  23  26
ATOM     26  C   UNL     1       3.091   5.238  18.942  0.00  0.00    +0.000 A 
ATOM     27  C   UNL     1       3.277   3.859  19.117  0.00  0.00    +0.000 A 
ATOM     28  C   UNL     1       4.132   3.144  18.269  0.00  0.00    +0.000 A 
ATOM     29  C   UNL     1       4.802   3.825  17.261  0.00  0.00    +0.000 A 
ATOM     30  C   UNL     1       4.617   5.196  17.089  0.00  0.00    +0.000 A 
ATOM     31  C   UNL     1       3.763   5.915  17.917  0.00  0.00    +0.000 A 
BRANCH  29  32
ATOM     32  O   UNL     1       5.667   3.194  16.411  0.00  0.00    +0.000 OA
ATOM     33  H   UNL     1       6.532   3.635  16.472  0.00  0.00    +0.000 HD
ENDBRANCH  29  32
BRANCH  30  34
ATOM     34  O   UNL     1       5.296   5.859  16.109  0.00  0.00    +0.000 OA
ATOM     35  H   UNL     1       6.199   5.973  16.464  0.00  0.00    +0.000 HD
ENDBRANCH  30  34
ENDBRANCH  23  26
ENDBRANCH   1  24
TORSDOF 7
ENDMDL
MODEL 8
REMARK VINA RESULT:      -8.2      2.266      2.925
REMARK  Name = 
REMARK  7 active torsions:
REMARK  status: ('A' for Active; 'I' for Inactive)
REMARK    1  A    between atoms: C_2  and  C_24
REMARK    2  A    between atoms: N_3  and  N_4
REMARK    3  A    between atoms: C_5  and  C_7
REMARK    4  A    between atoms: C_10  and  C_11
REMARK    5  A    between atoms: C_17  and  C_18
REMARK    6  A    between atoms: C_27  and  O_28
REMARK    7  A    between atoms: C_29  and  O_30
REMARK                            x       y       z     vdW  Elec       q    Type
REMARK                         _______ _______ _______ _____ _____    ______ ____
ROOT
ATOM      1  N   UNL     1       1.830   8.468  19.273  0.00  0.00    +0.000 N 
ATOM      2  C   UNL     1       1.314   9.628  18.729  0.00  0.00    +0.000 C 
ATOM      3  O   UNL     1       1.599   9.892  17.564  0.00  0.00    +0.000 OA
ATOM      4  H   UNL     1       1.665   8.166  20.226  0.00  0.00    +0.000 HD
ENDROOT
BRANCH   2   5
ATOM      5  C   UNL     1       0.474  10.411  19.626  0.00  0.00    +0.000 A 
ATOM      6  O   UNL     1       1.006  10.710  20.854  0.00  0.00    +0.000 OA
ATOM      7  C   UNL     1       0.101  11.448  21.535  0.00  0.00    +0.000 A 
ATOM      8  C   UNL     1      -1.052  11.629  20.797  0.00  0.00    +0.000 A 
ATOM      9  C   UNL     1      -0.815  10.950  19.537  0.00  0.00    +0.000 A 
BRANCH   8  10
ATOM     10  C   UNL     1      -2.224  12.344  21.308  0.00  0.00    +0.000 A 
ATOM     11  C   UNL     1      -3.065  13.060  20.442  0.00  0.00    +0.000 A 
ATOM     12  C   UNL     1      -4.276  13.597  20.887  0.00  0.00    +0.000 A 
ATOM     13  C   UNL     1      -4.630  13.493  22.228  0.00  0.00    +0.000 A 
ATOM     14  C   UNL     1      -3.778  12.842  23.117  0.00  0.00    +0.000 A 
ATOM     15  C   UNL     1      -2.589  12.262  22.661  0.00  0.00    +0.000 A 
ENDBRANCH   8  10
BRANCH   9  16
ATOM     16  C   UNL     1      -1.731  10.753  18.411  0.00  0.00    +0.000 A 
ATOM     17  C   UNL     1      -2.595   9.656  18.354  0.00  0.00    +0.000 A 
ATOM     18  C   UNL     1      -3.480   9.473  17.295  0.00  0.00    +0.000 A 
ATOM     19  C   UNL     1      -3.425  10.323  16.196  0.00  0.00    +0.000 A 
ATOM     20  C   UNL     1      -2.529  11.382  16.192  0.00  0.00    +0.000 A 
ATOM     21  C   UNL     1      -1.735  11.630  17.312  0.00  0.00    +0.000 A 
ENDBRANCH   9  16
ENDBRANCH   2   5
BRANCH   1  24
ATOM     22  O   UNL     1       2.266   5.809  19.750  0.00  0.00    +0.000 OA
ATOM     23  C   UNL     1       2.783   6.332  18.770  0.00  0.00    +0.000 C 
ATOM     24  N   UNL     1       2.604   7.657  18.439  0.00  0.00    +0.000 N 
ATOM     25  H   UNL     1       2.901   8.072  17.554  0.00  0.00    +0.000 HD
BRANCH  23  26
ATOM     26  C   UNL     1       3.638   5.545  17.848  0.00  0.00    +0.000 A 
ATOM     27  C   UNL     1       3.552   4.147  17.893  0.00  0.00    +0.000 A 
ATOM     28  C   UNL     1       4.377   3.358  17.083  0.00  0.00    +0.000 A 
ATOM     29  C   UNL     1       5.291   3.983  16.243  0.00  0.00    +0.000 A 
ATOM     30  C   UNL     1       5.375   5.374  16.200  0.00  0.00    +0.000 A 
ATOM     31  C   UNL     1       4.555   6.168  16.991  0.00  0.00    +0.000 A 
BRANCH  29  32
ATOM     32  O   UNL     1       6.141   3.274  15.441  0.00  0.00    +0.000 OA
ATOM     33  H   UNL     1       6.169   3.705  14.569  0.00  0.00    +0.000 HD
ENDBRANCH  29  32
BRANCH  30  34
ATOM     34  O   UNL     1       6.291   5.977  15.388  0.00  0.00    +0.000 OA
ATOM     35  H   UNL     1       7.157   5.656  15.705  0.00  0.00    +0.000 HD
ENDBRANCH  30  34
ENDBRANCH  23  26
ENDBRANCH   1  24
TORSDOF 7
ENDMDL
MODEL 9
REMARK VINA RESULT:      -8.2      2.521     10.383
REMARK  Name = 
REMARK  7 active torsions:
REMARK  status: ('A' for Active; 'I' for Inactive)
REMARK    1  A    between atoms: C_2  and  C_24
REMARK    2  A    between atoms: N_3  and  N_4
REMARK    3  A    between atoms: C_5  and  C_7
REMARK    4  A    between atoms: C_10  and  C_11
REMARK    5  A    between atoms: C_17  and  C_18
REMARK    6  A    between atoms: C_27  and  O_28
REMARK    7  A    between atoms: C_29  and  O_30
REMARK                            x       y       z     vdW  Elec       q    Type
REMARK                         _______ _______ _______ _____ _____    ______ ____
ROOT
ATOM      1  N   UNL     1       0.772   9.477  19.485  0.00  0.00    +0.000 N 
ATOM      2  C   UNL     1       1.370   8.295  19.874  0.00  0.00    +0.000 C 
ATOM      3  O   UNL     1       1.035   7.810  20.952  0.00  0.00    +0.000 OA
ATOM      4  H   UNL     1       0.986   9.964  18.622  0.00  0.00    +0.000 HD
ENDROOT
BRANCH   2   5
ATOM      5  C   UNL     1       2.345   7.757  18.935  0.00  0.00    +0.000 A 
ATOM      6  O   UNL     1       2.960   8.662  18.109  0.00  0.00    +0.000 OA
ATOM      7  C   UNL     1       3.835   7.991  17.327  0.00  0.00    +0.000 A 
ATOM      8  C   UNL     1       3.801   6.636  17.591  0.00  0.00    +0.000 A 
ATOM      9  C   UNL     1       2.824   6.472  18.650  0.00  0.00    +0.000 A 
BRANCH   8  10
ATOM     10  C   UNL     1       4.607   5.658  16.855  0.00  0.00    +0.000 A 
ATOM     11  C   UNL     1       4.733   4.337  17.314  0.00  0.00    +0.000 A 
ATOM     12  C   UNL     1       5.349   3.355  16.534  0.00  0.00    +0.000 A 
ATOM     13  C   UNL     1       5.920   3.695  15.313  0.00  0.00    +0.000 A 
ATOM     14  C   UNL     1       5.862   5.015  14.869  0.00  0.00    +0.000 A 
ATOM     15  C   UNL     1       5.201   5.988  15.627  0.00  0.00    +0.000 A 
ENDBRANCH   8  10
BRANCH   9  16
ATOM     16  C   UNL     1       2.329   5.238  19.264  0.00  0.00    +0.000 A 
ATOM     17  C   UNL     1       1.490   4.361  18.570  0.00  0.00    +0.000 A 
ATOM     18  C   UNL     1       1.031   3.177  19.141  0.00  0.00    +0.000 A 
ATOM     19  C   UNL     1       1.298   2.909  20.479  0.00  0.00    +0.000 A 
ATOM     20  C   UNL     1       2.071   3.795  21.215  0.00  0.00    +0.000 A 
ATOM     21  C   UNL     1       2.630   4.915  20.598  0.00  0.00    +0.000 A 
ENDBRANCH   9  16
ENDBRANCH   2   5
BRANCH   1  24
ATOM     22  O   UNL     1       0.022  12.108  19.437  0.00  0.00    +0.000 OA
ATOM     23  C   UNL     1      -0.505  11.353  20.244  0.00  0.00    +0.000 C 
ATOM     24  N   UNL     1      -0.206  10.011  20.328  0.00  0.00    +0.000 N 
ATOM     25  H   UNL     1      -0.735   9.339  20.887  0.00  0.00    +0.000 HD
BRANCH  23  26
ATOM     26  C   UNL     1      -1.536  11.845  21.191  0.00  0.00    +0.000 A 
ATOM     27  C   UNL     1      -1.411  11.504  22.545  0.00  0.00    +0.000 A 
ATOM     28  C   UNL     1      -2.387  11.896  23.469  0.00  0.00    +0.000 A 
ATOM     29  C   UNL     1      -3.485  12.619  23.020  0.00  0.00    +0.000 A 
ATOM     30  C   UNL     1      -3.608  12.956  21.674  0.00  0.00    +0.000 A 
ATOM     31  C   UNL     1      -2.641  12.582  20.748  0.00  0.00    +0.000 A 
BRANCH  29  32
ATOM     32  O   UNL     1      -4.485  13.016  23.865  0.00  0.00    +0.000 OA
ATOM     33  H   UNL     1      -4.080  13.464  24.628  0.00  0.00    +0.000 HD
ENDBRANCH  29  32
BRANCH  30  34
ATOM     34  O   UNL     1      -4.702  13.647  21.240  0.00  0.00    +0.000 OA
ATOM     35  H   UNL     1      -5.458  13.229  21.696  0.00  0.00    +0.000 HD
ENDBRANCH  30  34
ENDBRANCH  23  26
ENDBRANCH   1  24
TORSDOF 7
ENDMDL
