MODEL 1
REMARK VINA RESULT:      -7.1      0.000      0.000
REMARK  Name = 
REMARK  3 active torsions:
REMARK  status: ('A' for Active; 'I' for Inactive)
REMARK    1  A    between atoms: C_1  and  C_2
REMARK    2  A    between atoms: C_5  and  N_6
REMARK    3  A    between atoms: C_13  and  C_15
REMARK                            x       y       z     vdW  Elec       q    Type
REMARK                         _______ _______ _______ _____ _____    ______ ____
ROOT
ATOM      1  N   UNL     1       2.853   7.344  18.254  0.00  0.00    +0.000 N 
ATOM      2  C   UNL     1       2.306   7.132  19.499  0.00  0.00    +0.000 C 
ATOM      3  O   UNL     1       2.521   6.132  20.184  0.00  0.00    +0.000 OA
ATOM      4  N   UNL     1       1.520   8.161  19.991  0.00  0.00    +0.000 N 
ATOM      5  C   UNL     1       1.037   8.051  21.376  0.00  0.00    +0.000 C 
ATOM      6  C   UNL     1       1.234   9.374  22.124  0.00  0.00    +0.000 C 
ATOM      7  N   UNL     1       0.650  10.493  21.375  0.00  0.00    +0.000 N 
ATOM      8  C   UNL     1      -0.242  11.342  22.014  0.00  0.00    +0.000 C 
ATOM      9  O   UNL     1      -0.505  11.200  23.212  0.00  0.00    +0.000 OA
ATOM     10  C   UNL     1       1.105  10.598  19.982  0.00  0.00    +0.000 C 
ATOM     11  C   UNL     1       0.914   9.268  19.234  0.00  0.00    +0.000 C 
ATOM     12  H   UNL     1       2.905   8.301  17.948  0.00  0.00    +0.000 HD
ENDROOT
BRANCH   1  17
ATOM     13  C   UNL     1       6.281   3.772  15.361  0.00  0.00    +0.000 C 
ATOM     14  C   UNL     1       5.368   4.696  16.109  0.00  0.00    +0.000 A 
ATOM     15  C   UNL     1       4.292   4.192  16.840  0.00  0.00    +0.000 A 
ATOM     16  C   UNL     1       3.443   5.053  17.539  0.00  0.00    +0.000 A 
ATOM     17  C   UNL     1       3.660   6.432  17.537  0.00  0.00    +0.000 A 
ATOM     18  C   UNL     1       4.724   6.941  16.783  0.00  0.00    +0.000 A 
ATOM     19  C   UNL     1       5.575   6.080  16.080  0.00  0.00    +0.000 A 
ENDBRANCH   1  17
BRANCH   8  20
ATOM     20  C   UNL     1      -0.865  12.498  21.199  0.00  0.00    +0.000 C 
ATOM     21  C   UNL     1      -1.323  13.644  22.093  0.00  0.00    +0.000 C 
ATOM     22  C   UNL     1      -2.499  14.226  21.357  0.00  0.00    +0.000 C 
ATOM     23  C   UNL     1      -3.067  13.038  20.618  0.00  0.00    +0.000 C 
ATOM     24  O   UNL     1      -2.007  12.095  20.430  0.00  0.00    +0.000 OA
ENDBRANCH   8  20
TORSDOF 2
ENDMDL
MODEL 2
REMARK VINA RESULT:      -7.1      0.149      1.013
REMARK  Name = 
REMARK  3 active torsions:
REMARK  status: ('A' for Active; 'I' for Inactive)
REMARK    1  A    between atoms: C_1  and  C_2
REMARK    2  A    between atoms: C_5  and  N_6
REMARK    3  A    between atoms: C_13  and  C_15
REMARK                            x       y       z     vdW  Elec       q    Type
REMARK                         _______ _______ _______ _____ _____    ______ ____
ROOT
ATOM      1  N   UNL     1       2.938   7.423  18.222  0.00  0.00    +0.000 N 
ATOM      2  C   UNL     1       2.382   7.193  19.460  0.00  0.00    +0.000 C 
ATOM      3  O   UNL     1       2.611   6.194  20.143  0.00  0.00    +0.000 OA
ATOM      4  N   UNL     1       1.567   8.201  19.947  0.00  0.00    +0.000 N 
ATOM      5  C   UNL     1       1.072   8.074  21.326  0.00  0.00    +0.000 C 
ATOM      6  C   UNL     1       1.231   9.398  22.083  0.00  0.00    +0.000 C 
ATOM      7  N   UNL     1       0.631  10.507  21.332  0.00  0.00    +0.000 N 
ATOM      8  C   UNL     1      -0.287  11.333  21.964  0.00  0.00    +0.000 C 
ATOM      9  O   UNL     1      -0.559  11.180  23.158  0.00  0.00    +0.000 OA
ATOM     10  C   UNL     1       1.100  10.630  19.945  0.00  0.00    +0.000 C 
ATOM     11  C   UNL     1       0.946   9.298  19.189  0.00  0.00    +0.000 C 
ATOM     12  H   UNL     1       2.972   8.382  17.921  0.00  0.00    +0.000 HD
ENDROOT
BRANCH   1  17
ATOM     13  C   UNL     1       6.169   3.679  15.319  0.00  0.00    +0.000 C 
ATOM     14  C   UNL     1       5.342   4.666  16.086  0.00  0.00    +0.000 A 
ATOM     15  C   UNL     1       5.639   6.029  16.039  0.00  0.00    +0.000 A 
ATOM     16  C   UNL     1       4.867   6.949  16.751  0.00  0.00    +0.000 A 
ATOM     17  C   UNL     1       3.772   6.532  17.510  0.00  0.00    +0.000 A 
ATOM     18  C   UNL     1       3.488   5.162  17.579  0.00  0.00    +0.000 A 
ATOM     19  C   UNL     1       4.263   4.238  16.867  0.00  0.00    +0.000 A 
ENDBRANCH   1  17
BRANCH   8  20
ATOM     20  C   UNL     1      -0.925  12.479  21.147  0.00  0.00    +0.000 C 
ATOM     21  C   UNL     1      -1.582  13.522  22.045  0.00  0.00    +0.000 C 
ATOM     22  C   UNL     1      -2.722  14.044  21.214  0.00  0.00    +0.000 C 
ATOM     23  C   UNL     1      -3.094  12.859  20.354  0.00  0.00    +0.000 C 
ATOM     24  O   UNL     1      -1.936  12.027  20.235  0.00  0.00    +0.000 OA
ENDBRANCH   8  20
TORSDOF 2
ENDMDL
MODEL 3
REMARK VINA RESULT:      -7.0      2.297      3.154
REMARK  Name = 
REMARK  3 active torsions:
REMARK  status: ('A' for Active; 'I' for Inactive)
REMARK    1  A    between atoms: C_1  and  C_2
REMARK    2  A    between atoms: C_5  and  N_6
REMARK    3  A    between atoms: C_13  and  C_15
REMARK                            x       y       z     vdW  Elec       q    Type
REMARK                         _______ _______ _______ _____ _____    ______ ____
ROOT
ATOM      1  N   UNL     1       1.873   6.732  20.393  0.00  0.00    +0.000 N 
ATOM      2  C   UNL     1       1.857   7.845  19.584  0.00  0.00    +0.000 C 
ATOM      3  O   UNL     1       2.247   7.853  18.416  0.00  0.00    +0.000 OA
ATOM      4  N   UNL     1       1.308   8.986  20.146  0.00  0.00    +0.000 N 
ATOM      5  C   UNL     1       1.128  10.158  19.276  0.00  0.00    +0.000 C 
ATOM      6  C   UNL     1      -0.263  10.770  19.473  0.00  0.00    +0.000 C 
ATOM      7  N   UNL     1      -0.523  11.035  20.893  0.00  0.00    +0.000 N 
ATOM      8  C   UNL     1      -0.935  12.302  21.281  0.00  0.00    +0.000 C 
ATOM      9  O   UNL     1      -1.137  13.186  20.444  0.00  0.00    +0.000 OA
ATOM     10  C   UNL     1      -0.323   9.877  21.776  0.00  0.00    +0.000 C 
ATOM     11  C   UNL     1       1.071   9.260  21.572  0.00  0.00    +0.000 C 
ATOM     12  H   UNL     1       1.232   6.736  21.168  0.00  0.00    +0.000 HD
ENDROOT
BRANCH   1  17
ATOM     13  C   UNL     1       3.859   1.550  18.951  0.00  0.00    +0.000 C 
ATOM     14  C   UNL     1       3.356   2.907  19.341  0.00  0.00    +0.000 A 
ATOM     15  C   UNL     1       4.216   4.006  19.350  0.00  0.00    +0.000 A 
ATOM     16  C   UNL     1       3.746   5.271  19.711  0.00  0.00    +0.000 A 
ATOM     17  C   UNL     1       2.407   5.468  20.054  0.00  0.00    +0.000 A 
ATOM     18  C   UNL     1       1.550   4.362  20.069  0.00  0.00    +0.000 A 
ATOM     19  C   UNL     1       2.019   3.092  19.710  0.00  0.00    +0.000 A 
ENDBRANCH   1  17
BRANCH   8  20
ATOM     20  C   UNL     1      -1.179  12.564  22.784  0.00  0.00    +0.000 C 
ATOM     21  C   UNL     1      -2.665  12.630  23.119  0.00  0.00    +0.000 C 
ATOM     22  C   UNL     1      -2.731  13.592  24.274  0.00  0.00    +0.000 C 
ATOM     23  C   UNL     1      -1.560  14.513  24.024  0.00  0.00    +0.000 C 
ATOM     24  O   UNL     1      -0.600  13.795  23.243  0.00  0.00    +0.000 OA
ENDBRANCH   8  20
TORSDOF 2
ENDMDL
MODEL 4
REMARK VINA RESULT:      -7.0      2.543      9.497
REMARK  Name = 
REMARK  3 active torsions:
REMARK  status: ('A' for Active; 'I' for Inactive)
REMARK    1  A    between atoms: C_1  and  C_2
REMARK    2  A    between atoms: C_5  and  N_6
REMARK    3  A    between atoms: C_13  and  C_15
REMARK                            x       y       z     vdW  Elec       q    Type
REMARK                         _______ _______ _______ _____ _____    ______ ____
ROOT
ATOM      1  N   UNL     1      -1.054  11.381  22.453  0.00  0.00    +0.000 N 
ATOM      2  C   UNL     1      -0.837  11.192  21.107  0.00  0.00    +0.000 C 
ATOM      3  O   UNL     1      -1.092  12.031  20.243  0.00  0.00    +0.000 OA
ATOM      4  N   UNL     1      -0.241   9.990  20.760  0.00  0.00    +0.000 N 
ATOM      5  C   UNL     1       0.152   9.802  19.355  0.00  0.00    +0.000 C 
ATOM      6  C   UNL     1       1.566   9.220  19.262  0.00  0.00    +0.000 C 
ATOM      7  N   UNL     1       1.693   8.012  20.084  0.00  0.00    +0.000 N 
ATOM      8  C   UNL     1       2.184   6.849  19.508  0.00  0.00    +0.000 C 
ATOM      9  O   UNL     1       2.566   6.837  18.334  0.00  0.00    +0.000 OA
ATOM     10  C   UNL     1       1.280   8.180  21.485  0.00  0.00    +0.000 C 
ATOM     11  C   UNL     1      -0.138   8.771  21.576  0.00  0.00    +0.000 C 
ATOM     12  H   UNL     1      -0.506  10.813  23.076  0.00  0.00    +0.000 HD
ENDROOT
BRANCH   1  17
ATOM     13  C   UNL     1      -3.685  15.827  24.941  0.00  0.00    +0.000 C 
ATOM     14  C   UNL     1      -2.991  14.677  24.276  0.00  0.00    +0.000 A 
ATOM     15  C   UNL     1      -1.664  14.795  23.859  0.00  0.00    +0.000 A 
ATOM     16  C   UNL     1      -1.016  13.723  23.241  0.00  0.00    +0.000 A 
ATOM     17  C   UNL     1      -1.672  12.507  23.041  0.00  0.00    +0.000 A 
ATOM     18  C   UNL     1      -3.011  12.396  23.436  0.00  0.00    +0.000 A 
ATOM     19  C   UNL     1      -3.663  13.470  24.053  0.00  0.00    +0.000 A 
ENDBRANCH   1  17
BRANCH   8  20
ATOM     20  C   UNL     1       2.285   5.582  20.386  0.00  0.00    +0.000 C 
ATOM     21  C   UNL     1       3.257   4.561  19.806  0.00  0.00    +0.000 C 
ATOM     22  C   UNL     1       2.691   3.237  20.242  0.00  0.00    +0.000 C 
ATOM     23  C   UNL     1       1.207   3.505  20.322  0.00  0.00    +0.000 C 
ATOM     24  O   UNL     1       1.029   4.907  20.548  0.00  0.00    +0.000 OA
ENDBRANCH   8  20
TORSDOF 2
ENDMDL
MODEL 5
REMARK VINA RESULT:      -7.0      2.322      9.437
REMARK  Name = 
REMARK  3 active torsions:
REMARK  status: ('A' for Active; 'I' for Inactive)
REMARK    1  A    between atoms: C_1  and  C_2
REMARK    2  A    between atoms: C_5  and  N_6
REMARK    3  A    between atoms: C_13  and  C_15
REMARK                            x       y       z     vdW  Elec       q    Type
REMARK                         _______ _______ _______ _____ _____    ______ ____
ROOT
ATOM      1  N   UNL     1      -1.039  11.277  22.312  0.00  0.00    +0.000 N 
ATOM      2  C   UNL     1      -0.875  11.173  20.949  0.00  0.00    +0.000 C 
ATOM      3  O   UNL     1      -1.235  12.032  20.145  0.00  0.00    +0.000 OA
ATOM      4  N   UNL     1      -0.210  10.040  20.511  0.00  0.00    +0.000 N 
ATOM      5  C   UNL     1       0.126   9.953  19.081  0.00  0.00    +0.000 C 
ATOM      6  C   UNL     1       1.574   9.488  18.893  0.00  0.00    +0.000 C 
ATOM      7  N   UNL     1       1.831   8.253  19.642  0.00  0.00    +0.000 N 
ATOM      8  C   UNL     1       2.379   7.163  18.982  0.00  0.00    +0.000 C 
ATOM      9  O   UNL     1       2.702   7.239  17.793  0.00  0.00    +0.000 OA
ATOM     10  C   UNL     1       1.476   8.318  21.067  0.00  0.00    +0.000 C 
ATOM     11  C   UNL     1       0.025   8.792  21.255  0.00  0.00    +0.000 C 
ATOM     12  H   UNL     1      -0.421  10.722  22.878  0.00  0.00    +0.000 HD
ENDROOT
BRANCH   1  17
ATOM     13  C   UNL     1      -3.642  15.646  24.961  0.00  0.00    +0.000 C 
ATOM     14  C   UNL     1      -2.968  14.491  24.283  0.00  0.00    +0.000 A 
ATOM     15  C   UNL     1      -3.658  13.298  24.061  0.00  0.00    +0.000 A 
ATOM     16  C   UNL     1      -3.031  12.223  23.427  0.00  0.00    +0.000 A 
ATOM     17  C   UNL     1      -1.710  12.321  22.988  0.00  0.00    +0.000 A 
ATOM     18  C   UNL     1      -1.009  13.507  23.233  0.00  0.00    +0.000 A 
ATOM     19  C   UNL     1      -1.635  14.586  23.870  0.00  0.00    +0.000 A 
ENDBRANCH   1  17
BRANCH   8  20
ATOM     20  C   UNL     1       2.617   5.864  19.785  0.00  0.00    +0.000 C 
ATOM     21  C   UNL     1       3.968   5.235  19.466  0.00  0.00    +0.000 C 
ATOM     22  C   UNL     1       3.731   3.761  19.648  0.00  0.00    +0.000 C 
ATOM     23  C   UNL     1       2.270   3.600  19.300  0.00  0.00    +0.000 C 
ATOM     24  O   UNL     1       1.626   4.856  19.535  0.00  0.00    +0.000 OA
ENDBRANCH   8  20
TORSDOF 2
ENDMDL
MODEL 6
REMARK VINA RESULT:      -6.9      1.942      2.897
REMARK  Name = 
REMARK  3 active torsions:
REMARK  status: ('A' for Active; 'I' for Inactive)
REMARK    1  A    between atoms: C_1  and  C_2
REMARK    2  A    between atoms: C_5  and  N_6
REMARK    3  A    between atoms: C_13  and  C_15
REMARK                            x       y       z     vdW  Elec       q    Type
REMARK                         _______ _______ _______ _____ _____    ______ ____
ROOT
ATOM      1  N   UNL     1       2.004   8.050  19.020  0.00  0.00    +0.000 N 
ATOM      2  C   UNL     1       1.744   9.281  18.461  0.00  0.00    +0.000 C 
ATOM      3  O   UNL     1       2.067   9.599  17.316  0.00  0.00    +0.000 OA
ATOM      4  N   UNL     1       1.024  10.159  19.254  0.00  0.00    +0.000 N 
ATOM      5  C   UNL     1       0.589  11.427  18.649  0.00  0.00    +0.000 C 
ATOM      6  C   UNL     1      -0.879  11.711  18.985  0.00  0.00    +0.000 C 
ATOM      7  N   UNL     1      -1.112  11.628  20.432  0.00  0.00    +0.000 N 
ATOM      8  C   UNL     1      -1.730  12.688  21.080  0.00  0.00    +0.000 C 
ATOM      9  O   UNL     1      -2.132  13.669  20.447  0.00  0.00    +0.000 OA
ATOM     10  C   UNL     1      -0.659  10.375  21.052  0.00  0.00    +0.000 C 
ATOM     11  C   UNL     1       0.813  10.088  20.708  0.00  0.00    +0.000 C 
ATOM     12  H   UNL     1       1.413   7.776  19.786  0.00  0.00    +0.000 HD
ENDROOT
BRANCH   1  17
ATOM     13  C   UNL     1       4.833   3.717  16.550  0.00  0.00    +0.000 C 
ATOM     14  C   UNL     1       4.111   4.856  17.205  0.00  0.00    +0.000 A 
ATOM     15  C   UNL     1       4.644   6.145  17.173  0.00  0.00    +0.000 A 
ATOM     16  C   UNL     1       3.970   7.207  17.782  0.00  0.00    +0.000 A 
ATOM     17  C   UNL     1       2.744   7.007  18.419  0.00  0.00    +0.000 A 
ATOM     18  C   UNL     1       2.221   5.709  18.474  0.00  0.00    +0.000 A 
ATOM     19  C   UNL     1       2.896   4.644  17.866  0.00  0.00    +0.000 A 
ENDBRANCH   1  17
BRANCH   8  20
ATOM     20  C   UNL     1      -1.942  12.590  22.607  0.00  0.00    +0.000 C 
ATOM     21  C   UNL     1      -3.409  12.388  22.968  0.00  0.00    +0.000 C 
ATOM     22  C   UNL     1      -3.547  13.065  24.304  0.00  0.00    +0.000 C 
ATOM     23  C   UNL     1      -2.511  14.163  24.245  0.00  0.00    +0.000 C 
ATOM     24  O   UNL     1      -1.502  13.759  23.314  0.00  0.00    +0.000 OA
ENDBRANCH   8  20
TORSDOF 2
ENDMDL
MODEL 7
REMARK VINA RESULT:      -6.9      1.903      2.655
REMARK  Name = 
REMARK  3 active torsions:
REMARK  status: ('A' for Active; 'I' for Inactive)
REMARK    1  A    between atoms: C_1  and  C_2
REMARK    2  A    between atoms: C_5  and  N_6
REMARK    3  A    between atoms: C_13  and  C_15
REMARK                            x       y       z     vdW  Elec       q    Type
REMARK                         _______ _______ _______ _____ _____    ______ ____
ROOT
ATOM      1  N   UNL     1       1.992   7.925  18.894  0.00  0.00    +0.000 N 
ATOM      2  C   UNL     1       1.761   9.168  18.348  0.00  0.00    +0.000 C 
ATOM      3  O   UNL     1       2.091   9.490  17.207  0.00  0.00    +0.000 OA
ATOM      4  N   UNL     1       1.061  10.054  19.150  0.00  0.00    +0.000 N 
ATOM      5  C   UNL     1       0.655  11.338  18.559  0.00  0.00    +0.000 C 
ATOM      6  C   UNL     1      -0.806  11.653  18.898  0.00  0.00    +0.000 C 
ATOM      7  N   UNL     1      -1.041  11.560  20.343  0.00  0.00    +0.000 N 
ATOM      8  C   UNL     1      -1.634  12.627  21.002  0.00  0.00    +0.000 C 
ATOM      9  O   UNL     1      -2.013  13.624  20.380  0.00  0.00    +0.000 OA
ATOM     10  C   UNL     1      -0.617  10.290  20.950  0.00  0.00    +0.000 C 
ATOM     11  C   UNL     1       0.847   9.973  20.603  0.00  0.00    +0.000 C 
ATOM     12  H   UNL     1       1.394   7.657  19.657  0.00  0.00    +0.000 HD
ENDROOT
BRANCH   1  17
ATOM     13  C   UNL     1       5.066   3.747  16.451  0.00  0.00    +0.000 C 
ATOM     14  C   UNL     1       4.246   4.833  17.079  0.00  0.00    +0.000 A 
ATOM     15  C   UNL     1       2.996   4.548  17.631  0.00  0.00    +0.000 A 
ATOM     16  C   UNL     1       2.233   5.560  18.218  0.00  0.00    +0.000 A 
ATOM     17  C   UNL     1       2.707   6.872  18.282  0.00  0.00    +0.000 A 
ATOM     18  C   UNL     1       3.949   7.163  17.706  0.00  0.00    +0.000 A 
ATOM     19  C   UNL     1       4.715   6.151  17.115  0.00  0.00    +0.000 A 
ENDBRANCH   1  17
BRANCH   8  20
ATOM     20  C   UNL     1      -1.848  12.518  22.529  0.00  0.00    +0.000 C 
ATOM     21  C   UNL     1      -3.328  12.474  22.895  0.00  0.00    +0.000 C 
ATOM     22  C   UNL     1      -3.382  13.130  24.248  0.00  0.00    +0.000 C 
ATOM     23  C   UNL     1      -2.230  14.106  24.206  0.00  0.00    +0.000 C 
ATOM     24  O   UNL     1      -1.277  13.613  23.259  0.00  0.00    +0.000 OA
ENDBRANCH   8  20
TORSDOF 2
ENDMDL
MODEL 8
REMARK VINA RESULT:      -6.8      2.314      3.135
REMARK  Name = 
REMARK  3 active torsions:
REMARK  status: ('A' for Active; 'I' for Inactive)
REMARK    1  A    between atoms: C_1  and  C_2
REMARK    2  A    between atoms: C_5  and  N_6
REMARK    3  A    between atoms: C_13  and  C_15
REMARK                            x       y       z     vdW  Elec       q    Type
REMARK                         _______ _______ _______ _____ _____    ______ ____
ROOT
ATOM      1  N   UNL     1       1.829   6.830  20.690  0.00  0.00    +0.000 N 
ATOM      2  C   UNL     1       1.738   7.887  19.813  0.00  0.00    +0.000 C 
ATOM      3  O   UNL     1       2.056   7.827  18.626  0.00  0.00    +0.000 OA
ATOM      4  N   UNL     1       1.195   9.051  20.333  0.00  0.00    +0.000 N 
ATOM      5  C   UNL     1       0.934  10.159  19.402  0.00  0.00    +0.000 C 
ATOM      6  C   UNL     1      -0.457  10.754  19.645  0.00  0.00    +0.000 C 
ATOM      7  N   UNL     1      -0.639  11.105  21.059  0.00  0.00    +0.000 N 
ATOM      8  C   UNL     1      -1.058  12.386  21.389  0.00  0.00    +0.000 C 
ATOM      9  O   UNL     1      -1.331  13.209  20.511  0.00  0.00    +0.000 OA
ATOM     10  C   UNL     1      -0.357  10.013  22.000  0.00  0.00    +0.000 C 
ATOM     11  C   UNL     1       1.037   9.412  21.750  0.00  0.00    +0.000 C 
ATOM     12  H   UNL     1       1.236   6.872  21.501  0.00  0.00    +0.000 HD
ENDROOT
BRANCH   1  17
ATOM     13  C   UNL     1       4.223   1.753  19.518  0.00  0.00    +0.000 C 
ATOM     14  C   UNL     1       3.579   3.073  19.816  0.00  0.00    +0.000 A 
ATOM     15  C   UNL     1       2.347   3.130  20.469  0.00  0.00    +0.000 A 
ATOM     16  C   UNL     1       1.749   4.360  20.750  0.00  0.00    +0.000 A 
ATOM     17  C   UNL     1       2.373   5.558  20.400  0.00  0.00    +0.000 A 
ATOM     18  C   UNL     1       3.597   5.502  19.722  0.00  0.00    +0.000 A 
ATOM     19  C   UNL     1       4.198   4.270  19.438  0.00  0.00    +0.000 A 
ENDBRANCH   1  17
BRANCH   8  20
ATOM     20  C   UNL     1      -1.217  12.742  22.884  0.00  0.00    +0.000 C 
ATOM     21  C   UNL     1      -2.681  12.893  23.282  0.00  0.00    +0.000 C 
ATOM     22  C   UNL     1      -2.651  13.919  24.382  0.00  0.00    +0.000 C 
ATOM     23  C   UNL     1      -1.455  14.771  24.027  0.00  0.00    +0.000 C 
ATOM     24  O   UNL     1      -0.565  13.968  23.246  0.00  0.00    +0.000 OA
ENDBRANCH   8  20
TORSDOF 2
ENDMDL
MODEL 9
REMARK VINA RESULT:      -6.8      2.321      2.862
REMARK  Name = 
REMARK  3 active torsions:
REMARK  status: ('A' for Active; 'I' for Inactive)
REMARK    1  A    between atoms: C_1  and  C_2
REMARK    2  A    between atoms: C_5  and  N_6
REMARK    3  A    between atoms: C_13  and  C_15
REMARK                            x       y       z     vdW  Elec       q    Type
REMARK                         _______ _______ _______ _____ _____    ______ ____
ROOT
ATOM      1  N   UNL     1       1.830   6.535  19.728  0.00  0.00    +0.000 N 
ATOM      2  C   UNL     1       1.990   7.727  19.058  0.00  0.00    +0.000 C 
ATOM      3  O   UNL     1       2.516   7.828  17.950  0.00  0.00    +0.000 OA
ATOM      4  N   UNL     1       1.461   8.842  19.686  0.00  0.00    +0.000 N 
ATOM      5  C   UNL     1       1.469  10.113  18.945  0.00  0.00    +0.000 C 
ATOM      6  C   UNL     1       0.112  10.815  19.059  0.00  0.00    +0.000 C 
ATOM      7  N   UNL     1      -0.296  10.945  20.463  0.00  0.00    +0.000 N 
ATOM      8  C   UNL     1      -0.660  12.193  20.949  0.00  0.00    +0.000 C 
ATOM      9  O   UNL     1      -0.697  13.176  20.204  0.00  0.00    +0.000 OA
ATOM     10  C   UNL     1      -0.285   9.686  21.220  0.00  0.00    +0.000 C 
ATOM     11  C   UNL     1       1.076   8.979  21.099  0.00  0.00    +0.000 C 
ATOM     12  H   UNL     1       1.103   6.510  20.423  0.00  0.00    +0.000 HD
ENDROOT
BRANCH   1  17
ATOM     13  C   UNL     1       3.824   1.381  18.197  0.00  0.00    +0.000 C 
ATOM     14  C   UNL     1       3.305   2.735  18.578  0.00  0.00    +0.000 A 
ATOM     15  C   UNL     1       2.320   3.358  17.811  0.00  0.00    +0.000 A 
ATOM     16  C   UNL     1       1.835   4.619  18.167  0.00  0.00    +0.000 A 
ATOM     17  C   UNL     1       2.310   5.275  19.303  0.00  0.00    +0.000 A 
ATOM     18  C   UNL     1       3.316   4.662  20.059  0.00  0.00    +0.000 A 
ATOM     19  C   UNL     1       3.805   3.400  19.703  0.00  0.00    +0.000 A 
ENDBRANCH   1  17
BRANCH   8  20
ATOM     20  C   UNL     1      -1.061  12.311  22.436  0.00  0.00    +0.000 C 
ATOM     21  C   UNL     1      -2.573  12.377  22.616  0.00  0.00    +0.000 C 
ATOM     22  C   UNL     1      -2.752  13.221  23.848  0.00  0.00    +0.000 C 
ATOM     23  C   UNL     1      -1.550  14.135  23.819  0.00  0.00    +0.000 C 
ATOM     24  O   UNL     1      -0.520  13.476  23.076  0.00  0.00    +0.000 OA
ENDBRANCH   8  20
TORSDOF 2
ENDMDL
