MODEL 1
REMARK VINA RESULT:      -6.7      0.000      0.000
REMARK  Name = 
REMARK  9 active torsions:
REMARK  status: ('A' for Active; 'I' for Inactive)
REMARK    1  A    between atoms: C_1  and  O_2
REMARK    2  A    between atoms: O_2  and  C_3
REMARK    3  A    between atoms: C_11  and  O_12
REMARK    4  A    between atoms: C_13  and  C_14
REMARK    5  A    between atoms: C_13  and  C_16
REMARK    6  A    between atoms: C_14  and  O_15
REMARK    7  A    between atoms: C_16  and  C_17
REMARK    8  A    between atoms: C_17  and  C_18
REMARK    9  A    between atoms: N_28  and  C_29
REMARK                            x       y       z     vdW  Elec       q    Type
REMARK                         _______ _______ _______ _____ _____    ______ ____
ROOT
ATOM      1  C   UNL     1      -5.061  15.968  21.747  0.00  0.00    +0.000 A 
ATOM      2  C   UNL     1      -5.751  15.270  22.755  0.00  0.00    +0.000 A 
ATOM      3  C   UNL     1      -5.267  14.031  23.332  0.00  0.00    +0.000 A 
ATOM      4  C   UNL     1      -4.057  13.461  22.913  0.00  0.00    +0.000 A 
ATOM      5  C   UNL     1      -3.595  14.050  21.724  0.00  0.00    +0.000 A 
ATOM      6  C   UNL     1      -4.045  15.266  21.162  0.00  0.00    +0.000 A 
ATOM      7  O   UNL     1      -3.140  15.742  20.213  0.00  0.00    +0.000 OA
ATOM      8  C   UNL     1      -1.981  15.186  20.804  0.00  0.00    +0.000 C 
ATOM      9  C   UNL     1      -0.680  15.126  20.115  0.00  0.00    +0.000 C 
ATOM     10  C   UNL     1       0.097  13.961  20.845  0.00  0.00    +0.000 C 
ATOM     11  C   UNL     1       0.139  14.112  22.343  0.00  0.00    +0.000 C 
ATOM     12  C   UNL     1      -1.274  13.567  22.646  0.00  0.00    +0.000 C 
ATOM     13  C   UNL     1      -1.384  12.040  23.197  0.00  0.00    +0.000 C 
ATOM     14  C   UNL     1      -3.154  12.358  23.714  0.00  0.00    +0.000 C 
ATOM     15  N   UNL     1      -0.765  10.659  22.075  0.00  0.00    +0.000 NA
ATOM     16  C   UNL     1      -0.485   9.422  22.756  0.00  0.00    +0.000 C 
ATOM     17  C   UNL     1      -1.068  10.732  20.160  0.00  0.00    +0.000 C 
ATOM     18  C   UNL     1      -2.101  12.419  19.612  0.00  0.00    +0.000 C 
ATOM     19  C   UNL     1      -2.280  13.733  21.109  0.00  0.00    +0.000 C 
ENDROOT
BRANCH   1  21
ATOM     20  C   UNL     1      -4.640  18.267  22.252  0.00  0.00    +0.000 C 
ATOM     21  O   UNL     1      -5.382  17.279  21.517  0.00  0.00    +0.000 OA
ENDBRANCH   1  21
BRANCH   9  22
ATOM     22  O   UNL     1      -0.878  14.934  18.718  0.00  0.00    +0.000 OA
ATOM     23  H   UNL     1      -1.265  14.038  18.611  0.00  0.00    +0.000 HD
ENDBRANCH   9  22
BRANCH  10  24
ATOM     24  C   UNL     1       1.462  13.849  20.090  0.00  0.00    +0.000 C 
BRANCH  24  25
ATOM     25  O   UNL     1       1.888  15.121  19.567  0.00  0.00    +0.000 OA
ATOM     26  H   UNL     1       2.616  14.955  18.923  0.00  0.00    +0.000 HD
ENDBRANCH  24  25
ENDBRANCH  10  24
BRANCH  10  27
ATOM     27  C   UNL     1      -0.593  12.451  20.945  0.00  0.00    +0.000 C 
BRANCH  27  28
ATOM     28  C   UNL     1      -0.155  10.388  20.580  0.00  0.00    +0.000 C 
BRANCH  28  29
ATOM     29  C   UNL     1       1.002   9.443  19.612  0.00  0.00    +0.000 A 
ATOM     30  C   UNL     1       1.587   9.794  18.363  0.00  0.00    +0.000 A 
ATOM     31  C   UNL     1       2.228   8.865  17.565  0.00  0.00    +0.000 A 
ATOM     32  C   UNL     1       2.551   7.638  18.112  0.00  0.00    +0.000 A 
ATOM     33  C   UNL     1       2.299   7.407  19.461  0.00  0.00    +0.000 A 
ATOM     34  C   UNL     1       1.529   8.295  20.215  0.00  0.00    +0.000 A 
ENDBRANCH  28  29
ENDBRANCH  27  28
ENDBRANCH  10  27
TORSDOF 7
ENDMDL
MODEL 2
REMARK VINA RESULT:      -6.5      3.216      6.902
REMARK  Name = 
REMARK  9 active torsions:
REMARK  status: ('A' for Active; 'I' for Inactive)
REMARK    1  A    between atoms: C_1  and  O_2
REMARK    2  A    between atoms: O_2  and  C_3
REMARK    3  A    between atoms: C_11  and  O_12
REMARK    4  A    between atoms: C_13  and  C_14
REMARK    5  A    between atoms: C_13  and  C_16
REMARK    6  A    between atoms: C_14  and  O_15
REMARK    7  A    between atoms: C_16  and  C_17
REMARK    8  A    between atoms: C_17  and  C_18
REMARK    9  A    between atoms: N_28  and  C_29
REMARK                            x       y       z     vdW  Elec       q    Type
REMARK                         _______ _______ _______ _____ _____    ______ ____
ROOT
ATOM      1  C   UNL     1       2.739  14.870  18.290  0.00  0.00    +0.000 A 
ATOM      2  C   UNL     1       2.416  16.180  17.889  0.00  0.00    +0.000 A 
ATOM      3  C   UNL     1       1.172  16.833  18.249  0.00  0.00    +0.000 A 
ATOM      4  C   UNL     1       0.216  16.183  19.041  0.00  0.00    +0.000 A 
ATOM      5  C   UNL     1       0.482  14.807  19.144  0.00  0.00    +0.000 A 
ATOM      6  C   UNL     1       1.695  14.162  18.815  0.00  0.00    +0.000 A 
ATOM      7  O   UNL     1       1.751  12.887  19.378  0.00  0.00    +0.000 OA
ATOM      8  C   UNL     1       0.953  13.177  20.509  0.00  0.00    +0.000 C 
ATOM      9  C   UNL     1       0.416  12.133  21.400  0.00  0.00    +0.000 C 
ATOM     10  C   UNL     1      -0.826  12.814  22.099  0.00  0.00    +0.000 C 
ATOM     11  C   UNL     1      -0.505  14.139  22.738  0.00  0.00    +0.000 C 
ATOM     12  C   UNL     1      -0.556  15.004  21.459  0.00  0.00    +0.000 C 
ATOM     13  C   UNL     1      -1.896  15.893  21.210  0.00  0.00    +0.000 C 
ATOM     14  C   UNL     1      -0.996  16.873  19.894  0.00  0.00    +0.000 C 
ATOM     15  N   UNL     1      -3.530  14.976  21.017  0.00  0.00    +0.000 NA
ATOM     16  C   UNL     1      -4.697  15.791  21.235  0.00  0.00    +0.000 C 
ATOM     17  C   UNL     1      -3.614  13.302  20.039  0.00  0.00    +0.000 C 
ATOM     18  C   UNL     1      -1.779  12.752  19.303  0.00  0.00    +0.000 C 
ATOM     19  C   UNL     1      -0.292  13.886  20.016  0.00  0.00    +0.000 C 
ENDROOT
BRANCH   1  21
ATOM     20  C   UNL     1       4.908  14.879  19.297  0.00  0.00    +0.000 C 
ATOM     21  O   UNL     1       4.045  14.466  18.222  0.00  0.00    +0.000 OA
ENDBRANCH   1  21
BRANCH   9  22
ATOM     22  O   UNL     1       0.116  10.960  20.651  0.00  0.00    +0.000 OA
ATOM     23  H   UNL     1       0.636  10.230  21.054  0.00  0.00    +0.000 HD
ENDBRANCH   9  22
BRANCH  10  24
ATOM     24  C   UNL     1      -1.439  11.700  23.010  0.00  0.00    +0.000 C 
BRANCH  24  25
ATOM     25  O   UNL     1      -0.463  10.703  23.364  0.00  0.00    +0.000 OA
ATOM     26  H   UNL     1       0.162  10.611  22.607  0.00  0.00    +0.000 HD
ENDBRANCH  24  25
ENDBRANCH  10  24
BRANCH  10  27
ATOM     27  C   UNL     1      -2.032  13.476  21.164  0.00  0.00    +0.000 C 
BRANCH  27  28
ATOM     28  C   UNL     1      -4.128  13.294  20.771  0.00  0.00    +0.000 C 
BRANCH  28  29
ATOM     29  C   UNL     1      -5.570  12.658  21.599  0.00  0.00    +0.000 A 
ATOM     30  C   UNL     1      -6.612  11.861  21.049  0.00  0.00    +0.000 A 
ATOM     31  C   UNL     1      -7.820  11.681  21.696  0.00  0.00    +0.000 A 
ATOM     32  C   UNL     1      -7.916  12.049  23.024  0.00  0.00    +0.000 A 
ATOM     33  C   UNL     1      -6.782  12.508  23.687  0.00  0.00    +0.000 A 
ATOM     34  C   UNL     1      -5.612  12.816  22.990  0.00  0.00    +0.000 A 
ENDBRANCH  28  29
ENDBRANCH  27  28
ENDBRANCH  10  27
TORSDOF 7
ENDMDL
MODEL 3
REMARK VINA RESULT:      -6.4      0.698      1.093
REMARK  Name = 
REMARK  9 active torsions:
REMARK  status: ('A' for Active; 'I' for Inactive)
REMARK    1  A    between atoms: C_1  and  O_2
REMARK    2  A    between atoms: O_2  and  C_3
REMARK    3  A    between atoms: C_11  and  O_12
REMARK    4  A    between atoms: C_13  and  C_14
REMARK    5  A    between atoms: C_13  and  C_16
REMARK    6  A    between atoms: C_14  and  O_15
REMARK    7  A    between atoms: C_16  and  C_17
REMARK    8  A    between atoms: C_17  and  C_18
REMARK    9  A    between atoms: N_28  and  C_29
REMARK                            x       y       z     vdW  Elec       q    Type
REMARK                         _______ _______ _______ _____ _____    ______ ____
ROOT
ATOM      1  C   UNL     1      -4.517  15.946  21.763  0.00  0.00    +0.000 A 
ATOM      2  C   UNL     1      -5.172  15.300  22.828  0.00  0.00    +0.000 A 
ATOM      3  C   UNL     1      -4.732  14.029  23.372  0.00  0.00    +0.000 A 
ATOM      4  C   UNL     1      -3.604  13.374  22.861  0.00  0.00    +0.000 A 
ATOM      5  C   UNL     1      -3.198  13.928  21.635  0.00  0.00    +0.000 A 
ATOM      6  C   UNL     1      -3.604  15.172  21.103  0.00  0.00    +0.000 A 
ATOM      7  O   UNL     1      -2.747  15.582  20.081  0.00  0.00    +0.000 OA
ATOM      8  C   UNL     1      -1.587  14.945  20.581  0.00  0.00    +0.000 C 
ATOM      9  C   UNL     1      -0.353  14.791  19.790  0.00  0.00    +0.000 C 
ATOM     10  C   UNL     1       0.396  13.574  20.463  0.00  0.00    +0.000 C 
ATOM     11  C   UNL     1       0.569  13.723  21.952  0.00  0.00    +0.000 C 
ATOM     12  C   UNL     1      -0.850  13.281  22.371  0.00  0.00    +0.000 C 
ATOM     13  C   UNL     1      -1.024  11.766  22.939  0.00  0.00    +0.000 C 
ATOM     14  C   UNL     1      -2.720  12.211  23.594  0.00  0.00    +0.000 C 
ATOM     15  N   UNL     1      -0.598  10.344  21.780  0.00  0.00    +0.000 NA
ATOM     16  C   UNL     1      -0.352   9.090  22.444  0.00  0.00    +0.000 C 
ATOM     17  C   UNL     1      -1.048  10.436  19.895  0.00  0.00    +0.000 C 
ATOM     18  C   UNL     1      -1.998  12.193  19.420  0.00  0.00    +0.000 C 
ATOM     19  C   UNL     1      -1.963  13.517  20.919  0.00  0.00    +0.000 C 
ENDROOT
BRANCH   1  21
ATOM     20  C   UNL     1      -4.278  18.192  22.549  0.00  0.00    +0.000 C 
ATOM     21  O   UNL     1      -4.762  17.276  21.551  0.00  0.00    +0.000 OA
ENDBRANCH   1  21
BRANCH   9  22
ATOM     22  O   UNL     1      -0.675  14.613  18.414  0.00  0.00    +0.000 OA
ATOM     23  H   UNL     1      -0.506  13.668  18.208  0.00  0.00    +0.000 HD
ENDBRANCH   9  22
BRANCH  10  24
ATOM     24  C   UNL     1       1.684  13.365  19.601  0.00  0.00    +0.000 C 
BRANCH  24  25
ATOM     25  O   UNL     1       1.373  12.856  18.291  0.00  0.00    +0.000 OA
ATOM     26  H   UNL     1       2.190  12.911  17.744  0.00  0.00    +0.000 HD
ENDBRANCH  24  25
ENDBRANCH  10  24
BRANCH  10  27
ATOM     27  C   UNL     1      -0.390  12.118  20.628  0.00  0.00    +0.000 C 
BRANCH  27  28
ATOM     28  C   UNL     1      -0.159  10.037  20.182  0.00  0.00    +0.000 C 
BRANCH  28  29
ATOM     29  C   UNL     1       1.036   8.991  19.379  0.00  0.00    +0.000 A 
ATOM     30  C   UNL     1       1.597   7.776  19.863  0.00  0.00    +0.000 A 
ATOM     31  C   UNL     1       2.727   7.213  19.300  0.00  0.00    +0.000 A 
ATOM     32  C   UNL     1       3.157   7.684  18.075  0.00  0.00    +0.000 A 
ATOM     33  C   UNL     1       2.400   8.645  17.412  0.00  0.00    +0.000 A 
ATOM     34  C   UNL     1       1.346   9.302  18.050  0.00  0.00    +0.000 A 
ENDBRANCH  28  29
ENDBRANCH  27  28
ENDBRANCH  10  27
TORSDOF 7
ENDMDL
MODEL 4
REMARK VINA RESULT:      -6.4      3.255      5.398
REMARK  Name = 
REMARK  9 active torsions:
REMARK  status: ('A' for Active; 'I' for Inactive)
REMARK    1  A    between atoms: C_1  and  O_2
REMARK    2  A    between atoms: O_2  and  C_3
REMARK    3  A    between atoms: C_11  and  O_12
REMARK    4  A    between atoms: C_13  and  C_14
REMARK    5  A    between atoms: C_13  and  C_16
REMARK    6  A    between atoms: C_14  and  O_15
REMARK    7  A    between atoms: C_16  and  C_17
REMARK    8  A    between atoms: C_17  and  C_18
REMARK    9  A    between atoms: N_28  and  C_29
REMARK                            x       y       z     vdW  Elec       q    Type
REMARK                         _______ _______ _______ _____ _____    ______ ____
ROOT
ATOM      1  C   UNL     1      -3.247  13.227  22.989  0.00  0.00    +0.000 A 
ATOM      2  C   UNL     1      -3.855  14.495  22.927  0.00  0.00    +0.000 A 
ATOM      3  C   UNL     1      -3.328  15.586  22.130  0.00  0.00    +0.000 A 
ATOM      4  C   UNL     1      -2.170  15.425  21.357  0.00  0.00    +0.000 A 
ATOM      5  C   UNL     1      -1.479  14.251  21.703  0.00  0.00    +0.000 A 
ATOM      6  C   UNL     1      -1.987  13.173  22.462  0.00  0.00    +0.000 A 
ATOM      7  O   UNL     1      -1.197  12.035  22.302  0.00  0.00    +0.000 OA
ATOM      8  C   UNL     1      -0.766  12.323  20.986  0.00  0.00    +0.000 C 
ATOM      9  C   UNL     1       0.329  11.592  20.323  0.00  0.00    +0.000 C 
ATOM     10  C   UNL     1       0.840  12.581  19.203  0.00  0.00    +0.000 C 
ATOM     11  C   UNL     1      -0.258  13.097  18.310  0.00  0.00    +0.000 C 
ATOM     12  C   UNL     1      -0.793  14.197  19.253  0.00  0.00    +0.000 C 
ATOM     13  C   UNL     1      -0.353  15.732  18.938  0.00  0.00    +0.000 C 
ATOM     14  C   UNL     1      -1.687  16.347  20.097  0.00  0.00    +0.000 C 
ATOM     15  N   UNL     1       1.483  16.146  19.007  0.00  0.00    +0.000 NA
ATOM     16  C   UNL     1       1.845  17.356  18.315  0.00  0.00    +0.000 C 
ATOM     17  C   UNL     1       2.623  15.360  20.367  0.00  0.00    +0.000 C 
ATOM     18  C   UNL     1       1.575  14.116  21.619  0.00  0.00    +0.000 C 
ATOM     19  C   UNL     1      -0.284  13.759  20.971  0.00  0.00    +0.000 C 
ENDROOT
BRANCH   1  21
ATOM     20  C   UNL     1      -4.582  12.322  24.754  0.00  0.00    +0.000 C 
ATOM     21  O   UNL     1      -3.979  12.169  23.457  0.00  0.00    +0.000 OA
ENDBRANCH   1  21
BRANCH   9  22
ATOM     22  O   UNL     1       1.311  11.211  21.282  0.00  0.00    +0.000 OA
ATOM     23  H   UNL     1       1.767  12.036  21.558  0.00  0.00    +0.000 HD
ENDBRANCH   9  22
BRANCH  10  24
ATOM     24  C   UNL     1       2.038  11.840  18.524  0.00  0.00    +0.000 C 
BRANCH  24  25
ATOM     25  O   UNL     1       2.537  12.566  17.385  0.00  0.00    +0.000 OA
ATOM     26  H   UNL     1       2.108  12.195  16.579  0.00  0.00    +0.000 HD
ENDBRANCH  24  25
ENDBRANCH  10  24
BRANCH  10  27
ATOM     27  C   UNL     1       1.319  14.118  19.622  0.00  0.00    +0.000 C 
BRANCH  27  28
ATOM     28  C   UNL     1       3.018  15.417  19.541  0.00  0.00    +0.000 C 
BRANCH  28  29
ATOM     29  C   UNL     1       4.721  15.321  19.032  0.00  0.00    +0.000 A 
ATOM     30  C   UNL     1       5.242  14.779  17.824  0.00  0.00    +0.000 A 
ATOM     31  C   UNL     1       6.583  14.484  17.669  0.00  0.00    +0.000 A 
ATOM     32  C   UNL     1       7.478  14.981  18.596  0.00  0.00    +0.000 A 
ATOM     33  C   UNL     1       7.017  15.825  19.602  0.00  0.00    +0.000 A 
ATOM     34  C   UNL     1       5.650  16.000  19.829  0.00  0.00    +0.000 A 
ENDBRANCH  28  29
ENDBRANCH  27  28
ENDBRANCH  10  27
TORSDOF 7
ENDMDL
MODEL 5
REMARK VINA RESULT:      -6.2      1.568      2.581
REMARK  Name = 
REMARK  9 active torsions:
REMARK  status: ('A' for Active; 'I' for Inactive)
REMARK    1  A    between atoms: C_1  and  O_2
REMARK    2  A    between atoms: O_2  and  C_3
REMARK    3  A    between atoms: C_11  and  O_12
REMARK    4  A    between atoms: C_13  and  C_14
REMARK    5  A    between atoms: C_13  and  C_16
REMARK    6  A    between atoms: C_14  and  O_15
REMARK    7  A    between atoms: C_16  and  C_17
REMARK    8  A    between atoms: C_17  and  C_18
REMARK    9  A    between atoms: N_28  and  C_29
REMARK                            x       y       z     vdW  Elec       q    Type
REMARK                         _______ _______ _______ _____ _____    ______ ____
ROOT
ATOM      1  C   UNL     1      -3.404  14.288  21.922  0.00  0.00    +0.000 A 
ATOM      2  C   UNL     1      -3.690  13.565  23.095  0.00  0.00    +0.000 A 
ATOM      3  C   UNL     1      -3.019  12.327  23.443  0.00  0.00    +0.000 A 
ATOM      4  C   UNL     1      -2.025  11.784  22.618  0.00  0.00    +0.000 A 
ATOM      5  C   UNL     1      -2.015  12.397  21.353  0.00  0.00    +0.000 A 
ATOM      6  C   UNL     1      -2.648  13.612  21.006  0.00  0.00    +0.000 A 
ATOM      7  O   UNL     1      -2.138  14.117  19.810  0.00  0.00    +0.000 OA
ATOM      8  C   UNL     1      -0.839  13.574  19.948  0.00  0.00    +0.000 C 
ATOM      9  C   UNL     1       0.140  13.546  18.848  0.00  0.00    +0.000 C 
ATOM     10  C   UNL     1       1.138  12.386  19.238  0.00  0.00    +0.000 C 
ATOM     11  C   UNL     1       1.699  12.519  20.630  0.00  0.00    +0.000 C 
ATOM     12  C   UNL     1       0.488  11.944  21.398  0.00  0.00    +0.000 C 
ATOM     13  C   UNL     1       0.596  10.408  21.924  0.00  0.00    +0.000 C 
ATOM     14  C   UNL     1      -0.886  10.688  23.032  0.00  0.00    +0.000 C 
ATOM     15  N   UNL     1       0.801   9.054  20.631  0.00  0.00    +0.000 NA
ATOM     16  C   UNL     1       1.317   7.813  21.149  0.00  0.00    +0.000 C 
ATOM     17  C   UNL     1      -0.153   9.146  18.944  0.00  0.00    +0.000 C 
ATOM     18  C   UNL     1      -1.333  10.821  18.822  0.00  0.00    +0.000 C 
ATOM     19  C   UNL     1      -0.994  12.112  20.312  0.00  0.00    +0.000 C 
ENDROOT
BRANCH   1  21
ATOM     20  C   UNL     1      -4.693  15.938  20.767  0.00  0.00    +0.000 C 
ATOM     21  O   UNL     1      -3.802  15.596  21.843  0.00  0.00    +0.000 OA
ENDBRANCH   1  21
BRANCH   9  22
ATOM     22  O   UNL     1      -0.530  13.369  17.604  0.00  0.00    +0.000 OA
ATOM     23  H   UNL     1      -0.026  12.686  17.110  0.00  0.00    +0.000 HD
ENDBRANCH   9  22
BRANCH  10  24
ATOM     24  C   UNL     1       2.155  12.309  18.052  0.00  0.00    +0.000 C 
BRANCH  24  25
ATOM     25  O   UNL     1       2.497  13.616  17.557  0.00  0.00    +0.000 OA
ATOM     26  H   UNL     1       2.073  14.283  18.147  0.00  0.00    +0.000 HD
ENDBRANCH  24  25
ENDBRANCH  10  24
BRANCH  10  27
ATOM     27  C   UNL     1       0.545  10.863  19.546  0.00  0.00    +0.000 C 
BRANCH  27  28
ATOM     28  C   UNL     1       0.778   8.826  18.931  0.00  0.00    +0.000 C 
BRANCH  28  29
ATOM     29  C   UNL     1       2.066   7.795  18.263  0.00  0.00    +0.000 A 
ATOM     30  C   UNL     1       2.090   6.375  18.176  0.00  0.00    +0.000 A 
ATOM     31  C   UNL     1       3.254   5.674  17.921  0.00  0.00    +0.000 A 
ATOM     32  C   UNL     1       4.356   6.371  17.467  0.00  0.00    +0.000 A 
ATOM     33  C   UNL     1       4.239   7.732  17.203  0.00  0.00    +0.000 A 
ATOM     34  C   UNL     1       3.108   8.450  17.595  0.00  0.00    +0.000 A 
ENDBRANCH  28  29
ENDBRANCH  27  28
ENDBRANCH  10  27
TORSDOF 7
ENDMDL
MODEL 6
REMARK VINA RESULT:      -6.1      2.950      6.232
REMARK  Name = 
REMARK  9 active torsions:
REMARK  status: ('A' for Active; 'I' for Inactive)
REMARK    1  A    between atoms: C_1  and  O_2
REMARK    2  A    between atoms: O_2  and  C_3
REMARK    3  A    between atoms: C_11  and  O_12
REMARK    4  A    between atoms: C_13  and  C_14
REMARK    5  A    between atoms: C_13  and  C_16
REMARK    6  A    between atoms: C_14  and  O_15
REMARK    7  A    between atoms: C_16  and  C_17
REMARK    8  A    between atoms: C_17  and  C_18
REMARK    9  A    between atoms: N_28  and  C_29
REMARK                            x       y       z     vdW  Elec       q    Type
REMARK                         _______ _______ _______ _____ _____    ______ ____
ROOT
ATOM      1  C   UNL     1      -4.230  11.129  18.344  0.00  0.00    +0.000 A 
ATOM      2  C   UNL     1      -3.337  10.434  17.508  0.00  0.00    +0.000 A 
ATOM      3  C   UNL     1      -1.896  10.496  17.665  0.00  0.00    +0.000 A 
ATOM      4  C   UNL     1      -1.311  11.258  18.685  0.00  0.00    +0.000 A 
ATOM      5  C   UNL     1      -2.241  12.134  19.271  0.00  0.00    +0.000 A 
ATOM      6  C   UNL     1      -3.646  12.072  19.142  0.00  0.00    +0.000 A 
ATOM      7  O   UNL     1      -4.272  12.833  20.129  0.00  0.00    +0.000 OA
ATOM      8  C   UNL     1      -3.269  12.675  21.113  0.00  0.00    +0.000 C 
ATOM      9  C   UNL     1      -3.224  13.476  22.349  0.00  0.00    +0.000 C 
ATOM     10  C   UNL     1      -1.715  13.405  22.810  0.00  0.00    +0.000 C 
ATOM     11  C   UNL     1      -1.181  12.000  22.903  0.00  0.00    +0.000 C 
ATOM     12  C   UNL     1      -0.892  11.788  21.401  0.00  0.00    +0.000 C 
ATOM     13  C   UNL     1       0.653  11.924  20.909  0.00  0.00    +0.000 C 
ATOM     14  C   UNL     1       0.203  11.112  19.284  0.00  0.00    +0.000 C 
ATOM     15  N   UNL     1       1.502  13.588  21.144  0.00  0.00    +0.000 NA
ATOM     16  C   UNL     1       2.940  13.532  21.106  0.00  0.00    +0.000 C 
ATOM     17  C   UNL     1       0.530  15.243  20.852  0.00  0.00    +0.000 C 
ATOM     18  C   UNL     1      -1.411  14.900  20.280  0.00  0.00    +0.000 C 
ATOM     19  C   UNL     1      -1.938  12.978  20.456  0.00  0.00    +0.000 C 
ENDROOT
BRANCH   1  21
ATOM     20  C   UNL     1      -6.497  11.661  17.800  0.00  0.00    +0.000 C 
ATOM     21  O   UNL     1      -5.544  10.744  18.366  0.00  0.00    +0.000 OA
ENDBRANCH   1  21
BRANCH   9  22
ATOM     22  O   UNL     1      -3.715  14.789  22.096  0.00  0.00    +0.000 OA
ATOM     23  H   UNL     1      -3.245  15.114  21.297  0.00  0.00    +0.000 HD
ENDBRANCH   9  22
BRANCH  10  24
ATOM     24  C   UNL     1      -1.641  14.295  24.094  0.00  0.00    +0.000 C 
BRANCH  24  25
ATOM     25  O   UNL     1      -2.896  14.318  24.800  0.00  0.00    +0.000 OA
ATOM     26  H   UNL     1      -2.990  13.461  25.277  0.00  0.00    +0.000 HD
ENDBRANCH  24  25
ENDBRANCH  10  24
BRANCH  10  27
ATOM     27  C   UNL     1      -0.514  13.869  21.758  0.00  0.00    +0.000 C 
BRANCH  27  28
ATOM     28  C   UNL     1       1.129  15.231  21.597  0.00  0.00    +0.000 C 
BRANCH  28  29
ATOM     29  C   UNL     1       1.930  16.449  22.618  0.00  0.00    +0.000 A 
ATOM     30  C   UNL     1       3.256  16.953  22.498  0.00  0.00    +0.000 A 
ATOM     31  C   UNL     1       3.868  17.661  23.515  0.00  0.00    +0.000 A 
ATOM     32  C   UNL     1       3.087  18.128  24.554  0.00  0.00    +0.000 A 
ATOM     33  C   UNL     1       1.709  17.946  24.505  0.00  0.00    +0.000 A 
ATOM     34  C   UNL     1       1.123  17.113  23.550  0.00  0.00    +0.000 A 
ENDBRANCH  28  29
ENDBRANCH  27  28
ENDBRANCH  10  27
TORSDOF 7
ENDMDL
MODEL 7
REMARK VINA RESULT:      -6.0      3.249      5.323
REMARK  Name = 
REMARK  9 active torsions:
REMARK  status: ('A' for Active; 'I' for Inactive)
REMARK    1  A    between atoms: C_1  and  O_2
REMARK    2  A    between atoms: O_2  and  C_3
REMARK    3  A    between atoms: C_11  and  O_12
REMARK    4  A    between atoms: C_13  and  C_14
REMARK    5  A    between atoms: C_13  and  C_16
REMARK    6  A    between atoms: C_14  and  O_15
REMARK    7  A    between atoms: C_16  and  C_17
REMARK    8  A    between atoms: C_17  and  C_18
REMARK    9  A    between atoms: N_28  and  C_29
REMARK                            x       y       z     vdW  Elec       q    Type
REMARK                         _______ _______ _______ _____ _____    ______ ____
ROOT
ATOM      1  C   UNL     1      -0.461  16.984  25.947  0.00  0.00    +0.000 A 
ATOM      2  C   UNL     1       0.714  17.550  25.418  0.00  0.00    +0.000 A 
ATOM      3  C   UNL     1       1.154  17.326  24.054  0.00  0.00    +0.000 A 
ATOM      4  C   UNL     1       0.409  16.529  23.174  0.00  0.00    +0.000 A 
ATOM      5  C   UNL     1      -0.566  15.781  23.857  0.00  0.00    +0.000 A 
ATOM      6  C   UNL     1      -1.016  16.001  25.178  0.00  0.00    +0.000 A 
ATOM      7  O   UNL     1      -2.225  15.343  25.409  0.00  0.00    +0.000 OA
ATOM      8  C   UNL     1      -2.700  15.411  24.079  0.00  0.00    +0.000 C 
ATOM      9  C   UNL     1      -3.865  14.643  23.603  0.00  0.00    +0.000 C 
ATOM     10  C   UNL     1      -3.665  14.552  22.039  0.00  0.00    +0.000 C 
ATOM     11  C   UNL     1      -3.431  15.888  21.385  0.00  0.00    +0.000 C 
ATOM     12  C   UNL     1      -1.931  16.027  21.724  0.00  0.00    +0.000 C 
ATOM     13  C   UNL     1      -0.863  15.701  20.539  0.00  0.00    +0.000 C 
ATOM     14  C   UNL     1       0.491  16.516  21.542  0.00  0.00    +0.000 C 
ATOM     15  N   UNL     1      -0.850  13.956  19.830  0.00  0.00    +0.000 NA
ATOM     16  C   UNL     1      -0.225  13.846  18.537  0.00  0.00    +0.000 C 
ATOM     17  C   UNL     1      -1.098  12.417  20.986  0.00  0.00    +0.000 C 
ATOM     18  C   UNL     1      -1.343  12.966  22.948  0.00  0.00    +0.000 C 
ATOM     19  C   UNL     1      -1.581  14.940  23.173  0.00  0.00    +0.000 C 
ENDROOT
BRANCH   1  21
ATOM     20  C   UNL     1      -0.107  18.316  27.901  0.00  0.00    +0.000 C 
ATOM     21  O   UNL     1      -0.989  17.518  27.092  0.00  0.00    +0.000 OA
ENDBRANCH   1  21
BRANCH   9  22
ATOM     22  O   UNL     1      -3.928  13.389  24.276  0.00  0.00    +0.000 OA
ATOM     23  H   UNL     1      -3.038  13.234  24.662  0.00  0.00    +0.000 HD
ENDBRANCH   9  22
BRANCH  10  24
ATOM     24  C   UNL     1      -4.867  13.694  21.526  0.00  0.00    +0.000 C 
BRANCH  24  25
ATOM     25  O   UNL     1      -6.035  13.867  22.348  0.00  0.00    +0.000 OA
ATOM     26  H   UNL     1      -5.742  13.884  23.289  0.00  0.00    +0.000 HD
ENDBRANCH  24  25
ENDBRANCH  10  24
BRANCH  10  27
ATOM     27  C   UNL     1      -2.250  13.926  21.429  0.00  0.00    +0.000 C 
BRANCH  27  28
ATOM     28  C   UNL     1      -1.532  12.397  20.115  0.00  0.00    +0.000 C 
BRANCH  28  29
ATOM     29  C   UNL     1      -2.166  11.417  18.770  0.00  0.00    +0.000 A 
ATOM     30  C   UNL     1      -1.511  10.362  18.075  0.00  0.00    +0.000 A 
ATOM     31  C   UNL     1      -1.974   9.881  16.865  0.00  0.00    +0.000 A 
ATOM     32  C   UNL     1      -3.246  10.234  16.460  0.00  0.00    +0.000 A 
ATOM     33  C   UNL     1      -4.047  10.989  17.311  0.00  0.00    +0.000 A 
ATOM     34  C   UNL     1      -3.521  11.582  18.460  0.00  0.00    +0.000 A 
ENDBRANCH  28  29
ENDBRANCH  27  28
ENDBRANCH  10  27
TORSDOF 7
ENDMDL
MODEL 8
REMARK VINA RESULT:      -6.0      2.867      5.242
REMARK  Name = 
REMARK  9 active torsions:
REMARK  status: ('A' for Active; 'I' for Inactive)
REMARK    1  A    between atoms: C_1  and  O_2
REMARK    2  A    between atoms: O_2  and  C_3
REMARK    3  A    between atoms: C_11  and  O_12
REMARK    4  A    between atoms: C_13  and  C_14
REMARK    5  A    between atoms: C_13  and  C_16
REMARK    6  A    between atoms: C_14  and  O_15
REMARK    7  A    between atoms: C_16  and  C_17
REMARK    8  A    between atoms: C_17  and  C_18
REMARK    9  A    between atoms: N_28  and  C_29
REMARK                            x       y       z     vdW  Elec       q    Type
REMARK                         _______ _______ _______ _____ _____    ______ ____
ROOT
ATOM      1  C   UNL     1      -5.328  11.626  19.089  0.00  0.00    +0.000 A 
ATOM      2  C   UNL     1      -5.149  10.604  18.138  0.00  0.00    +0.000 A 
ATOM      3  C   UNL     1      -3.844  10.183  17.666  0.00  0.00    +0.000 A 
ATOM      4  C   UNL     1      -2.671  10.777  18.152  0.00  0.00    +0.000 A 
ATOM      5  C   UNL     1      -2.949  11.961  18.857  0.00  0.00    +0.000 A 
ATOM      6  C   UNL     1      -4.212  12.373  19.338  0.00  0.00    +0.000 A 
ATOM      7  O   UNL     1      -4.077  13.378  20.297  0.00  0.00    +0.000 OA
ATOM      8  C   UNL     1      -2.816  12.965  20.785  0.00  0.00    +0.000 C 
ATOM      9  C   UNL     1      -1.989  13.797  21.677  0.00  0.00    +0.000 C 
ATOM     10  C   UNL     1      -0.521  13.252  21.476  0.00  0.00    +0.000 C 
ATOM     11  C   UNL     1      -0.404  11.760  21.653  0.00  0.00    +0.000 C 
ATOM     12  C   UNL     1      -0.915  11.344  20.256  0.00  0.00    +0.000 C 
ATOM     13  C   UNL     1       0.198  10.905  19.153  0.00  0.00    +0.000 C 
ATOM     14  C   UNL     1      -1.155  10.171  18.088  0.00  0.00    +0.000 C 
ATOM     15  N   UNL     1       1.470  12.193  18.634  0.00  0.00    +0.000 NA
ATOM     16  C   UNL     1       2.651  11.646  18.018  0.00  0.00    +0.000 C 
ATOM     17  C   UNL     1       0.959  14.051  18.406  0.00  0.00    +0.000 C 
ATOM     18  C   UNL     1      -1.037  14.348  18.781  0.00  0.00    +0.000 C 
ATOM     19  C   UNL     1      -1.917  12.742  19.587  0.00  0.00    +0.000 C 
ENDROOT
BRANCH   1  21
ATOM     20  C   UNL     1      -7.513  12.595  19.163  0.00  0.00    +0.000 C 
ATOM     21  O   UNL     1      -6.530  11.716  19.738  0.00  0.00    +0.000 OA
ENDBRANCH   1  21
BRANCH   9  22
ATOM     22  O   UNL     1      -2.168  15.174  21.361  0.00  0.00    +0.000 OA
ATOM     23  H   UNL     1      -2.103  15.666  22.210  0.00  0.00    +0.000 HD
ENDBRANCH   9  22
BRANCH  10  24
ATOM     24  C   UNL     1       0.377  14.161  22.378  0.00  0.00    +0.000 C 
BRANCH  24  25
ATOM     25  O   UNL     1      -0.347  14.662  23.517  0.00  0.00    +0.000 OA
ATOM     26  H   UNL     1      -0.953  15.371  23.201  0.00  0.00    +0.000 HD
ENDBRANCH  24  25
ENDBRANCH  10  24
BRANCH  10  27
ATOM     27  C   UNL     1       0.129  13.192  19.946  0.00  0.00    +0.000 C 
BRANCH  27  28
ATOM     28  C   UNL     1       1.781  13.935  18.805  0.00  0.00    +0.000 C 
BRANCH  28  29
ATOM     29  C   UNL     1       3.173  15.014  19.059  0.00  0.00    +0.000 A 
ATOM     30  C   UNL     1       3.311  16.047  20.029  0.00  0.00    +0.000 A 
ATOM     31  C   UNL     1       4.298  17.011  19.940  0.00  0.00    +0.000 A 
ATOM     32  C   UNL     1       5.337  16.809  19.053  0.00  0.00    +0.000 A 
ATOM     33  C   UNL     1       5.404  15.615  18.343  0.00  0.00    +0.000 A 
ATOM     34  C   UNL     1       4.335  14.717  18.337  0.00  0.00    +0.000 A 
ENDBRANCH  28  29
ENDBRANCH  27  28
ENDBRANCH  10  27
TORSDOF 7
ENDMDL
MODEL 9
REMARK VINA RESULT:      -5.9      3.369      6.681
REMARK  Name = 
REMARK  9 active torsions:
REMARK  status: ('A' for Active; 'I' for Inactive)
REMARK    1  A    between atoms: C_1  and  O_2
REMARK    2  A    between atoms: O_2  and  C_3
REMARK    3  A    between atoms: C_11  and  O_12
REMARK    4  A    between atoms: C_13  and  C_14
REMARK    5  A    between atoms: C_13  and  C_16
REMARK    6  A    between atoms: C_14  and  O_15
REMARK    7  A    between atoms: C_16  and  C_17
REMARK    8  A    between atoms: C_17  and  C_18
REMARK    9  A    between atoms: N_28  and  C_29
REMARK                            x       y       z     vdW  Elec       q    Type
REMARK                         _______ _______ _______ _____ _____    ______ ____
ROOT
ATOM      1  C   UNL     1      -2.841  11.121  18.126  0.00  0.00    +0.000 A 
ATOM      2  C   UNL     1      -4.233  11.268  18.278  0.00  0.00    +0.000 A 
ATOM      3  C   UNL     1      -4.831  12.192  19.223  0.00  0.00    +0.000 A 
ATOM      4  C   UNL     1      -4.037  13.008  20.040  0.00  0.00    +0.000 A 
ATOM      5  C   UNL     1      -2.695  12.590  20.036  0.00  0.00    +0.000 A 
ATOM      6  C   UNL     1      -2.096  11.707  19.110  0.00  0.00    +0.000 A 
ATOM      7  O   UNL     1      -0.705  11.801  19.159  0.00  0.00    +0.000 OA
ATOM      8  C   UNL     1      -0.650  13.159  19.549  0.00  0.00    +0.000 C 
ATOM      9  C   UNL     1       0.585  13.808  20.023  0.00  0.00    +0.000 C 
ATOM     10  C   UNL     1       0.081  15.043  20.870  0.00  0.00    +0.000 C 
ATOM     11  C   UNL     1      -0.895  15.920  20.131  0.00  0.00    +0.000 C 
ATOM     12  C   UNL     1      -2.158  15.057  20.351  0.00  0.00    +0.000 C 
ATOM     13  C   UNL     1      -3.201  15.538  21.504  0.00  0.00    +0.000 C 
ATOM     14  C   UNL     1      -4.493  14.373  20.815  0.00  0.00    +0.000 C 
ATOM     15  N   UNL     1      -2.572  15.607  23.278  0.00  0.00    +0.000 NA
ATOM     16  C   UNL     1      -3.364  16.428  24.157  0.00  0.00    +0.000 C 
ATOM     17  C   UNL     1      -1.369  14.242  23.954  0.00  0.00    +0.000 C 
ATOM     18  C   UNL     1      -0.943  12.825  22.532  0.00  0.00    +0.000 C 
ATOM     19  C   UNL     1      -1.603  13.335  20.714  0.00  0.00    +0.000 C 
ENDROOT
BRANCH   1  21
ATOM     20  C   UNL     1      -2.933  10.942  15.743  0.00  0.00    +0.000 C 
ATOM     21  O   UNL     1      -2.364  10.516  16.994  0.00  0.00    +0.000 OA
ENDBRANCH   1  21
BRANCH   9  22
ATOM     22  O   UNL     1       1.383  12.872  20.741  0.00  0.00    +0.000 OA
ATOM     23  H   UNL     1       1.212  13.033  21.694  0.00  0.00    +0.000 HD
ENDBRANCH   9  22
BRANCH  10  24
ATOM     24  C   UNL     1       1.382  15.712  21.424  0.00  0.00    +0.000 C 
BRANCH  24  25
ATOM     25  O   UNL     1       1.968  14.939  22.487  0.00  0.00    +0.000 OA
ATOM     26  H   UNL     1       1.852  15.444  23.326  0.00  0.00    +0.000 HD
ENDBRANCH  24  25
ENDBRANCH  10  24
BRANCH  10  27
ATOM     27  C   UNL     1      -0.981  14.796  22.126  0.00  0.00    +0.000 C 
BRANCH  27  28
ATOM     28  C   UNL     1      -1.221  15.207  24.213  0.00  0.00    +0.000 C 
BRANCH  28  29
ATOM     29  C   UNL     1      -0.460  16.245  25.443  0.00  0.00    +0.000 A 
ATOM     30  C   UNL     1      -0.524  16.110  26.858  0.00  0.00    +0.000 A 
ATOM     31  C   UNL     1      -0.154  17.133  27.711  0.00  0.00    +0.000 A 
ATOM     32  C   UNL     1       0.551  18.201  27.191  0.00  0.00    +0.000 A 
ATOM     33  C   UNL     1       0.937  18.176  25.855  0.00  0.00    +0.000 A 
ATOM     34  C   UNL     1       0.440  17.211  24.977  0.00  0.00    +0.000 A 
ENDBRANCH  28  29
ENDBRANCH  27  28
ENDBRANCH  10  27
TORSDOF 7
ENDMDL
