MODEL 1
REMARK VINA RESULT:      -6.1      0.000      0.000
REMARK  Name = 
REMARK  3 active torsions:
REMARK  status: ('A' for Active; 'I' for Inactive)
REMARK    1  A    between atoms: C_2  and  O_3
REMARK    2  A    between atoms: C_2  and  C_4
REMARK    3  A    between atoms: C_6  and  C_7
REMARK                            x       y       z     vdW  Elec       q    Type
REMARK                         _______ _______ _______ _____ _____    ______ ____
ROOT
ATOM      1  C   UNL     1       6.320   4.015  13.559  0.00  0.00    +0.000 A 
ATOM      2  C   UNL     1       5.937   3.981  14.887  0.00  0.00    +0.000 A 
ATOM      3  C   UNL     1       6.739   4.950  15.526  0.00  0.00    +0.000 A 
ATOM      4  N   UNL     1       7.581   5.544  14.679  0.00  0.00    +0.000 NA
ATOM      5  N   UNL     1       7.333   4.939  13.507  0.00  0.00    +0.000 N 
ATOM      6  H   UNL     1       7.871   5.212  12.689  0.00  0.00    +0.000 HD
ENDROOT
BRANCH   3   7
ATOM      7  C   UNL     1       6.615   5.289  17.004  0.00  0.00    +0.000 C 
ATOM      8  C   UNL     1       7.693   4.671  17.940  0.00  0.00    +0.000 C 
ATOM      9  C   UNL     1       7.739   6.023  18.677  0.00  0.00    +0.000 C 
ATOM     10  C   UNL     1       7.255   6.664  17.367  0.00  0.00    +0.000 C 
ENDBRANCH   3   7
BRANCH   1  12
ATOM     11  O   UNL     1       4.780   3.406  11.889  0.00  0.00    +0.000 OA
ATOM     12  C   UNL     1       5.897   3.325  12.374  0.00  0.00    +0.000 C 
BRANCH  12  13
ATOM     13  O   UNL     1       6.863   2.537  11.846  0.00  0.00    +0.000 OA
ATOM     14  H   UNL     1       6.812   2.445  10.880  0.00  0.00    +0.000 HD
ENDBRANCH  12  13
ENDBRANCH   1  12
TORSDOF 3
ENDMDL
MODEL 2
REMARK VINA RESULT:      -6.1      5.510      6.496
REMARK  Name = 
REMARK  3 active torsions:
REMARK  status: ('A' for Active; 'I' for Inactive)
REMARK    1  A    between atoms: C_2  and  O_3
REMARK    2  A    between atoms: C_2  and  C_4
REMARK    3  A    between atoms: C_6  and  C_7
REMARK                            x       y       z     vdW  Elec       q    Type
REMARK                         _______ _______ _______ _____ _____    ______ ____
ROOT
ATOM      1  C   UNL     1       6.042   5.136  19.187  0.00  0.00    +0.000 A 
ATOM      2  C   UNL     1       4.750   5.613  19.309  0.00  0.00    +0.000 A 
ATOM      3  C   UNL     1       3.922   4.486  19.123  0.00  0.00    +0.000 A 
ATOM      4  N   UNL     1       4.627   3.379  18.883  0.00  0.00    +0.000 NA
ATOM      5  N   UNL     1       5.900   3.803  18.893  0.00  0.00    +0.000 N 
ATOM      6  H   UNL     1       6.643   3.133  18.715  0.00  0.00    +0.000 HD
ENDROOT
BRANCH   3   7
ATOM      7  C   UNL     1       2.406   4.541  19.226  0.00  0.00    +0.000 C 
ATOM      8  C   UNL     1       1.660   3.183  19.089  0.00  0.00    +0.000 C 
ATOM      9  C   UNL     1       0.739   3.643  20.234  0.00  0.00    +0.000 C 
ATOM     10  C   UNL     1       1.897   4.540  20.700  0.00  0.00    +0.000 C 
ENDBRANCH   3   7
BRANCH   1  12
ATOM     11  O   UNL     1       7.863   6.414  18.426  0.00  0.00    +0.000 OA
ATOM     12  C   UNL     1       7.345   5.728  19.292  0.00  0.00    +0.000 C 
BRANCH  12  13
ATOM     13  O   UNL     1       7.971   5.429  20.454  0.00  0.00    +0.000 OA
ATOM     14  H   UNL     1       8.298   4.516  20.502  0.00  0.00    +0.000 HD
ENDBRANCH  12  13
ENDBRANCH   1  12
TORSDOF 3
ENDMDL
MODEL 3
REMARK VINA RESULT:      -6.1      4.460      5.305
REMARK  Name = 
REMARK  3 active torsions:
REMARK  status: ('A' for Active; 'I' for Inactive)
REMARK    1  A    between atoms: C_2  and  O_3
REMARK    2  A    between atoms: C_2  and  C_4
REMARK    3  A    between atoms: C_6  and  C_7
REMARK                            x       y       z     vdW  Elec       q    Type
REMARK                         _______ _______ _______ _____ _____    ______ ____
ROOT
ATOM      1  C   UNL     1       5.769   4.454  17.265  0.00  0.00    +0.000 A 
ATOM      2  C   UNL     1       4.398   4.282  17.317  0.00  0.00    +0.000 A 
ATOM      3  C   UNL     1       4.133   3.821  18.624  0.00  0.00    +0.000 A 
ATOM      4  N   UNL     1       5.248   3.690  19.346  0.00  0.00    +0.000 NA
ATOM      5  N   UNL     1       6.223   4.045  18.494  0.00  0.00    +0.000 N 
ATOM      6  H   UNL     1       7.188   4.012  18.810  0.00  0.00    +0.000 HD
ENDROOT
BRANCH   3   7
ATOM      7  C   UNL     1       2.730   3.548  19.142  0.00  0.00    +0.000 C 
ATOM      8  C   UNL     1       1.567   3.822  18.146  0.00  0.00    +0.000 C 
ATOM      9  C   UNL     1       0.909   2.526  18.652  0.00  0.00    +0.000 C 
ATOM     10  C   UNL     1       2.321   2.048  19.025  0.00  0.00    +0.000 C 
ENDBRANCH   3   7
BRANCH   1  12
ATOM     11  O   UNL     1       7.831   4.520  16.137  0.00  0.00    +0.000 OA
ATOM     12  C   UNL     1       6.685   4.918  16.263  0.00  0.00    +0.000 C 
BRANCH  12  13
ATOM     13  O   UNL     1       6.159   5.880  15.469  0.00  0.00    +0.000 OA
ATOM     14  H   UNL     1       6.313   6.784  15.789  0.00  0.00    +0.000 HD
ENDBRANCH  12  13
ENDBRANCH   1  12
TORSDOF 3
ENDMDL
MODEL 4
REMARK VINA RESULT:      -6.0      4.657      5.291
REMARK  Name = 
REMARK  3 active torsions:
REMARK  status: ('A' for Active; 'I' for Inactive)
REMARK    1  A    between atoms: C_2  and  O_3
REMARK    2  A    between atoms: C_2  and  C_4
REMARK    3  A    between atoms: C_6  and  C_7
REMARK                            x       y       z     vdW  Elec       q    Type
REMARK                         _______ _______ _______ _____ _____    ______ ____
ROOT
ATOM      1  C   UNL     1       5.788   4.369  17.439  0.00  0.00    +0.000 A 
ATOM      2  C   UNL     1       4.440   4.629  17.276  0.00  0.00    +0.000 A 
ATOM      3  C   UNL     1       3.841   4.241  18.494  0.00  0.00    +0.000 A 
ATOM      4  N   UNL     1       4.731   3.753  19.359  0.00  0.00    +0.000 NA
ATOM      5  N   UNL     1       5.892   3.809  18.688  0.00  0.00    +0.000 N 
ATOM      6  H   UNL     1       6.738   3.471  19.139  0.00  0.00    +0.000 HD
ENDROOT
BRANCH   3   7
ATOM      7  C   UNL     1       2.356   4.403  18.779  0.00  0.00    +0.000 C 
ATOM      8  C   UNL     1       1.565   3.093  19.059  0.00  0.00    +0.000 C 
ATOM      9  C   UNL     1       0.825   3.850  20.176  0.00  0.00    +0.000 C 
ATOM     10  C   UNL     1       2.059   4.763  20.266  0.00  0.00    +0.000 C 
ENDBRANCH   3   7
BRANCH   1  12
ATOM     11  O   UNL     1       6.935   5.009  15.488  0.00  0.00    +0.000 OA
ATOM     12  C   UNL     1       6.952   4.552  16.620  0.00  0.00    +0.000 C 
BRANCH  12  13
ATOM     13  O   UNL     1       8.093   4.139  17.219  0.00  0.00    +0.000 OA
ATOM     14  H   UNL     1       7.953   3.490  17.928  0.00  0.00    +0.000 HD
ENDBRANCH  12  13
ENDBRANCH   1  12
TORSDOF 3
ENDMDL
MODEL 5
REMARK VINA RESULT:      -6.0      4.723      5.443
REMARK  Name = 
REMARK  3 active torsions:
REMARK  status: ('A' for Active; 'I' for Inactive)
REMARK    1  A    between atoms: C_2  and  O_3
REMARK    2  A    between atoms: C_2  and  C_4
REMARK    3  A    between atoms: C_6  and  C_7
REMARK                            x       y       z     vdW  Elec       q    Type
REMARK                         _______ _______ _______ _____ _____    ______ ____
ROOT
ATOM      1  C   UNL     1       5.739   4.408  17.380  0.00  0.00    +0.000 A 
ATOM      2  C   UNL     1       4.393   4.415  17.064  0.00  0.00    +0.000 A 
ATOM      3  C   UNL     1       3.746   3.873  18.196  0.00  0.00    +0.000 A 
ATOM      4  N   UNL     1       4.611   3.529  19.152  0.00  0.00    +0.000 NA
ATOM      5  N   UNL     1       5.807   3.830  18.623  0.00  0.00    +0.000 N 
ATOM      6  H   UNL     1       6.647   3.641  19.164  0.00  0.00    +0.000 HD
ENDROOT
BRANCH   3   7
ATOM      7  C   UNL     1       2.236   3.740  18.306  0.00  0.00    +0.000 C 
ATOM      8  C   UNL     1       1.697   2.325  18.664  0.00  0.00    +0.000 C 
ATOM      9  C   UNL     1       0.686   3.013  19.599  0.00  0.00    +0.000 C 
ATOM     10  C   UNL     1       1.688   4.173  19.701  0.00  0.00    +0.000 C 
ENDBRANCH   3   7
BRANCH   1  12
ATOM     11  O   UNL     1       8.043   4.382  16.910  0.00  0.00    +0.000 OA
ATOM     12  C   UNL     1       6.930   4.840  16.707  0.00  0.00    +0.000 C 
BRANCH  12  13
ATOM     13  O   UNL     1       6.706   5.840  15.823  0.00  0.00    +0.000 OA
ATOM     14  H   UNL     1       5.847   5.784  15.373  0.00  0.00    +0.000 HD
ENDBRANCH  12  13
ENDBRANCH   1  12
TORSDOF 3
ENDMDL
MODEL 6
REMARK VINA RESULT:      -6.0      4.623      5.398
REMARK  Name = 
REMARK  3 active torsions:
REMARK  status: ('A' for Active; 'I' for Inactive)
REMARK    1  A    between atoms: C_2  and  O_3
REMARK    2  A    between atoms: C_2  and  C_4
REMARK    3  A    between atoms: C_6  and  C_7
REMARK                            x       y       z     vdW  Elec       q    Type
REMARK                         _______ _______ _______ _____ _____    ______ ____
ROOT
ATOM      1  C   UNL     1       5.909   4.637  17.443  0.00  0.00    +0.000 A 
ATOM      2  C   UNL     1       4.788   4.002  16.943  0.00  0.00    +0.000 A 
ATOM      3  C   UNL     1       3.792   4.183  17.927  0.00  0.00    +0.000 A 
ATOM      4  N   UNL     1       4.246   4.864  18.981  0.00  0.00    +0.000 NA
ATOM      5  N   UNL     1       5.533   5.097  18.680  0.00  0.00    +0.000 N 
ATOM      6  H   UNL     1       6.112   5.598  19.349  0.00  0.00    +0.000 HD
ENDROOT
BRANCH   3   7
ATOM      7  C   UNL     1       2.364   3.685  17.768  0.00  0.00    +0.000 C 
ATOM      8  C   UNL     1       2.127   2.179  18.074  0.00  0.00    +0.000 C 
ATOM      9  C   UNL     1       0.825   2.591  18.785  0.00  0.00    +0.000 C 
ATOM     10  C   UNL     1       1.482   3.960  19.023  0.00  0.00    +0.000 C 
ENDBRANCH   3   7
BRANCH   1  12
ATOM     11  O   UNL     1       7.524   5.640  16.059  0.00  0.00    +0.000 OA
ATOM     12  C   UNL     1       7.239   4.859  16.953  0.00  0.00    +0.000 C 
BRANCH  12  13
ATOM     13  O   UNL     1       8.167   4.089  17.567  0.00  0.00    +0.000 OA
ATOM     14  H   UNL     1       7.808   3.528  18.274  0.00  0.00    +0.000 HD
ENDBRANCH  12  13
ENDBRANCH   1  12
TORSDOF 3
ENDMDL
MODEL 7
REMARK VINA RESULT:      -5.9      4.484      5.157
REMARK  Name = 
REMARK  3 active torsions:
REMARK  status: ('A' for Active; 'I' for Inactive)
REMARK    1  A    between atoms: C_2  and  O_3
REMARK    2  A    between atoms: C_2  and  C_4
REMARK    3  A    between atoms: C_6  and  C_7
REMARK                            x       y       z     vdW  Elec       q    Type
REMARK                         _______ _______ _______ _____ _____    ______ ____
ROOT
ATOM      1  C   UNL     1       5.779   4.760  17.175  0.00  0.00    +0.000 A 
ATOM      2  C   UNL     1       4.770   5.426  17.845  0.00  0.00    +0.000 A 
ATOM      3  C   UNL     1       3.694   4.514  17.892  0.00  0.00    +0.000 A 
ATOM      4  N   UNL     1       3.985   3.363  17.283  0.00  0.00    +0.000 NA
ATOM      5  N   UNL     1       5.235   3.548  16.830  0.00  0.00    +0.000 N 
ATOM      6  H   UNL     1       5.684   2.802  16.306  0.00  0.00    +0.000 HD
ENDROOT
BRANCH   3   7
ATOM      7  C   UNL     1       2.378   4.814  18.592  0.00  0.00    +0.000 C 
ATOM      8  C   UNL     1       1.390   3.620  18.735  0.00  0.00    +0.000 C 
ATOM      9  C   UNL     1       1.092   4.116  20.161  0.00  0.00    +0.000 C 
ATOM     10  C   UNL     1       2.490   4.756  20.146  0.00  0.00    +0.000 C 
ENDBRANCH   3   7
BRANCH   1  12
ATOM     11  O   UNL     1       7.459   6.098  16.217  0.00  0.00    +0.000 OA
ATOM     12  C   UNL     1       7.129   5.086  16.814  0.00  0.00    +0.000 C 
BRANCH  12  13
ATOM     13  O   UNL     1       8.020   4.136  17.181  0.00  0.00    +0.000 OA
ATOM     14  H   UNL     1       8.932   4.460  17.260  0.00  0.00    +0.000 HD
ENDBRANCH  12  13
ENDBRANCH   1  12
TORSDOF 3
ENDMDL
MODEL 8
REMARK VINA RESULT:      -5.9      4.756      5.548
REMARK  Name = 
REMARK  3 active torsions:
REMARK  status: ('A' for Active; 'I' for Inactive)
REMARK    1  A    between atoms: C_2  and  O_3
REMARK    2  A    between atoms: C_2  and  C_4
REMARK    3  A    between atoms: C_6  and  C_7
REMARK                            x       y       z     vdW  Elec       q    Type
REMARK                         _______ _______ _______ _____ _____    ______ ____
ROOT
ATOM      1  C   UNL     1       6.074   4.806  17.649  0.00  0.00    +0.000 A 
ATOM      2  C   UNL     1       4.910   4.365  17.046  0.00  0.00    +0.000 A 
ATOM      3  C   UNL     1       4.296   3.526  18.001  0.00  0.00    +0.000 A 
ATOM      4  N   UNL     1       5.018   3.424  19.118  0.00  0.00    +0.000 NA
ATOM      5  N   UNL     1       6.100   4.178  18.868  0.00  0.00    +0.000 N 
ATOM      6  H   UNL     1       6.825   4.249  19.578  0.00  0.00    +0.000 HD
ENDROOT
BRANCH   3   7
ATOM      7  C   UNL     1       2.950   2.856  17.776  0.00  0.00    +0.000 C 
ATOM      8  C   UNL     1       2.382   2.041  18.973  0.00  0.00    +0.000 C 
ATOM      9  C   UNL     1       1.000   2.632  18.641  0.00  0.00    +0.000 C 
ATOM     10  C   UNL     1       1.746   3.819  18.011  0.00  0.00    +0.000 C 
ENDBRANCH   3   7
BRANCH   1  12
ATOM     11  O   UNL     1       7.439   5.935  16.103  0.00  0.00    +0.000 OA
ATOM     12  C   UNL     1       7.132   5.693  17.258  0.00  0.00    +0.000 C 
BRANCH  12  13
ATOM     13  O   UNL     1       7.790   6.229  18.312  0.00  0.00    +0.000 OA
ATOM     14  H   UNL     1       8.702   5.908  18.412  0.00  0.00    +0.000 HD
ENDBRANCH  12  13
ENDBRANCH   1  12
TORSDOF 3
ENDMDL
MODEL 9
REMARK VINA RESULT:      -5.9      4.578      5.221
REMARK  Name = 
REMARK  3 active torsions:
REMARK  status: ('A' for Active; 'I' for Inactive)
REMARK    1  A    between atoms: C_2  and  O_3
REMARK    2  A    between atoms: C_2  and  C_4
REMARK    3  A    between atoms: C_6  and  C_7
REMARK                            x       y       z     vdW  Elec       q    Type
REMARK                         _______ _______ _______ _____ _____    ______ ____
ROOT
ATOM      1  C   UNL     1       5.993   4.816  17.715  0.00  0.00    +0.000 A 
ATOM      2  C   UNL     1       4.763   5.447  17.746  0.00  0.00    +0.000 A 
ATOM      3  C   UNL     1       4.029   4.775  18.747  0.00  0.00    +0.000 A 
ATOM      4  N   UNL     1       4.727   3.782  19.300  0.00  0.00    +0.000 NA
ATOM      5  N   UNL     1       5.895   3.806  18.638  0.00  0.00    +0.000 N 
ATOM      6  H   UNL     1       6.606   3.118  18.871  0.00  0.00    +0.000 HD
ENDROOT
BRANCH   3   7
ATOM      7  C   UNL     1       2.621   5.177  19.159  0.00  0.00    +0.000 C 
ATOM      8  C   UNL     1       2.229   4.882  20.635  0.00  0.00    +0.000 C 
ATOM      9  C   UNL     1       1.535   6.256  20.661  0.00  0.00    +0.000 C 
ATOM     10  C   UNL     1       2.510   6.682  19.553  0.00  0.00    +0.000 C 
ENDBRANCH   3   7
BRANCH   1  12
ATOM     11  O   UNL     1       7.362   5.883  16.130  0.00  0.00    +0.000 OA
ATOM     12  C   UNL     1       7.201   5.010  16.966  0.00  0.00    +0.000 C 
BRANCH  12  13
ATOM     13  O   UNL     1       8.158   4.100  17.261  0.00  0.00    +0.000 OA
ATOM     14  H   UNL     1       7.812   3.220  17.482  0.00  0.00    +0.000 HD
ENDBRANCH  12  13
ENDBRANCH   1  12
TORSDOF 3
ENDMDL
