MODEL 1
REMARK VINA RESULT:      -8.5      0.000      0.000
REMARK  Name = 
REMARK  5 active torsions:
REMARK  status: ('A' for Active; 'I' for Inactive)
REMARK    1  A    between atoms: C_1  and  C_2
REMARK    2  A    between atoms: C_2  and  C_3
REMARK    3  A    between atoms: C_2  and  C_4
REMARK    4  A    between atoms: C_2  and  C_15
REMARK    5  A    between atoms: C_4  and  N_5
REMARK                            x       y       z     vdW  Elec       q    Type
REMARK                         _______ _______ _______ _____ _____    ______ ____
ROOT
ATOM      1  N   UNL     1       4.048   4.163  17.349  0.00  0.00    +0.000 N 
ATOM      2  C   UNL     1       4.079   3.589  18.582  0.00  0.00    +0.000 A 
ATOM      3  N   UNL     1       5.142   3.035  19.179  0.00  0.00    +0.000 NA
ATOM      4  O   UNL     1       4.692   2.554  20.396  0.00  0.00    +0.000 OA
ATOM      5  C   UNL     1       3.365   2.811  20.524  0.00  0.00    +0.000 A 
ATOM      6  C   UNL     1       2.557   2.460  21.603  0.00  0.00    +0.000 A 
ATOM      7  C   UNL     1       1.209   2.820  21.512  0.00  0.00    +0.000 A 
ATOM      8  C   UNL     1       0.718   3.505  20.394  0.00  0.00    +0.000 A 
ATOM      9  C   UNL     1       1.561   3.846  19.327  0.00  0.00    +0.000 A 
ATOM     10  C   UNL     1       2.920   3.483  19.400  0.00  0.00    +0.000 A 
ATOM     11  H   UNL     1       3.124   4.311  16.958  0.00  0.00    +0.000 HD
ENDROOT
BRANCH   1  12
ATOM     12  C   UNL     1       5.017   3.721  16.343  0.00  0.00    +0.000 C 
BRANCH  12  14
ATOM     13  C   UNL     1       5.195   6.232  15.969  0.00  0.00    +0.000 C 
ATOM     14  C   UNL     1       5.939   4.879  15.843  0.00  0.00    +0.000 C 
ATOM     15  C   UNL     1       7.137   4.969  16.826  0.00  0.00    +0.000 C 
BRANCH  14  16
ATOM     16  C   UNL     1       6.411   4.604  14.396  0.00  0.00    +0.000 A 
ATOM     17  C   UNL     1       5.747   3.684  13.567  0.00  0.00    +0.000 A 
ATOM     18  C   UNL     1       6.153   3.468  12.245  0.00  0.00    +0.000 A 
ATOM     19  C   UNL     1       7.222   4.182  11.713  0.00  0.00    +0.000 A 
ATOM     20  C   UNL     1       7.888   5.108  12.507  0.00  0.00    +0.000 A 
ATOM     21  C   UNL     1       7.493   5.310  13.831  0.00  0.00    +0.000 A 
ENDBRANCH  14  16
ENDBRANCH  12  14
ENDBRANCH   1  12
TORSDOF 3
ENDMDL
MODEL 2
REMARK VINA RESULT:      -8.4      0.055      1.075
REMARK  Name = 
REMARK  5 active torsions:
REMARK  status: ('A' for Active; 'I' for Inactive)
REMARK    1  A    between atoms: C_1  and  C_2
REMARK    2  A    between atoms: C_2  and  C_3
REMARK    3  A    between atoms: C_2  and  C_4
REMARK    4  A    between atoms: C_2  and  C_15
REMARK    5  A    between atoms: C_4  and  N_5
REMARK                            x       y       z     vdW  Elec       q    Type
REMARK                         _______ _______ _______ _____ _____    ______ ____
ROOT
ATOM      1  N   UNL     1       4.080   4.203  17.376  0.00  0.00    +0.000 N 
ATOM      2  C   UNL     1       4.110   3.618  18.603  0.00  0.00    +0.000 A 
ATOM      3  N   UNL     1       5.172   3.058  19.196  0.00  0.00    +0.000 NA
ATOM      4  O   UNL     1       4.721   2.564  20.408  0.00  0.00    +0.000 OA
ATOM      5  C   UNL     1       3.394   2.820  20.537  0.00  0.00    +0.000 A 
ATOM      6  C   UNL     1       2.585   2.457  21.612  0.00  0.00    +0.000 A 
ATOM      7  C   UNL     1       1.236   2.818  21.522  0.00  0.00    +0.000 A 
ATOM      8  C   UNL     1       0.746   3.514  20.410  0.00  0.00    +0.000 A 
ATOM      9  C   UNL     1       1.591   3.866  19.348  0.00  0.00    +0.000 A 
ATOM     10  C   UNL     1       2.950   3.503  19.419  0.00  0.00    +0.000 A 
ATOM     11  H   UNL     1       3.157   4.355  16.986  0.00  0.00    +0.000 HD
ENDROOT
BRANCH   1  12
ATOM     12  C   UNL     1       5.050   3.772  16.367  0.00  0.00    +0.000 C 
BRANCH  12  14
ATOM     13  C   UNL     1       5.186   6.288  16.008  0.00  0.00    +0.000 C 
ATOM     14  C   UNL     1       5.941   4.945  15.845  0.00  0.00    +0.000 C 
ATOM     15  C   UNL     1       7.171   5.042  16.787  0.00  0.00    +0.000 C 
BRANCH  14  16
ATOM     16  C   UNL     1       6.366   4.687  14.381  0.00  0.00    +0.000 A 
ATOM     17  C   UNL     1       7.467   5.345  13.806  0.00  0.00    +0.000 A 
ATOM     18  C   UNL     1       7.872   5.078  12.493  0.00  0.00    +0.000 A 
ATOM     19  C   UNL     1       7.198   4.131  11.729  0.00  0.00    +0.000 A 
ATOM     20  C   UNL     1       6.114   3.457  12.277  0.00  0.00    +0.000 A 
ATOM     21  C   UNL     1       5.700   3.736  13.580  0.00  0.00    +0.000 A 
ENDBRANCH  14  16
ENDBRANCH  12  14
ENDBRANCH   1  12
TORSDOF 3
ENDMDL
MODEL 3
REMARK VINA RESULT:      -8.4      1.991      7.440
REMARK  Name = 
REMARK  5 active torsions:
REMARK  status: ('A' for Active; 'I' for Inactive)
REMARK    1  A    between atoms: C_1  and  C_2
REMARK    2  A    between atoms: C_2  and  C_3
REMARK    3  A    between atoms: C_2  and  C_4
REMARK    4  A    between atoms: C_2  and  C_15
REMARK    5  A    between atoms: C_4  and  N_5
REMARK                            x       y       z     vdW  Elec       q    Type
REMARK                         _______ _______ _______ _____ _____    ______ ____
ROOT
ATOM      1  N   UNL     1       5.570   3.576  16.755  0.00  0.00    +0.000 N 
ATOM      2  C   UNL     1       6.379   4.318  15.953  0.00  0.00    +0.000 A 
ATOM      3  N   UNL     1       7.171   5.329  16.333  0.00  0.00    +0.000 NA
ATOM      4  O   UNL     1       7.773   5.801  15.180  0.00  0.00    +0.000 OA
ATOM      5  C   UNL     1       7.339   5.081  14.113  0.00  0.00    +0.000 A 
ATOM      6  C   UNL     1       7.705   5.275  12.783  0.00  0.00    +0.000 A 
ATOM      7  C   UNL     1       7.119   4.416  11.847  0.00  0.00    +0.000 A 
ATOM      8  C   UNL     1       6.223   3.417  12.245  0.00  0.00    +0.000 A 
ATOM      9  C   UNL     1       5.880   3.248  13.594  0.00  0.00    +0.000 A 
ATOM     10  C   UNL     1       6.455   4.110  14.548  0.00  0.00    +0.000 A 
ATOM     11  H   UNL     1       4.868   3.022  16.276  0.00  0.00    +0.000 HD
ENDROOT
BRANCH   1  12
ATOM     12  C   UNL     1       5.060   4.176  17.990  0.00  0.00    +0.000 C 
BRANCH  12  14
ATOM     13  C   UNL     1       3.199   5.900  17.783  0.00  0.00    +0.000 C 
ATOM     14  C   UNL     1       3.513   4.394  17.963  0.00  0.00    +0.000 C 
ATOM     15  C   UNL     1       2.974   3.701  16.683  0.00  0.00    +0.000 C 
BRANCH  14  16
ATOM     16  C   UNL     1       2.866   3.810  19.240  0.00  0.00    +0.000 A 
ATOM     17  C   UNL     1       3.573   2.950  20.097  0.00  0.00    +0.000 A 
ATOM     18  C   UNL     1       2.996   2.456  21.273  0.00  0.00    +0.000 A 
ATOM     19  C   UNL     1       1.704   2.826  21.631  0.00  0.00    +0.000 A 
ATOM     20  C   UNL     1       0.987   3.685  20.809  0.00  0.00    +0.000 A 
ATOM     21  C   UNL     1       1.557   4.164  19.627  0.00  0.00    +0.000 A 
ENDBRANCH  14  16
ENDBRANCH  12  14
ENDBRANCH   1  12
TORSDOF 3
ENDMDL
MODEL 4
REMARK VINA RESULT:      -8.2      2.008      6.457
REMARK  Name = 
REMARK  5 active torsions:
REMARK  status: ('A' for Active; 'I' for Inactive)
REMARK    1  A    between atoms: C_1  and  C_2
REMARK    2  A    between atoms: C_2  and  C_3
REMARK    3  A    between atoms: C_2  and  C_4
REMARK    4  A    between atoms: C_2  and  C_15
REMARK    5  A    between atoms: C_4  and  N_5
REMARK                            x       y       z     vdW  Elec       q    Type
REMARK                         _______ _______ _______ _____ _____    ______ ____
ROOT
ATOM      1  N   UNL     1       4.346   2.815  18.967  0.00  0.00    +0.000 N 
ATOM      2  C   UNL     1       5.206   3.844  18.742  0.00  0.00    +0.000 A 
ATOM      3  N   UNL     1       5.707   4.681  19.659  0.00  0.00    +0.000 NA
ATOM      4  O   UNL     1       6.501   5.580  18.968  0.00  0.00    +0.000 OA
ATOM      5  C   UNL     1       6.469   5.288  17.643  0.00  0.00    +0.000 A 
ATOM      6  C   UNL     1       7.126   5.983  16.629  0.00  0.00    +0.000 A 
ATOM      7  C   UNL     1       6.937   5.505  15.328  0.00  0.00    +0.000 A 
ATOM      8  C   UNL     1       6.138   4.384  15.077  0.00  0.00    +0.000 A 
ATOM      9  C   UNL     1       5.494   3.707  16.123  0.00  0.00    +0.000 A 
ATOM     10  C   UNL     1       5.667   4.179  17.438  0.00  0.00    +0.000 A 
ATOM     11  H   UNL     1       3.884   2.443  18.143  0.00  0.00    +0.000 HD
ENDROOT
BRANCH   1  12
ATOM     12  C   UNL     1       3.452   2.884  20.125  0.00  0.00    +0.000 C 
BRANCH  12  14
ATOM     13  C   UNL     1       1.484   2.621  18.534  0.00  0.00    +0.000 C 
ATOM     14  C   UNL     1       2.025   3.401  19.758  0.00  0.00    +0.000 C 
ATOM     15  C   UNL     1       1.084   3.031  20.936  0.00  0.00    +0.000 C 
BRANCH  14  16
ATOM     16  C   UNL     1       2.052   4.928  19.512  0.00  0.00    +0.000 A 
ATOM     17  C   UNL     1       1.905   5.846  20.565  0.00  0.00    +0.000 A 
ATOM     18  C   UNL     1       1.971   7.227  20.344  0.00  0.00    +0.000 A 
ATOM     19  C   UNL     1       2.207   7.722  19.066  0.00  0.00    +0.000 A 
ATOM     20  C   UNL     1       2.371   6.836  18.009  0.00  0.00    +0.000 A 
ATOM     21  C   UNL     1       2.287   5.460  18.228  0.00  0.00    +0.000 A 
ENDBRANCH  14  16
ENDBRANCH  12  14
ENDBRANCH   1  12
TORSDOF 3
ENDMDL
MODEL 5
REMARK VINA RESULT:      -8.1      3.245      7.441
REMARK  Name = 
REMARK  5 active torsions:
REMARK  status: ('A' for Active; 'I' for Inactive)
REMARK    1  A    between atoms: C_1  and  C_2
REMARK    2  A    between atoms: C_2  and  C_3
REMARK    3  A    between atoms: C_2  and  C_4
REMARK    4  A    between atoms: C_2  and  C_15
REMARK    5  A    between atoms: C_4  and  N_5
REMARK                            x       y       z     vdW  Elec       q    Type
REMARK                         _______ _______ _______ _____ _____    ______ ____
ROOT
ATOM      1  N   UNL     1       4.787   5.143  16.369  0.00  0.00    +0.000 N 
ATOM      2  C   UNL     1       5.889   5.202  15.573  0.00  0.00    +0.000 A 
ATOM      3  N   UNL     1       7.016   5.882  15.818  0.00  0.00    +0.000 NA
ATOM      4  O   UNL     1       7.836   5.677  14.722  0.00  0.00    +0.000 OA
ATOM      5  C   UNL     1       7.199   4.884  13.821  0.00  0.00    +0.000 A 
ATOM      6  C   UNL     1       7.697   4.476  12.586  0.00  0.00    +0.000 A 
ATOM      7  C   UNL     1       6.855   3.667  11.815  0.00  0.00    +0.000 A 
ATOM      8  C   UNL     1       5.590   3.290  12.280  0.00  0.00    +0.000 A 
ATOM      9  C   UNL     1       5.123   3.717  13.532  0.00  0.00    +0.000 A 
ATOM     10  C   UNL     1       5.955   4.538  14.316  0.00  0.00    +0.000 A 
ATOM     11  H   UNL     1       3.946   4.789  15.926  0.00  0.00    +0.000 HD
ENDROOT
BRANCH   1  12
ATOM     12  C   UNL     1       4.513   6.260  17.276  0.00  0.00    +0.000 C 
BRANCH  12  14
ATOM     13  C   UNL     1       2.470   4.823  17.761  0.00  0.00    +0.000 C 
ATOM     14  C   UNL     1       3.397   5.932  18.319  0.00  0.00    +0.000 C 
ATOM     15  C   UNL     1       4.094   5.307  19.557  0.00  0.00    +0.000 C 
BRANCH  14  16
ATOM     16  C   UNL     1       2.617   7.214  18.693  0.00  0.00    +0.000 A 
ATOM     17  C   UNL     1       2.358   8.221  17.747  0.00  0.00    +0.000 A 
ATOM     18  C   UNL     1       1.617   9.360  18.080  0.00  0.00    +0.000 A 
ATOM     19  C   UNL     1       1.099   9.511  19.362  0.00  0.00    +0.000 A 
ATOM     20  C   UNL     1       1.329   8.525  20.313  0.00  0.00    +0.000 A 
ATOM     21  C   UNL     1       2.083   7.397  19.985  0.00  0.00    +0.000 A 
ENDBRANCH  14  16
ENDBRANCH  12  14
ENDBRANCH   1  12
TORSDOF 3
ENDMDL
MODEL 6
REMARK VINA RESULT:      -8.1      2.022      6.489
REMARK  Name = 
REMARK  5 active torsions:
REMARK  status: ('A' for Active; 'I' for Inactive)
REMARK    1  A    between atoms: C_1  and  C_2
REMARK    2  A    between atoms: C_2  and  C_3
REMARK    3  A    between atoms: C_2  and  C_4
REMARK    4  A    between atoms: C_2  and  C_15
REMARK    5  A    between atoms: C_4  and  N_5
REMARK                            x       y       z     vdW  Elec       q    Type
REMARK                         _______ _______ _______ _____ _____    ______ ____
ROOT
ATOM      1  N   UNL     1       4.241   2.771  18.721  0.00  0.00    +0.000 N 
ATOM      2  C   UNL     1       5.188   3.705  18.437  0.00  0.00    +0.000 A 
ATOM      3  N   UNL     1       5.838   4.476  19.317  0.00  0.00    +0.000 NA
ATOM      4  O   UNL     1       6.672   5.293  18.572  0.00  0.00    +0.000 OA
ATOM      5  C   UNL     1       6.515   5.017  17.251  0.00  0.00    +0.000 A 
ATOM      6  C   UNL     1       7.168   5.648  16.194  0.00  0.00    +0.000 A 
ATOM      7  C   UNL     1       6.838   5.204  14.909  0.00  0.00    +0.000 A 
ATOM      8  C   UNL     1       5.908   4.176  14.715  0.00  0.00    +0.000 A 
ATOM      9  C   UNL     1       5.273   3.561  15.804  0.00  0.00    +0.000 A 
ATOM     10  C   UNL     1       5.588   4.001  17.104  0.00  0.00    +0.000 A 
ATOM     11  H   UNL     1       3.685   2.457  17.932  0.00  0.00    +0.000 HD
ENDROOT
BRANCH   1  12
ATOM     12  C   UNL     1       3.445   2.923  19.940  0.00  0.00    +0.000 C 
BRANCH  12  14
ATOM     13  C   UNL     1       1.397   2.809  18.434  0.00  0.00    +0.000 C 
ATOM     14  C   UNL     1       2.023   3.511  19.665  0.00  0.00    +0.000 C 
ATOM     15  C   UNL     1       1.124   3.121  20.868  0.00  0.00    +0.000 C 
BRANCH  14  16
ATOM     16  C   UNL     1       2.101   5.045  19.486  0.00  0.00    +0.000 A 
ATOM     17  C   UNL     1       2.368   5.629  18.236  0.00  0.00    +0.000 A 
ATOM     18  C   UNL     1       2.397   7.018  18.072  0.00  0.00    +0.000 A 
ATOM     19  C   UNL     1       2.140   7.859  19.150  0.00  0.00    +0.000 A 
ATOM     20  C   UNL     1       1.860   7.308  20.394  0.00  0.00    +0.000 A 
ATOM     21  C   UNL     1       1.848   5.922  20.561  0.00  0.00    +0.000 A 
ENDBRANCH  14  16
ENDBRANCH  12  14
ENDBRANCH   1  12
TORSDOF 3
ENDMDL
MODEL 7
REMARK VINA RESULT:      -8.1      3.127      7.377
REMARK  Name = 
REMARK  5 active torsions:
REMARK  status: ('A' for Active; 'I' for Inactive)
REMARK    1  A    between atoms: C_1  and  C_2
REMARK    2  A    between atoms: C_2  and  C_3
REMARK    3  A    between atoms: C_2  and  C_4
REMARK    4  A    between atoms: C_2  and  C_15
REMARK    5  A    between atoms: C_4  and  N_5
REMARK                            x       y       z     vdW  Elec       q    Type
REMARK                         _______ _______ _______ _____ _____    ______ ____
ROOT
ATOM      1  N   UNL     1       4.892   4.912  16.516  0.00  0.00    +0.000 N 
ATOM      2  C   UNL     1       5.956   5.063  15.683  0.00  0.00    +0.000 A 
ATOM      3  N   UNL     1       7.056   5.790  15.916  0.00  0.00    +0.000 NA
ATOM      4  O   UNL     1       7.840   5.676  14.782  0.00  0.00    +0.000 OA
ATOM      5  C   UNL     1       7.209   4.892  13.870  0.00  0.00    +0.000 A 
ATOM      6  C   UNL     1       7.677   4.564  12.599  0.00  0.00    +0.000 A 
ATOM      7  C   UNL     1       6.847   3.746  11.825  0.00  0.00    +0.000 A 
ATOM      8  C   UNL     1       5.622   3.283  12.320  0.00  0.00    +0.000 A 
ATOM      9  C   UNL     1       5.185   3.630  13.606  0.00  0.00    +0.000 A 
ATOM     10  C   UNL     1       6.005   4.459  14.396  0.00  0.00    +0.000 A 
ATOM     11  H   UNL     1       4.052   4.534  16.090  0.00  0.00    +0.000 HD
ENDROOT
BRANCH   1  12
ATOM     12  C   UNL     1       4.598   5.972  17.483  0.00  0.00    +0.000 C 
BRANCH  12  14
ATOM     13  C   UNL     1       2.508   4.545  17.751  0.00  0.00    +0.000 C 
ATOM     14  C   UNL     1       3.400   5.619  18.422  0.00  0.00    +0.000 C 
ATOM     15  C   UNL     1       3.991   4.939  19.686  0.00  0.00    +0.000 C 
BRANCH  14  16
ATOM     16  C   UNL     1       2.606   6.896  18.784  0.00  0.00    +0.000 A 
ATOM     17  C   UNL     1       2.142   7.130  20.089  0.00  0.00    +0.000 A 
ATOM     18  C   UNL     1       1.459   8.306  20.420  0.00  0.00    +0.000 A 
ATOM     19  C   UNL     1       1.241   9.287  19.458  0.00  0.00    +0.000 A 
ATOM     20  C   UNL     1       1.702   9.087  18.163  0.00  0.00    +0.000 A 
ATOM     21  C   UNL     1       2.367   7.906  17.829  0.00  0.00    +0.000 A 
ENDBRANCH  14  16
ENDBRANCH  12  14
ENDBRANCH   1  12
TORSDOF 3
ENDMDL
MODEL 8
REMARK VINA RESULT:      -8.0      2.631      7.207
REMARK  Name = 
REMARK  5 active torsions:
REMARK  status: ('A' for Active; 'I' for Inactive)
REMARK    1  A    between atoms: C_1  and  C_2
REMARK    2  A    between atoms: C_2  and  C_3
REMARK    3  A    between atoms: C_2  and  C_4
REMARK    4  A    between atoms: C_2  and  C_15
REMARK    5  A    between atoms: C_4  and  N_5
REMARK                            x       y       z     vdW  Elec       q    Type
REMARK                         _______ _______ _______ _____ _____    ______ ____
ROOT
ATOM      1  N   UNL     1       5.586   3.850  16.688  0.00  0.00    +0.000 N 
ATOM      2  C   UNL     1       6.425   4.455  15.805  0.00  0.00    +0.000 A 
ATOM      3  N   UNL     1       7.328   5.404  16.082  0.00  0.00    +0.000 NA
ATOM      4  O   UNL     1       7.917   5.740  14.875  0.00  0.00    +0.000 OA
ATOM      5  C   UNL     1       7.364   5.001  13.879  0.00  0.00    +0.000 A 
ATOM      6  C   UNL     1       7.684   5.073  12.525  0.00  0.00    +0.000 A 
ATOM      7  C   UNL     1       6.972   4.219  11.674  0.00  0.00    +0.000 A 
ATOM      8  C   UNL     1       6.004   3.342  12.175  0.00  0.00    +0.000 A 
ATOM      9  C   UNL     1       5.711   3.294  13.546  0.00  0.00    +0.000 A 
ATOM     10  C   UNL     1       6.412   4.152  14.414  0.00  0.00    +0.000 A 
ATOM     11  H   UNL     1       4.812   3.340  16.277  0.00  0.00    +0.000 HD
ENDROOT
BRANCH   1  12
ATOM     12  C   UNL     1       5.197   4.575  17.900  0.00  0.00    +0.000 C 
BRANCH  12  14
ATOM     13  C   UNL     1       2.972   3.566  17.188  0.00  0.00    +0.000 C 
ATOM     14  C   UNL     1       3.729   4.272  18.340  0.00  0.00    +0.000 C 
ATOM     15  C   UNL     1       3.800   3.232  19.490  0.00  0.00    +0.000 C 
BRANCH  14  16
ATOM     16  C   UNL     1       3.025   5.572  18.793  0.00  0.00    +0.000 A 
ATOM     17  C   UNL     1       2.374   5.663  20.036  0.00  0.00    +0.000 A 
ATOM     18  C   UNL     1       1.773   6.854  20.459  0.00  0.00    +0.000 A 
ATOM     19  C   UNL     1       1.825   7.990  19.658  0.00  0.00    +0.000 A 
ATOM     20  C   UNL     1       2.474   7.932  18.431  0.00  0.00    +0.000 A 
ATOM     21  C   UNL     1       3.058   6.739  18.002  0.00  0.00    +0.000 A 
ENDBRANCH  14  16
ENDBRANCH  12  14
ENDBRANCH   1  12
TORSDOF 3
ENDMDL
MODEL 9
REMARK VINA RESULT:      -8.0      2.596      7.074
REMARK  Name = 
REMARK  5 active torsions:
REMARK  status: ('A' for Active; 'I' for Inactive)
REMARK    1  A    between atoms: C_1  and  C_2
REMARK    2  A    between atoms: C_2  and  C_3
REMARK    3  A    between atoms: C_2  and  C_4
REMARK    4  A    between atoms: C_2  and  C_15
REMARK    5  A    between atoms: C_4  and  N_5
REMARK                            x       y       z     vdW  Elec       q    Type
REMARK                         _______ _______ _______ _____ _____    ______ ____
ROOT
ATOM      1  N   UNL     1       5.552   3.672  16.838  0.00  0.00    +0.000 N 
ATOM      2  C   UNL     1       6.387   4.311  15.976  0.00  0.00    +0.000 A 
ATOM      3  N   UNL     1       7.306   5.233  16.289  0.00  0.00    +0.000 NA
ATOM      4  O   UNL     1       7.884   5.623  15.093  0.00  0.00    +0.000 OA
ATOM      5  C   UNL     1       7.308   4.944  14.068  0.00  0.00    +0.000 A 
ATOM      6  C   UNL     1       7.610   5.082  12.714  0.00  0.00    +0.000 A 
ATOM      7  C   UNL     1       6.876   4.283  11.831  0.00  0.00    +0.000 A 
ATOM      8  C   UNL     1       5.902   3.393  12.300  0.00  0.00    +0.000 A 
ATOM      9  C   UNL     1       5.627   3.278  13.670  0.00  0.00    +0.000 A 
ATOM     10  C   UNL     1       6.351   4.081  14.572  0.00  0.00    +0.000 A 
ATOM     11  H   UNL     1       4.765   3.194  16.412  0.00  0.00    +0.000 HD
ENDROOT
BRANCH   1  12
ATOM     12  C   UNL     1       5.189   4.339  18.091  0.00  0.00    +0.000 C 
BRANCH  12  14
ATOM     13  C   UNL     1       2.923   3.589  17.207  0.00  0.00    +0.000 C 
ATOM     14  C   UNL     1       3.656   4.279  18.385  0.00  0.00    +0.000 C 
ATOM     15  C   UNL     1       3.458   3.340  19.605  0.00  0.00    +0.000 C 
BRANCH  14  16
ATOM     16  C   UNL     1       3.106   5.697  18.665  0.00  0.00    +0.000 A 
ATOM     17  C   UNL     1       3.241   6.737  17.730  0.00  0.00    +0.000 A 
ATOM     18  C   UNL     1       2.707   8.008  17.971  0.00  0.00    +0.000 A 
ATOM     19  C   UNL     1       2.007   8.264  19.146  0.00  0.00    +0.000 A 
ATOM     20  C   UNL     1       1.847   7.251  20.081  0.00  0.00    +0.000 A 
ATOM     21  C   UNL     1       2.395   5.988  19.848  0.00  0.00    +0.000 A 
ENDBRANCH  14  16
ENDBRANCH  12  14
ENDBRANCH   1  12
TORSDOF 3
ENDMDL
