MODEL 1
REMARK VINA RESULT:      -7.9      0.000      0.000
REMARK  Name = 
REMARK  3 active torsions:
REMARK  status: ('A' for Active; 'I' for Inactive)
REMARK    1  A    between atoms: C_1  and  C_2
REMARK    2  A    between atoms: C_5  and  N_6
REMARK    3  A    between atoms: N_9  and  C_10
REMARK                            x       y       z     vdW  Elec       q    Type
REMARK                         _______ _______ _______ _____ _____    ______ ____
ROOT
ATOM      1  N   UNL     1       1.468   7.588  21.180  0.00  0.00    +0.000 N 
ATOM      2  C   UNL     1       2.228   7.370  20.046  0.00  0.00    +0.000 C 
ATOM      3  O   UNL     1       2.345   8.199  19.152  0.00  0.00    +0.000 OA
ATOM      4  N   UNL     1       2.828   6.123  20.015  0.00  0.00    +0.000 N 
ATOM      5  H   UNL     1       1.688   7.043  22.001  0.00  0.00    +0.000 HD
ATOM      6  H   UNL     1       2.434   5.416  20.619  0.00  0.00    +0.000 HD
ENDROOT
BRANCH   4   7
ATOM      7  C   UNL     1       3.646   5.678  18.938  0.00  0.00    +0.000 A 
ATOM      8  C   UNL     1       3.103   5.062  17.787  0.00  0.00    +0.000 A 
ATOM      9  C   UNL     1       3.912   4.505  16.797  0.00  0.00    +0.000 A 
ATOM     10  C   UNL     1       5.273   4.616  16.963  0.00  0.00    +0.000 A 
ATOM     11  C   UNL     1       5.837   5.265  18.043  0.00  0.00    +0.000 A 
ATOM     12  C   UNL     1       5.038   5.818  19.040  0.00  0.00    +0.000 A 
ATOM     13  C   UNL     1       7.307   5.197  17.912  0.00  0.00    +0.000 C 
ATOM     14  O   UNL     1       7.508   4.465  16.682  0.00  0.00    +0.000 OA
ATOM     15  C   UNL     1       6.326   4.101  16.100  0.00  0.00    +0.000 C 
ATOM     16  O   UNL     1       6.182   3.470  15.074  0.00  0.00    +0.000 OA
ENDBRANCH   4   7
BRANCH   1  21
ATOM     17  C   UNL     1      -1.798  12.247  22.024  0.00  0.00    +0.000 C 
ATOM     18  C   UNL     1      -0.942  11.036  21.802  0.00  0.00    +0.000 A 
ATOM     19  C   UNL     1      -0.594  10.653  20.510  0.00  0.00    +0.000 A 
ATOM     20  C   UNL     1       0.181   9.512  20.300  0.00  0.00    +0.000 A 
ATOM     21  C   UNL     1       0.649   8.737  21.369  0.00  0.00    +0.000 A 
ATOM     22  C   UNL     1       0.287   9.114  22.665  0.00  0.00    +0.000 A 
ATOM     23  C   UNL     1      -0.497  10.259  22.879  0.00  0.00    +0.000 A 
ENDBRANCH   1  21
TORSDOF 2
ENDMDL
MODEL 2
REMARK VINA RESULT:      -7.8      2.721      3.726
REMARK  Name = 
REMARK  3 active torsions:
REMARK  status: ('A' for Active; 'I' for Inactive)
REMARK    1  A    between atoms: C_1  and  C_2
REMARK    2  A    between atoms: C_5  and  N_6
REMARK    3  A    between atoms: N_9  and  C_10
REMARK                            x       y       z     vdW  Elec       q    Type
REMARK                         _______ _______ _______ _____ _____    ______ ____
ROOT
ATOM      1  N   UNL     1       0.851   9.971  21.968  0.00  0.00    +0.000 N 
ATOM      2  C   UNL     1       0.797   8.940  21.049  0.00  0.00    +0.000 C 
ATOM      3  O   UNL     1      -0.094   8.835  20.215  0.00  0.00    +0.000 OA
ATOM      4  N   UNL     1       1.836   8.034  21.174  0.00  0.00    +0.000 N 
ATOM      5  H   UNL     1       1.750  10.191  22.370  0.00  0.00    +0.000 HD
ATOM      6  H   UNL     1       2.327   8.027  22.057  0.00  0.00    +0.000 HD
ENDROOT
BRANCH   4   7
ATOM      7  C   UNL     1       1.975   6.887  20.342  0.00  0.00    +0.000 A 
ATOM      8  C   UNL     1       2.511   6.967  19.036  0.00  0.00    +0.000 A 
ATOM      9  C   UNL     1       2.520   5.870  18.175  0.00  0.00    +0.000 A 
ATOM     10  C   UNL     1       2.023   4.684  18.662  0.00  0.00    +0.000 A 
ATOM     11  C   UNL     1       1.549   4.555  19.952  0.00  0.00    +0.000 A 
ATOM     12  C   UNL     1       1.529   5.645  20.819  0.00  0.00    +0.000 A 
ATOM     13  C   UNL     1       1.092   3.163  20.144  0.00  0.00    +0.000 C 
ATOM     14  O   UNL     1       1.350   2.539  18.866  0.00  0.00    +0.000 OA
ATOM     15  C   UNL     1       1.893   3.413  17.966  0.00  0.00    +0.000 C 
ATOM     16  O   UNL     1       2.201   3.179  16.817  0.00  0.00    +0.000 OA
ENDBRANCH   4   7
BRANCH   1  21
ATOM     17  C   UNL     1      -3.308  13.910  22.502  0.00  0.00    +0.000 C 
ATOM     18  C   UNL     1      -2.228  12.879  22.361  0.00  0.00    +0.000 A 
ATOM     19  C   UNL     1      -2.211  11.764  23.194  0.00  0.00    +0.000 A 
ATOM     20  C   UNL     1      -1.193  10.817  23.082  0.00  0.00    +0.000 A 
ATOM     21  C   UNL     1      -0.179  10.942  22.122  0.00  0.00    +0.000 A 
ATOM     22  C   UNL     1      -0.188  12.068  21.296  0.00  0.00    +0.000 A 
ATOM     23  C   UNL     1      -1.209  13.026  21.411  0.00  0.00    +0.000 A 
ENDBRANCH   1  21
TORSDOF 2
ENDMDL
MODEL 3
REMARK VINA RESULT:      -7.8      2.693      3.582
REMARK  Name = 
REMARK  3 active torsions:
REMARK  status: ('A' for Active; 'I' for Inactive)
REMARK    1  A    between atoms: C_1  and  C_2
REMARK    2  A    between atoms: C_5  and  N_6
REMARK    3  A    between atoms: N_9  and  C_10
REMARK                            x       y       z     vdW  Elec       q    Type
REMARK                         _______ _______ _______ _____ _____    ______ ____
ROOT
ATOM      1  N   UNL     1       0.886   9.760  22.143  0.00  0.00    +0.000 N 
ATOM      2  C   UNL     1       0.859   8.798  21.150  0.00  0.00    +0.000 C 
ATOM      3  O   UNL     1       0.065   8.823  20.219  0.00  0.00    +0.000 OA
ATOM      4  N   UNL     1       1.805   7.801  21.322  0.00  0.00    +0.000 N 
ATOM      5  H   UNL     1       1.747   9.876  22.656  0.00  0.00    +0.000 HD
ATOM      6  H   UNL     1       2.188   7.696  22.250  0.00  0.00    +0.000 HD
ENDROOT
BRANCH   4   7
ATOM      7  C   UNL     1       1.950   6.703  20.428  0.00  0.00    +0.000 A 
ATOM      8  C   UNL     1       2.535   6.847  19.150  0.00  0.00    +0.000 A 
ATOM      9  C   UNL     1       2.554   5.803  18.225  0.00  0.00    +0.000 A 
ATOM     10  C   UNL     1       2.013   4.602  18.622  0.00  0.00    +0.000 A 
ATOM     11  C   UNL     1       1.489   4.408  19.885  0.00  0.00    +0.000 A 
ATOM     12  C   UNL     1       1.460   5.446  20.813  0.00  0.00    +0.000 A 
ATOM     13  C   UNL     1       0.996   3.019  19.976  0.00  0.00    +0.000 C 
ATOM     14  O   UNL     1       1.288   2.465  18.673  0.00  0.00    +0.000 OA
ATOM     15  C   UNL     1       1.883   3.378  17.847  0.00  0.00    +0.000 C 
ATOM     16  O   UNL     1       2.228   3.205  16.698  0.00  0.00    +0.000 OA
ENDBRANCH   4   7
BRANCH   1  21
ATOM     17  C   UNL     1      -3.021  13.948  22.681  0.00  0.00    +0.000 C 
ATOM     18  C   UNL     1      -1.998  12.860  22.543  0.00  0.00    +0.000 A 
ATOM     19  C   UNL     1      -0.933  13.008  21.659  0.00  0.00    +0.000 A 
ATOM     20  C   UNL     1       0.005  11.986  21.510  0.00  0.00    +0.000 A 
ATOM     21  C   UNL     1      -0.077  10.802  22.254  0.00  0.00    +0.000 A 
ATOM     22  C   UNL     1      -1.154  10.647  23.131  0.00  0.00    +0.000 A 
ATOM     23  C   UNL     1      -2.104  11.672  23.278  0.00  0.00    +0.000 A 
ENDBRANCH   1  21
TORSDOF 2
ENDMDL
MODEL 4
REMARK VINA RESULT:      -7.7      0.088      1.051
REMARK  Name = 
REMARK  3 active torsions:
REMARK  status: ('A' for Active; 'I' for Inactive)
REMARK    1  A    between atoms: C_1  and  C_2
REMARK    2  A    between atoms: C_5  and  N_6
REMARK    3  A    between atoms: N_9  and  C_10
REMARK                            x       y       z     vdW  Elec       q    Type
REMARK                         _______ _______ _______ _____ _____    ______ ____
ROOT
ATOM      1  N   UNL     1       1.421   7.586  21.242  0.00  0.00    +0.000 N 
ATOM      2  C   UNL     1       2.197   7.376  20.117  0.00  0.00    +0.000 C 
ATOM      3  O   UNL     1       2.349   8.222  19.245  0.00  0.00    +0.000 OA
ATOM      4  N   UNL     1       2.768   6.116  20.067  0.00  0.00    +0.000 N 
ATOM      5  H   UNL     1       1.613   7.017  22.054  0.00  0.00    +0.000 HD
ATOM      6  H   UNL     1       2.347   5.405  20.648  0.00  0.00    +0.000 HD
ENDROOT
BRANCH   4   7
ATOM      7  C   UNL     1       3.595   5.676  18.995  0.00  0.00    +0.000 A 
ATOM      8  C   UNL     1       3.059   5.098  17.822  0.00  0.00    +0.000 A 
ATOM      9  C   UNL     1       3.873   4.545  16.834  0.00  0.00    +0.000 A 
ATOM     10  C   UNL     1       5.233   4.622  17.025  0.00  0.00    +0.000 A 
ATOM     11  C   UNL     1       5.792   5.234  18.130  0.00  0.00    +0.000 A 
ATOM     12  C   UNL     1       4.988   5.783  19.125  0.00  0.00    +0.000 A 
ATOM     13  C   UNL     1       7.262   5.136  18.023  0.00  0.00    +0.000 C 
ATOM     14  O   UNL     1       7.468   4.427  16.781  0.00  0.00    +0.000 OA
ATOM     15  C   UNL     1       6.289   4.102  16.170  0.00  0.00    +0.000 C 
ATOM     16  O   UNL     1       6.150   3.498  15.128  0.00  0.00    +0.000 OA
ENDBRANCH   4   7
BRANCH   1  21
ATOM     17  C   UNL     1      -1.838  12.269  21.976  0.00  0.00    +0.000 C 
ATOM     18  C   UNL     1      -0.993  11.045  21.787  0.00  0.00    +0.000 A 
ATOM     19  C   UNL     1      -0.509  10.351  22.893  0.00  0.00    +0.000 A 
ATOM     20  C   UNL     1       0.299   9.227  22.719  0.00  0.00    +0.000 A 
ATOM     21  C   UNL     1       0.626   8.749  21.443  0.00  0.00    +0.000 A 
ATOM     22  C   UNL     1       0.153   9.455  20.334  0.00  0.00    +0.000 A 
ATOM     23  C   UNL     1      -0.656  10.590  20.505  0.00  0.00    +0.000 A 
ENDBRANCH   1  21
TORSDOF 2
ENDMDL
MODEL 5
REMARK VINA RESULT:      -7.6      2.312      8.674
REMARK  Name = 
REMARK  3 active torsions:
REMARK  status: ('A' for Active; 'I' for Inactive)
REMARK    1  A    between atoms: C_1  and  C_2
REMARK    2  A    between atoms: C_5  and  N_6
REMARK    3  A    between atoms: N_9  and  C_10
REMARK                            x       y       z     vdW  Elec       q    Type
REMARK                         _______ _______ _______ _____ _____    ______ ____
ROOT
ATOM      1  N   UNL     1       3.485   6.147  19.059  0.00  0.00    +0.000 N 
ATOM      2  C   UNL     1       2.552   7.166  19.033  0.00  0.00    +0.000 C 
ATOM      3  O   UNL     1       2.125   7.654  17.993  0.00  0.00    +0.000 OA
ATOM      4  N   UNL     1       2.161   7.589  20.292  0.00  0.00    +0.000 N 
ATOM      5  H   UNL     1       3.528   5.574  19.888  0.00  0.00    +0.000 HD
ATOM      6  H   UNL     1       2.776   7.357  21.058  0.00  0.00    +0.000 HD
ENDROOT
BRANCH   4   7
ATOM      7  C   UNL     1       1.219   8.635  20.506  0.00  0.00    +0.000 A 
ATOM      8  C   UNL     1       0.911   9.584  19.505  0.00  0.00    +0.000 A 
ATOM      9  C   UNL     1       0.093  10.685  19.760  0.00  0.00    +0.000 A 
ATOM     10  C   UNL     1      -0.443  10.791  21.022  0.00  0.00    +0.000 A 
ATOM     11  C   UNL     1      -0.214   9.848  22.005  0.00  0.00    +0.000 A 
ATOM     12  C   UNL     1       0.606   8.749  21.763  0.00  0.00    +0.000 A 
ATOM     13  C   UNL     1      -0.930  10.266  23.227  0.00  0.00    +0.000 C 
ATOM     14  O   UNL     1      -1.569  11.504  22.843  0.00  0.00    +0.000 OA
ATOM     15  C   UNL     1      -1.295  11.846  21.548  0.00  0.00    +0.000 C 
ATOM     16  O   UNL     1      -1.680  12.833  20.958  0.00  0.00    +0.000 OA
ENDBRANCH   4   7
BRANCH   1  21
ATOM     17  C   UNL     1       6.042   4.067  14.344  0.00  0.00    +0.000 C 
ATOM     18  C   UNL     1       5.372   4.612  15.570  0.00  0.00    +0.000 A 
ATOM     19  C   UNL     1       5.560   5.943  15.936  0.00  0.00    +0.000 A 
ATOM     20  C   UNL     1       4.958   6.445  17.090  0.00  0.00    +0.000 A 
ATOM     21  C   UNL     1       4.136   5.647  17.895  0.00  0.00    +0.000 A 
ATOM     22  C   UNL     1       3.959   4.308  17.535  0.00  0.00    +0.000 A 
ATOM     23  C   UNL     1       4.568   3.797  16.377  0.00  0.00    +0.000 A 
ENDBRANCH   1  21
TORSDOF 2
ENDMDL
MODEL 6
REMARK VINA RESULT:      -7.6      2.337      8.693
REMARK  Name = 
REMARK  3 active torsions:
REMARK  status: ('A' for Active; 'I' for Inactive)
REMARK    1  A    between atoms: C_1  and  C_2
REMARK    2  A    between atoms: C_5  and  N_6
REMARK    3  A    between atoms: N_9  and  C_10
REMARK                            x       y       z     vdW  Elec       q    Type
REMARK                         _______ _______ _______ _____ _____    ______ ____
ROOT
ATOM      1  N   UNL     1       3.479   6.153  19.002  0.00  0.00    +0.000 N 
ATOM      2  C   UNL     1       2.528   7.156  18.989  0.00  0.00    +0.000 C 
ATOM      3  O   UNL     1       2.053   7.612  17.957  0.00  0.00    +0.000 OA
ATOM      4  N   UNL     1       2.180   7.603  20.253  0.00  0.00    +0.000 N 
ATOM      5  H   UNL     1       3.563   5.600  19.842  0.00  0.00    +0.000 HD
ATOM      6  H   UNL     1       2.830   7.399  20.999  0.00  0.00    +0.000 HD
ENDROOT
BRANCH   4   7
ATOM      7  C   UNL     1       1.230   8.638  20.480  0.00  0.00    +0.000 A 
ATOM      8  C   UNL     1       0.898   9.584  19.483  0.00  0.00    +0.000 A 
ATOM      9  C   UNL     1       0.072  10.676  19.749  0.00  0.00    +0.000 A 
ATOM     10  C   UNL     1      -0.447  10.777  21.019  0.00  0.00    +0.000 A 
ATOM     11  C   UNL     1      -0.193   9.838  21.999  0.00  0.00    +0.000 A 
ATOM     12  C   UNL     1       0.636   8.748  21.746  0.00  0.00    +0.000 A 
ATOM     13  C   UNL     1      -0.895  10.249  23.232  0.00  0.00    +0.000 C 
ATOM     14  O   UNL     1      -1.553  11.480  22.857  0.00  0.00    +0.000 OA
ATOM     15  C   UNL     1      -1.302  11.823  21.557  0.00  0.00    +0.000 C 
ATOM     16  O   UNL     1      -1.706  12.805  20.971  0.00  0.00    +0.000 OA
ENDBRANCH   4   7
BRANCH   1  21
ATOM     17  C   UNL     1       6.018   4.125  14.255  0.00  0.00    +0.000 C 
ATOM     18  C   UNL     1       5.360   4.650  15.495  0.00  0.00    +0.000 A 
ATOM     19  C   UNL     1       4.647   3.791  16.327  0.00  0.00    +0.000 A 
ATOM     20  C   UNL     1       4.012   4.283  17.468  0.00  0.00    +0.000 A 
ATOM     21  C   UNL     1       4.091   5.635  17.825  0.00  0.00    +0.000 A 
ATOM     22  C   UNL     1       4.795   6.500  16.983  0.00  0.00    +0.000 A 
ATOM     23  C   UNL     1       5.430   6.009  15.830  0.00  0.00    +0.000 A 
ENDBRANCH   1  21
TORSDOF 2
ENDMDL
MODEL 7
REMARK VINA RESULT:      -7.5      6.848      9.615
REMARK  Name = 
REMARK  3 active torsions:
REMARK  status: ('A' for Active; 'I' for Inactive)
REMARK    1  A    between atoms: C_1  and  C_2
REMARK    2  A    between atoms: C_5  and  N_6
REMARK    3  A    between atoms: N_9  and  C_10
REMARK                            x       y       z     vdW  Elec       q    Type
REMARK                         _______ _______ _______ _____ _____    ______ ____
ROOT
ATOM      1  N   UNL     1       8.442   7.765  18.885  0.00  0.00    +0.000 N 
ATOM      2  C   UNL     1       8.558   9.096  18.529  0.00  0.00    +0.000 C 
ATOM      3  O   UNL     1       7.888   9.610  17.642  0.00  0.00    +0.000 OA
ATOM      4  N   UNL     1       9.513   9.782  19.260  0.00  0.00    +0.000 N 
ATOM      5  H   UNL     1       8.745   7.502  19.811  0.00  0.00    +0.000 HD
ATOM      6  H   UNL     1      10.210   9.222  19.731  0.00  0.00    +0.000 HD
ENDROOT
BRANCH   4   7
ATOM      7  C   UNL     1       9.812  11.158  19.056  0.00  0.00    +0.000 A 
ATOM      8  C   UNL     1       9.313  12.169  19.908  0.00  0.00    +0.000 A 
ATOM      9  C   UNL     1       9.493  13.524  19.630  0.00  0.00    +0.000 A 
ATOM     10  C   UNL     1      10.217  13.843  18.505  0.00  0.00    +0.000 A 
ATOM     11  C   UNL     1      10.771  12.881  17.684  0.00  0.00    +0.000 A 
ATOM     12  C   UNL     1      10.592  11.526  17.949  0.00  0.00    +0.000 A 
ATOM     13  C   UNL     1      11.473  13.562  16.576  0.00  0.00    +0.000 C 
ATOM     14  O   UNL     1      11.265  14.966  16.851  0.00  0.00    +0.000 OA
ATOM     15  C   UNL     1      10.520  15.165  17.979  0.00  0.00    +0.000 C 
ATOM     16  O   UNL     1      10.176  16.230  18.447  0.00  0.00    +0.000 OA
ENDBRANCH   4   7
BRANCH   1  21
ATOM     17  C   UNL     1       5.158   3.937  16.118  0.00  0.00    +0.000 C 
ATOM     18  C   UNL     1       6.009   4.937  16.842  0.00  0.00    +0.000 A 
ATOM     19  C   UNL     1       5.861   6.298  16.587  0.00  0.00    +0.000 A 
ATOM     20  C   UNL     1       6.670   7.228  17.240  0.00  0.00    +0.000 A 
ATOM     21  C   UNL     1       7.628   6.832  18.182  0.00  0.00    +0.000 A 
ATOM     22  C   UNL     1       7.786   5.465  18.428  0.00  0.00    +0.000 A 
ATOM     23  C   UNL     1       6.978   4.526  17.767  0.00  0.00    +0.000 A 
ENDBRANCH   1  21
TORSDOF 2
ENDMDL
MODEL 8
REMARK VINA RESULT:      -7.5      6.809      9.636
REMARK  Name = 
REMARK  3 active torsions:
REMARK  status: ('A' for Active; 'I' for Inactive)
REMARK    1  A    between atoms: C_1  and  C_2
REMARK    2  A    between atoms: C_5  and  N_6
REMARK    3  A    between atoms: N_9  and  C_10
REMARK                            x       y       z     vdW  Elec       q    Type
REMARK                         _______ _______ _______ _____ _____    ______ ____
ROOT
ATOM      1  N   UNL     1       8.431   7.720  18.889  0.00  0.00    +0.000 N 
ATOM      2  C   UNL     1       8.543   9.049  18.524  0.00  0.00    +0.000 C 
ATOM      3  O   UNL     1       7.883   9.552  17.624  0.00  0.00    +0.000 OA
ATOM      4  N   UNL     1       9.483   9.746  19.264  0.00  0.00    +0.000 N 
ATOM      5  H   UNL     1       8.722   7.465  19.821  0.00  0.00    +0.000 HD
ATOM      6  H   UNL     1      10.176   9.195  19.750  0.00  0.00    +0.000 HD
ENDROOT
BRANCH   4   7
ATOM      7  C   UNL     1       9.774  11.124  19.054  0.00  0.00    +0.000 A 
ATOM      8  C   UNL     1       9.256  12.137  19.892  0.00  0.00    +0.000 A 
ATOM      9  C   UNL     1       9.431  13.491  19.605  0.00  0.00    +0.000 A 
ATOM     10  C   UNL     1      10.170  13.807  18.489  0.00  0.00    +0.000 A 
ATOM     11  C   UNL     1      10.742  12.843  17.684  0.00  0.00    +0.000 A 
ATOM     12  C   UNL     1      10.569  11.489  17.957  0.00  0.00    +0.000 A 
ATOM     13  C   UNL     1      11.457  13.521  16.582  0.00  0.00    +0.000 C 
ATOM     14  O   UNL     1      11.235  14.925  16.843  0.00  0.00    +0.000 OA
ATOM     15  C   UNL     1      10.471  15.128  17.959  0.00  0.00    +0.000 C 
ATOM     16  O   UNL     1      10.112  16.194  18.413  0.00  0.00    +0.000 OA
ENDBRANCH   4   7
BRANCH   1  21
ATOM     17  C   UNL     1       5.207   3.963  15.958  0.00  0.00    +0.000 C 
ATOM     18  C   UNL     1       6.052   4.941  16.719  0.00  0.00    +0.000 A 
ATOM     19  C   UNL     1       7.022   4.484  17.607  0.00  0.00    +0.000 A 
ATOM     20  C   UNL     1       7.792   5.392  18.335  0.00  0.00    +0.000 A 
ATOM     21  C   UNL     1       7.635   6.775  18.181  0.00  0.00    +0.000 A 
ATOM     22  C   UNL     1       6.651   7.233  17.300  0.00  0.00    +0.000 A 
ATOM     23  C   UNL     1       5.871   6.322  16.570  0.00  0.00    +0.000 A 
ENDBRANCH   1  21
TORSDOF 2
ENDMDL
MODEL 9
REMARK VINA RESULT:      -7.5      1.904      2.809
REMARK  Name = 
REMARK  3 active torsions:
REMARK  status: ('A' for Active; 'I' for Inactive)
REMARK    1  A    between atoms: C_1  and  C_2
REMARK    2  A    between atoms: C_5  and  N_6
REMARK    3  A    between atoms: N_9  and  C_10
REMARK                            x       y       z     vdW  Elec       q    Type
REMARK                         _______ _______ _______ _____ _____    ______ ____
ROOT
ATOM      1  N   UNL     1       1.079   9.540  21.998  0.00  0.00    +0.000 N 
ATOM      2  C   UNL     1       1.018   8.590  20.996  0.00  0.00    +0.000 C 
ATOM      3  O   UNL     1       0.228   8.654  20.062  0.00  0.00    +0.000 OA
ATOM      4  N   UNL     1       1.923   7.555  21.160  0.00  0.00    +0.000 N 
ATOM      5  H   UNL     1       1.942   9.618  22.515  0.00  0.00    +0.000 HD
ATOM      6  H   UNL     1       2.298   7.426  22.089  0.00  0.00    +0.000 HD
ENDROOT
BRANCH   4   7
ATOM      7  C   UNL     1       2.028   6.460  20.257  0.00  0.00    +0.000 A 
ATOM      8  C   UNL     1       1.309   5.259  20.445  0.00  0.00    +0.000 A 
ATOM      9  C   UNL     1       1.516   4.141  19.637  0.00  0.00    +0.000 A 
ATOM     10  C   UNL     1       2.426   4.265  18.613  0.00  0.00    +0.000 A 
ATOM     11  C   UNL     1       3.100   5.443  18.362  0.00  0.00    +0.000 A 
ATOM     12  C   UNL     1       2.906   6.563  19.166  0.00  0.00    +0.000 A 
ATOM     13  C   UNL     1       3.993   5.232  17.204  0.00  0.00    +0.000 C 
ATOM     14  O   UNL     1       3.758   3.853  16.838  0.00  0.00    +0.000 OA
ATOM     15  C   UNL     1       2.842   3.252  17.656  0.00  0.00    +0.000 C 
ATOM     16  O   UNL     1       2.458   2.103  17.599  0.00  0.00    +0.000 OA
ENDBRANCH   4   7
BRANCH   1  21
ATOM     17  C   UNL     1      -2.664  13.872  22.566  0.00  0.00    +0.000 C 
ATOM     18  C   UNL     1      -1.684  12.746  22.420  0.00  0.00    +0.000 A 
ATOM     19  C   UNL     1      -0.617  12.857  21.532  0.00  0.00    +0.000 A 
ATOM     20  C   UNL     1       0.280  11.800  21.376  0.00  0.00    +0.000 A 
ATOM     21  C   UNL     1       0.156  10.618  22.117  0.00  0.00    +0.000 A 
ATOM     22  C   UNL     1      -0.923  10.501  22.997  0.00  0.00    +0.000 A 
ATOM     23  C   UNL     1      -1.832  11.561  23.152  0.00  0.00    +0.000 A 
ENDBRANCH   1  21
TORSDOF 2
ENDMDL
