MODEL 1
REMARK VINA RESULT:      -9.8      0.000      0.000
REMARK  Name = 
REMARK  8 active torsions:
REMARK  status: ('A' for Active; 'I' for Inactive)
REMARK    1  A    between atoms: C_1  and  C_2
REMARK    2  A    between atoms: C_4  and  C_5
REMARK    3  A    between atoms: C_7  and  N_8
REMARK    4  A    between atoms: N_10  and  C_11
REMARK    5  A    between atoms: C_11  and  C_12
REMARK    6  A    between atoms: C_12  and  C_13
REMARK    7  A    between atoms: N_25  and  C_26
REMARK    8  A    between atoms: C_30  and  N_31
REMARK                            x       y       z     vdW  Elec       q    Type
REMARK                         _______ _______ _______ _____ _____    ______ ____
ROOT
ATOM      1  N   UNL     1       2.565   6.086  18.852  0.00  0.00    +0.000 NA
ATOM      2  C   UNL     1       3.532   6.558  18.158  0.00  0.00    +0.000 C 
ATOM      3  N   UNL     1       4.739   5.998  17.808  0.00  0.00    +0.000 N 
ATOM      4  N   UNL     1       3.319   7.834  17.657  0.00  0.00    +0.000 N 
ATOM      5  C   UNL     1       2.359   8.792  17.917  0.00  0.00    +0.000 C 
ATOM      6  O   UNL     1       2.243   9.717  17.116  0.00  0.00    +0.000 OA
ATOM      7  N   UNL     1       1.704   8.653  19.115  0.00  0.00    +0.000 N 
ATOM      8  H   UNL     1       4.925   5.144  18.339  0.00  0.00    +0.000 HD
ATOM      9  H   UNL     1       3.848   8.068  16.832  0.00  0.00    +0.000 HD
ATOM     10  H   UNL     1       1.948   7.808  19.627  0.00  0.00    +0.000 HD
ENDROOT
BRANCH   1  17
ATOM     11  C   UNL     1       3.535   1.614  17.856  0.00  0.00    +0.000 C 
ATOM     12  C   UNL     1       2.893   2.596  18.785  0.00  0.00    +0.000 A 
ATOM     13  C   UNL     1       2.387   2.181  19.990  0.00  0.00    +0.000 A 
ATOM     14  C   UNL     1       1.896   3.168  20.828  0.00  0.00    +0.000 A 
ATOM     15  C   UNL     1       1.274   2.726  22.120  0.00  0.00    +0.000 C 
ATOM     16  N   UNL     1       1.894   4.488  20.508  0.00  0.00    +0.000 NA
ATOM     17  C   UNL     1       2.407   4.784  19.304  0.00  0.00    +0.000 A 
ATOM     18  N   UNL     1       2.898   3.890  18.427  0.00  0.00    +0.000 NA
ENDBRANCH   1  17
BRANCH   7  19
ATOM     19  C   UNL     1       0.783   9.546  19.693  0.00  0.00    +0.000 A 
ATOM     20  C   UNL     1       0.123  10.533  18.953  0.00  0.00    +0.000 A 
ATOM     21  C   UNL     1      -0.776  11.412  19.561  0.00  0.00    +0.000 A 
ATOM     22  C   UNL     1      -1.017  11.325  20.929  0.00  0.00    +0.000 A 
ATOM     23  C   UNL     1      -0.359  10.342  21.679  0.00  0.00    +0.000 A 
ATOM     24  C   UNL     1       0.528   9.441  21.066  0.00  0.00    +0.000 A 
BRANCH  23  25
ATOM     25  N   UNL     1      -0.594  10.276  23.128  0.00  0.00    +0.000 N 
ATOM     26  O   UNL     1      -1.644  10.764  23.569  0.00  0.00    +0.000 OA
ATOM     27  O   UNL     1       0.281   9.748  23.831  0.00  0.00    +0.000 OA
ENDBRANCH  23  25
ENDBRANCH   7  19
BRANCH   3  28
ATOM     28  C   UNL     1       5.919   6.841  17.547  0.00  0.00    +0.000 C 
BRANCH  28  29
ATOM     29  C   UNL     1       7.124   6.101  16.960  0.00  0.00    +0.000 C 
BRANCH  29  30
ATOM     30  C   UNL     1       6.719   4.976  16.064  0.00  0.00    +0.000 A 
ATOM     31  C   UNL     1       6.030   3.832  16.420  0.00  0.00    +0.000 A 
ATOM     32  N   UNL     1       5.748   3.131  15.278  0.00  0.00    +0.000 N 
ATOM     33  C   UNL     1       6.319   3.748  14.190  0.00  0.00    +0.000 A 
ATOM     34  C   UNL     1       6.301   3.396  12.837  0.00  0.00    +0.000 A 
ATOM     35  C   UNL     1       7.060   4.172  11.960  0.00  0.00    +0.000 A 
ATOM     36  C   UNL     1       7.797   5.258  12.422  0.00  0.00    +0.000 A 
ATOM     37  C   UNL     1       7.727   5.654  13.760  0.00  0.00    +0.000 A 
ATOM     38  C   UNL     1       6.986   4.876  14.666  0.00  0.00    +0.000 A 
ATOM     39  H   UNL     1       5.222   2.269  15.234  0.00  0.00    +0.000 HD
ENDBRANCH  29  30
ENDBRANCH  28  29
ENDBRANCH   3  28
TORSDOF 6
ENDMDL
MODEL 2
REMARK VINA RESULT:      -9.7      3.414      6.787
REMARK  Name = 
REMARK  8 active torsions:
REMARK  status: ('A' for Active; 'I' for Inactive)
REMARK    1  A    between atoms: C_1  and  C_2
REMARK    2  A    between atoms: C_4  and  C_5
REMARK    3  A    between atoms: C_7  and  N_8
REMARK    4  A    between atoms: N_10  and  C_11
REMARK    5  A    between atoms: C_11  and  C_12
REMARK    6  A    between atoms: C_12  and  C_13
REMARK    7  A    between atoms: N_25  and  C_26
REMARK    8  A    between atoms: C_30  and  N_31
REMARK                            x       y       z     vdW  Elec       q    Type
REMARK                         _______ _______ _______ _____ _____    ______ ____
ROOT
ATOM      1  N   UNL     1      -1.337  11.323  18.716  0.00  0.00    +0.000 NA
ATOM      2  C   UNL     1      -0.163  10.819  18.812  0.00  0.00    +0.000 C 
ATOM      3  N   UNL     1       0.451   9.834  18.075  0.00  0.00    +0.000 N 
ATOM      4  N   UNL     1       0.627  11.375  19.809  0.00  0.00    +0.000 N 
ATOM      5  C   UNL     1       0.344  12.225  20.860  0.00  0.00    +0.000 C 
ATOM      6  O   UNL     1       1.289  12.786  21.410  0.00  0.00    +0.000 OA
ATOM      7  N   UNL     1      -0.973  12.266  21.241  0.00  0.00    +0.000 N 
ATOM      8  H   UNL     1      -0.217   9.337  17.481  0.00  0.00    +0.000 HD
ATOM      9  H   UNL     1       1.620  11.292  19.667  0.00  0.00    +0.000 HD
ATOM     10  H   UNL     1      -1.597  11.728  20.644  0.00  0.00    +0.000 HD
ENDROOT
BRANCH   1  17
ATOM     11  C   UNL     1      -5.730  12.254  17.387  0.00  0.00    +0.000 C 
ATOM     12  C   UNL     1      -4.427  11.584  17.081  0.00  0.00    +0.000 A 
ATOM     13  C   UNL     1      -4.217  11.007  15.855  0.00  0.00    +0.000 A 
ATOM     14  C   UNL     1      -2.952  10.492  15.623  0.00  0.00    +0.000 A 
ATOM     15  C   UNL     1      -2.725   9.793  14.315  0.00  0.00    +0.000 C 
ATOM     16  N   UNL     1      -1.948  10.533  16.536  0.00  0.00    +0.000 NA
ATOM     17  C   UNL     1      -2.263  11.116  17.704  0.00  0.00    +0.000 A 
ATOM     18  N   UNL     1      -3.465  11.634  18.015  0.00  0.00    +0.000 NA
ENDBRANCH   1  17
BRANCH   7  19
ATOM     19  C   UNL     1      -1.520  12.935  22.352  0.00  0.00    +0.000 A 
ATOM     20  C   UNL     1      -0.899  14.037  22.950  0.00  0.00    +0.000 A 
ATOM     21  C   UNL     1      -1.462  14.669  24.061  0.00  0.00    +0.000 A 
ATOM     22  C   UNL     1      -2.654  14.195  24.601  0.00  0.00    +0.000 A 
ATOM     23  C   UNL     1      -3.282  13.091  24.011  0.00  0.00    +0.000 A 
ATOM     24  C   UNL     1      -2.730  12.467  22.880  0.00  0.00    +0.000 A 
BRANCH  23  25
ATOM     25  N   UNL     1      -4.523  12.576  24.605  0.00  0.00    +0.000 N 
ATOM     26  O   UNL     1      -5.477  12.344  23.848  0.00  0.00    +0.000 OA
ATOM     27  O   UNL     1      -4.553  12.415  25.834  0.00  0.00    +0.000 OA
ENDBRANCH  23  25
ENDBRANCH   7  19
BRANCH   3  28
ATOM     28  C   UNL     1       1.509   8.993  18.663  0.00  0.00    +0.000 C 
BRANCH  28  29
ATOM     29  C   UNL     1       2.556   8.484  17.670  0.00  0.00    +0.000 C 
BRANCH  29  30
ATOM     30  C   UNL     1       3.052   7.118  18.019  0.00  0.00    +0.000 A 
ATOM     31  C   UNL     1       2.674   6.344  19.100  0.00  0.00    +0.000 A 
ATOM     32  N   UNL     1       3.265   5.115  18.971  0.00  0.00    +0.000 N 
ATOM     33  C   UNL     1       4.094   5.100  17.875  0.00  0.00    +0.000 A 
ATOM     34  C   UNL     1       4.896   4.076  17.359  0.00  0.00    +0.000 A 
ATOM     35  C   UNL     1       5.715   4.386  16.273  0.00  0.00    +0.000 A 
ATOM     36  C   UNL     1       5.721   5.664  15.724  0.00  0.00    +0.000 A 
ATOM     37  C   UNL     1       4.844   6.647  16.188  0.00  0.00    +0.000 A 
ATOM     38  C   UNL     1       4.024   6.366  17.296  0.00  0.00    +0.000 A 
ATOM     39  H   UNL     1       3.137   4.335  19.601  0.00  0.00    +0.000 HD
ENDBRANCH  29  30
ENDBRANCH  28  29
ENDBRANCH   3  28
TORSDOF 6
ENDMDL
MODEL 3
REMARK VINA RESULT:      -9.5      1.545      1.847
REMARK  Name = 
REMARK  8 active torsions:
REMARK  status: ('A' for Active; 'I' for Inactive)
REMARK    1  A    between atoms: C_1  and  C_2
REMARK    2  A    between atoms: C_4  and  C_5
REMARK    3  A    between atoms: C_7  and  N_8
REMARK    4  A    between atoms: N_10  and  C_11
REMARK    5  A    between atoms: C_11  and  C_12
REMARK    6  A    between atoms: C_12  and  C_13
REMARK    7  A    between atoms: N_25  and  C_26
REMARK    8  A    between atoms: C_30  and  N_31
REMARK                            x       y       z     vdW  Elec       q    Type
REMARK                         _______ _______ _______ _____ _____    ______ ____
ROOT
ATOM      1  N   UNL     1       2.413   6.272  18.799  0.00  0.00    +0.000 NA
ATOM      2  C   UNL     1       3.384   6.756  18.119  0.00  0.00    +0.000 C 
ATOM      3  N   UNL     1       4.568   6.184  17.718  0.00  0.00    +0.000 N 
ATOM      4  N   UNL     1       3.203   8.066  17.699  0.00  0.00    +0.000 N 
ATOM      5  C   UNL     1       2.275   9.034  18.030  0.00  0.00    +0.000 C 
ATOM      6  O   UNL     1       2.175  10.008  17.287  0.00  0.00    +0.000 OA
ATOM      7  N   UNL     1       1.633   8.843  19.228  0.00  0.00    +0.000 N 
ATOM      8  H   UNL     1       4.737   5.294  18.195  0.00  0.00    +0.000 HD
ATOM      9  H   UNL     1       3.727   8.333  16.881  0.00  0.00    +0.000 HD
ATOM     10  H   UNL     1       1.859   7.962  19.686  0.00  0.00    +0.000 HD
ENDROOT
BRANCH   1  17
ATOM     11  C   UNL     1       2.922   1.842  17.369  0.00  0.00    +0.000 C 
ATOM     12  C   UNL     1       2.478   2.785  18.444  0.00  0.00    +0.000 A 
ATOM     13  C   UNL     1       2.106   2.307  19.674  0.00  0.00    +0.000 A 
ATOM     14  C   UNL     1       1.801   3.254  20.638  0.00  0.00    +0.000 A 
ATOM     15  C   UNL     1       1.323   2.750  21.968  0.00  0.00    +0.000 C 
ATOM     16  N   UNL     1       1.852   4.593  20.415  0.00  0.00    +0.000 NA
ATOM     17  C   UNL     1       2.223   4.951  19.176  0.00  0.00    +0.000 A 
ATOM     18  N   UNL     1       2.530   4.100  18.180  0.00  0.00    +0.000 NA
ENDBRANCH   1  17
BRANCH   7  19
ATOM     19  C   UNL     1       0.747   9.726  19.872  0.00  0.00    +0.000 A 
ATOM     20  C   UNL     1       0.842  10.029  21.235  0.00  0.00    +0.000 A 
ATOM     21  C   UNL     1      -0.064  10.900  21.846  0.00  0.00    +0.000 A 
ATOM     22  C   UNL     1      -1.090  11.471  21.100  0.00  0.00    +0.000 A 
ATOM     23  C   UNL     1      -1.195  11.173  19.736  0.00  0.00    +0.000 A 
ATOM     24  C   UNL     1      -0.272  10.315  19.114  0.00  0.00    +0.000 A 
BRANCH  23  25
ATOM     25  N   UNL     1      -2.299  11.754  18.962  0.00  0.00    +0.000 N 
ATOM     26  O   UNL     1      -2.248  11.675  17.726  0.00  0.00    +0.000 OA
ATOM     27  O   UNL     1      -3.217  12.305  19.589  0.00  0.00    +0.000 OA
ENDBRANCH  23  25
ENDBRANCH   7  19
BRANCH   3  28
ATOM     28  C   UNL     1       5.770   7.005  17.488  0.00  0.00    +0.000 C 
BRANCH  28  29
ATOM     29  C   UNL     1       6.988   6.238  16.967  0.00  0.00    +0.000 C 
BRANCH  29  30
ATOM     30  C   UNL     1       6.604   5.072  16.117  0.00  0.00    +0.000 A 
ATOM     31  C   UNL     1       5.917   3.940  16.514  0.00  0.00    +0.000 A 
ATOM     32  N   UNL     1       5.657   3.186  15.400  0.00  0.00    +0.000 N 
ATOM     33  C   UNL     1       6.240   3.759  14.295  0.00  0.00    +0.000 A 
ATOM     34  C   UNL     1       6.244   3.346  12.958  0.00  0.00    +0.000 A 
ATOM     35  C   UNL     1       7.012   4.088  12.058  0.00  0.00    +0.000 A 
ATOM     36  C   UNL     1       7.734   5.199  12.482  0.00  0.00    +0.000 A 
ATOM     37  C   UNL     1       7.641   5.654  13.800  0.00  0.00    +0.000 A 
ATOM     38  C   UNL     1       6.892   4.911  14.729  0.00  0.00    +0.000 A 
ATOM     39  H   UNL     1       5.137   2.320  15.387  0.00  0.00    +0.000 HD
ENDBRANCH  29  30
ENDBRANCH  28  29
ENDBRANCH   3  28
TORSDOF 6
ENDMDL
MODEL 4
REMARK VINA RESULT:      -9.4      3.707      7.171
REMARK  Name = 
REMARK  8 active torsions:
REMARK  status: ('A' for Active; 'I' for Inactive)
REMARK    1  A    between atoms: C_1  and  C_2
REMARK    2  A    between atoms: C_4  and  C_5
REMARK    3  A    between atoms: C_7  and  N_8
REMARK    4  A    between atoms: N_10  and  C_11
REMARK    5  A    between atoms: C_11  and  C_12
REMARK    6  A    between atoms: C_12  and  C_13
REMARK    7  A    between atoms: N_25  and  C_26
REMARK    8  A    between atoms: C_30  and  N_31
REMARK                            x       y       z     vdW  Elec       q    Type
REMARK                         _______ _______ _______ _____ _____    ______ ____
ROOT
ATOM      1  N   UNL     1      -1.555  11.535  18.825  0.00  0.00    +0.000 NA
ATOM      2  C   UNL     1      -0.322  11.188  18.859  0.00  0.00    +0.000 C 
ATOM      3  N   UNL     1       0.392  10.341  18.044  0.00  0.00    +0.000 N 
ATOM      4  N   UNL     1       0.421  11.783  19.868  0.00  0.00    +0.000 N 
ATOM      5  C   UNL     1       0.065  12.523  20.979  0.00  0.00    +0.000 C 
ATOM      6  O   UNL     1       0.945  13.172  21.539  0.00  0.00    +0.000 OA
ATOM      7  N   UNL     1      -1.233  12.364  21.395  0.00  0.00    +0.000 N 
ATOM      8  H   UNL     1      -0.224   9.796  17.436  0.00  0.00    +0.000 HD
ATOM      9  H   UNL     1       1.411  11.844  19.696  0.00  0.00    +0.000 HD
ATOM     10  H   UNL     1      -1.800  11.784  20.781  0.00  0.00    +0.000 HD
ENDROOT
BRANCH   1  17
ATOM     11  C   UNL     1      -6.046  12.068  17.612  0.00  0.00    +0.000 C 
ATOM     12  C   UNL     1      -4.692  11.538  17.260  0.00  0.00    +0.000 A 
ATOM     13  C   UNL     1      -4.454  11.019  16.014  0.00  0.00    +0.000 A 
ATOM     14  C   UNL     1      -3.151  10.637  15.741  0.00  0.00    +0.000 A 
ATOM     15  C   UNL     1      -2.886  10.002  14.407  0.00  0.00    +0.000 C 
ATOM     16  N   UNL     1      -2.135  10.751  16.635  0.00  0.00    +0.000 NA
ATOM     17  C   UNL     1      -2.478  11.267  17.826  0.00  0.00    +0.000 A 
ATOM     18  N   UNL     1      -3.718  11.656  18.176  0.00  0.00    +0.000 NA
ENDBRANCH   1  17
BRANCH   7  19
ATOM     19  C   UNL     1      -1.825  12.885  22.561  0.00  0.00    +0.000 A 
ATOM     20  C   UNL     1      -3.022  12.386  23.087  0.00  0.00    +0.000 A 
ATOM     21  C   UNL     1      -3.590  12.936  24.238  0.00  0.00    +0.000 A 
ATOM     22  C   UNL     1      -2.972  14.008  24.875  0.00  0.00    +0.000 A 
ATOM     23  C   UNL     1      -1.775  14.516  24.355  0.00  0.00    +0.000 A 
ATOM     24  C   UNL     1      -1.189  13.951  23.210  0.00  0.00    +0.000 A 
BRANCH  23  25
ATOM     25  N   UNL     1      -1.145  15.668  25.013  0.00  0.00    +0.000 N 
ATOM     26  O   UNL     1      -1.070  16.731  24.379  0.00  0.00    +0.000 OA
ATOM     27  O   UNL     1      -0.709  15.510  26.163  0.00  0.00    +0.000 OA
ENDBRANCH  23  25
ENDBRANCH   7  19
BRANCH   3  28
ATOM     28  C   UNL     1       1.571   9.616  18.550  0.00  0.00    +0.000 C 
BRANCH  28  29
ATOM     29  C   UNL     1       2.098   8.514  17.626  0.00  0.00    +0.000 C 
BRANCH  29  30
ATOM     30  C   UNL     1       2.768   7.413  18.380  0.00  0.00    +0.000 A 
ATOM     31  C   UNL     1       2.471   6.974  19.657  0.00  0.00    +0.000 A 
ATOM     32  N   UNL     1       3.230   5.863  19.914  0.00  0.00    +0.000 N 
ATOM     33  C   UNL     1       4.085   5.621  18.865  0.00  0.00    +0.000 A 
ATOM     34  C   UNL     1       5.036   4.611  18.687  0.00  0.00    +0.000 A 
ATOM     35  C   UNL     1       5.836   4.674  17.545  0.00  0.00    +0.000 A 
ATOM     36  C   UNL     1       5.680   5.702  16.620  0.00  0.00    +0.000 A 
ATOM     37  C   UNL     1       4.661   6.647  16.764  0.00  0.00    +0.000 A 
ATOM     38  C   UNL     1       3.857   6.616  17.916  0.00  0.00    +0.000 A 
ATOM     39  H   UNL     1       3.194   5.312  20.760  0.00  0.00    +0.000 HD
ENDBRANCH  29  30
ENDBRANCH  28  29
ENDBRANCH   3  28
TORSDOF 6
ENDMDL
MODEL 5
REMARK VINA RESULT:      -9.3      4.104      9.553
REMARK  Name = 
REMARK  8 active torsions:
REMARK  status: ('A' for Active; 'I' for Inactive)
REMARK    1  A    between atoms: C_1  and  C_2
REMARK    2  A    between atoms: C_4  and  C_5
REMARK    3  A    between atoms: C_7  and  N_8
REMARK    4  A    between atoms: N_10  and  C_11
REMARK    5  A    between atoms: C_11  and  C_12
REMARK    6  A    between atoms: C_12  and  C_13
REMARK    7  A    between atoms: N_25  and  C_26
REMARK    8  A    between atoms: C_30  and  N_31
REMARK                            x       y       z     vdW  Elec       q    Type
REMARK                         _______ _______ _______ _____ _____    ______ ____
ROOT
ATOM      1  N   UNL     1      -1.109  10.244  18.906  0.00  0.00    +0.000 NA
ATOM      2  C   UNL     1      -0.836  10.963  19.930  0.00  0.00    +0.000 C 
ATOM      3  N   UNL     1      -1.320  12.192  20.315  0.00  0.00    +0.000 N 
ATOM      4  N   UNL     1       0.081  10.402  20.806  0.00  0.00    +0.000 N 
ATOM      5  C   UNL     1       0.921   9.310  20.707  0.00  0.00    +0.000 C 
ATOM      6  O   UNL     1       1.411   8.870  21.745  0.00  0.00    +0.000 OA
ATOM      7  N   UNL     1       1.197   8.899  19.427  0.00  0.00    +0.000 N 
ATOM      8  H   UNL     1      -1.848  12.641  19.562  0.00  0.00    +0.000 HD
ATOM      9  H   UNL     1       0.025  10.730  21.757  0.00  0.00    +0.000 HD
ATOM     10  H   UNL     1       0.678   9.398  18.708  0.00  0.00    +0.000 HD
ENDROOT
BRANCH   1  17
ATOM     11  C   UNL     1      -5.350  12.140  18.314  0.00  0.00    +0.000 C 
ATOM     12  C   UNL     1      -4.205  11.381  17.719  0.00  0.00    +0.000 A 
ATOM     13  C   UNL     1      -4.177  11.114  16.374  0.00  0.00    +0.000 A 
ATOM     14  C   UNL     1      -3.038  10.491  15.892  0.00  0.00    +0.000 A 
ATOM     15  C   UNL     1      -3.018  10.127  14.436  0.00  0.00    +0.000 C 
ATOM     16  N   UNL     1      -1.985  10.144  16.677  0.00  0.00    +0.000 NA
ATOM     17  C   UNL     1      -2.120  10.447  17.978  0.00  0.00    +0.000 A 
ATOM     18  N   UNL     1      -3.191  11.044  18.530  0.00  0.00    +0.000 NA
ENDBRANCH   1  17
BRANCH   7  19
ATOM     19  C   UNL     1       2.114   7.909  19.028  0.00  0.00    +0.000 A 
ATOM     20  C   UNL     1       2.946   8.057  17.914  0.00  0.00    +0.000 A 
ATOM     21  C   UNL     1       3.836   7.048  17.537  0.00  0.00    +0.000 A 
ATOM     22  C   UNL     1       3.894   5.864  18.266  0.00  0.00    +0.000 A 
ATOM     23  C   UNL     1       3.063   5.705  19.381  0.00  0.00    +0.000 A 
ATOM     24  C   UNL     1       2.183   6.727  19.776  0.00  0.00    +0.000 A 
BRANCH  23  25
ATOM     25  N   UNL     1       3.106   4.440  20.127  0.00  0.00    +0.000 N 
ATOM     26  O   UNL     1       3.730   3.492  19.628  0.00  0.00    +0.000 OA
ATOM     27  O   UNL     1       2.503   4.387  21.209  0.00  0.00    +0.000 OA
ENDBRANCH  23  25
ENDBRANCH   7  19
BRANCH   3  28
ATOM     28  C   UNL     1      -0.507  13.104  21.137  0.00  0.00    +0.000 C 
BRANCH  28  29
ATOM     29  C   UNL     1      -0.191  14.453  20.486  0.00  0.00    +0.000 C 
BRANCH  29  30
ATOM     30  C   UNL     1       1.112  14.440  19.755  0.00  0.00    +0.000 A 
ATOM     31  C   UNL     1       2.088  13.462  19.808  0.00  0.00    +0.000 A 
ATOM     32  N   UNL     1       3.054  13.775  18.888  0.00  0.00    +0.000 N 
ATOM     33  C   UNL     1       2.774  14.985  18.299  0.00  0.00    +0.000 A 
ATOM     34  C   UNL     1       3.471  15.697  17.318  0.00  0.00    +0.000 A 
ATOM     35  C   UNL     1       2.991  16.963  16.978  0.00  0.00    +0.000 A 
ATOM     36  C   UNL     1       1.855  17.484  17.591  0.00  0.00    +0.000 A 
ATOM     37  C   UNL     1       1.115  16.720  18.497  0.00  0.00    +0.000 A 
ATOM     38  C   UNL     1       1.592  15.451  18.871  0.00  0.00    +0.000 A 
ATOM     39  H   UNL     1       3.872  13.216  18.684  0.00  0.00    +0.000 HD
ENDBRANCH  29  30
ENDBRANCH  28  29
ENDBRANCH   3  28
TORSDOF 6
ENDMDL
MODEL 6
REMARK VINA RESULT:      -9.2      3.446     10.864
REMARK  Name = 
REMARK  8 active torsions:
REMARK  status: ('A' for Active; 'I' for Inactive)
REMARK    1  A    between atoms: C_1  and  C_2
REMARK    2  A    between atoms: C_4  and  C_5
REMARK    3  A    between atoms: C_7  and  N_8
REMARK    4  A    between atoms: N_10  and  C_11
REMARK    5  A    between atoms: C_11  and  C_12
REMARK    6  A    between atoms: C_12  and  C_13
REMARK    7  A    between atoms: N_25  and  C_26
REMARK    8  A    between atoms: C_30  and  N_31
REMARK                            x       y       z     vdW  Elec       q    Type
REMARK                         _______ _______ _______ _____ _____    ______ ____
ROOT
ATOM      1  N   UNL     1      -0.756   9.977  18.784  0.00  0.00    +0.000 NA
ATOM      2  C   UNL     1      -0.349  10.686  19.770  0.00  0.00    +0.000 C 
ATOM      3  N   UNL     1      -0.703  11.954  20.167  0.00  0.00    +0.000 N 
ATOM      4  N   UNL     1       0.586  10.064  20.585  0.00  0.00    +0.000 N 
ATOM      5  C   UNL     1       1.326   8.906  20.444  0.00  0.00    +0.000 C 
ATOM      6  O   UNL     1       1.858   8.442  21.449  0.00  0.00    +0.000 OA
ATOM      7  N   UNL     1       1.469   8.458  19.154  0.00  0.00    +0.000 N 
ATOM      8  H   UNL     1      -1.249  12.435  19.449  0.00  0.00    +0.000 HD
ATOM      9  H   UNL     1       0.630  10.408  21.531  0.00  0.00    +0.000 HD
ATOM     10  H   UNL     1       0.938   8.988  18.468  0.00  0.00    +0.000 HD
ENDROOT
BRANCH   1  17
ATOM     11  C   UNL     1      -4.946  12.054  18.532  0.00  0.00    +0.000 C 
ATOM     12  C   UNL     1      -3.875  11.272  17.840  0.00  0.00    +0.000 A 
ATOM     13  C   UNL     1      -3.945  11.047  16.489  0.00  0.00    +0.000 A 
ATOM     14  C   UNL     1      -2.866  10.396  15.914  0.00  0.00    +0.000 A 
ATOM     15  C   UNL     1      -2.956  10.079  14.450  0.00  0.00    +0.000 C 
ATOM     16  N   UNL     1      -1.779   9.983  16.616  0.00  0.00    +0.000 NA
ATOM     17  C   UNL     1      -1.816  10.249  17.932  0.00  0.00    +0.000 A 
ATOM     18  N   UNL     1      -2.824  10.869  18.572  0.00  0.00    +0.000 NA
ENDBRANCH   1  17
BRANCH   7  19
ATOM     19  C   UNL     1       2.271   7.393  18.705  0.00  0.00    +0.000 A 
ATOM     20  C   UNL     1       2.080   6.074  19.129  0.00  0.00    +0.000 A 
ATOM     21  C   UNL     1       2.904   5.041  18.674  0.00  0.00    +0.000 A 
ATOM     22  C   UNL     1       3.945   5.319  17.795  0.00  0.00    +0.000 A 
ATOM     23  C   UNL     1       4.147   6.637  17.366  0.00  0.00    +0.000 A 
ATOM     24  C   UNL     1       3.306   7.674  17.805  0.00  0.00    +0.000 A 
BRANCH  23  25
ATOM     25  N   UNL     1       5.268   6.929  16.463  0.00  0.00    +0.000 N 
ATOM     26  O   UNL     1       6.354   7.247  16.969  0.00  0.00    +0.000 OA
ATOM     27  O   UNL     1       5.061   6.854  15.243  0.00  0.00    +0.000 OA
ENDBRANCH  23  25
ENDBRANCH   7  19
BRANCH   3  28
ATOM     28  C   UNL     1       0.241  12.809  20.909  0.00  0.00    +0.000 C 
BRANCH  28  29
ATOM     29  C   UNL     1      -0.362  13.556  22.101  0.00  0.00    +0.000 C 
BRANCH  29  30
ATOM     30  C   UNL     1      -1.703  13.023  22.486  0.00  0.00    +0.000 A 
ATOM     31  C   UNL     1      -1.967  11.933  23.295  0.00  0.00    +0.000 A 
ATOM     32  N   UNL     1      -3.320  11.871  23.499  0.00  0.00    +0.000 N 
ATOM     33  C   UNL     1      -3.955  12.844  22.764  0.00  0.00    +0.000 A 
ATOM     34  C   UNL     1      -5.314  13.155  22.657  0.00  0.00    +0.000 A 
ATOM     35  C   UNL     1      -5.677  14.150  21.747  0.00  0.00    +0.000 A 
ATOM     36  C   UNL     1      -4.715  14.808  20.987  0.00  0.00    +0.000 A 
ATOM     37  C   UNL     1      -3.354  14.554  21.178  0.00  0.00    +0.000 A 
ATOM     38  C   UNL     1      -2.966  13.541  22.072  0.00  0.00    +0.000 A 
ATOM     39  H   UNL     1      -3.794  11.194  24.081  0.00  0.00    +0.000 HD
ENDBRANCH  29  30
ENDBRANCH  28  29
ENDBRANCH   3  28
TORSDOF 6
ENDMDL
MODEL 7
REMARK VINA RESULT:      -9.2      3.673     10.808
REMARK  Name = 
REMARK  8 active torsions:
REMARK  status: ('A' for Active; 'I' for Inactive)
REMARK    1  A    between atoms: C_1  and  C_2
REMARK    2  A    between atoms: C_4  and  C_5
REMARK    3  A    between atoms: C_7  and  N_8
REMARK    4  A    between atoms: N_10  and  C_11
REMARK    5  A    between atoms: C_11  and  C_12
REMARK    6  A    between atoms: C_12  and  C_13
REMARK    7  A    between atoms: N_25  and  C_26
REMARK    8  A    between atoms: C_30  and  N_31
REMARK                            x       y       z     vdW  Elec       q    Type
REMARK                         _______ _______ _______ _____ _____    ______ ____
ROOT
ATOM      1  N   UNL     1      -0.966  10.252  18.892  0.00  0.00    +0.000 NA
ATOM      2  C   UNL     1      -0.625  11.029  19.851  0.00  0.00    +0.000 C 
ATOM      3  N   UNL     1      -1.038  12.304  20.160  0.00  0.00    +0.000 N 
ATOM      4  N   UNL     1       0.294  10.488  20.739  0.00  0.00    +0.000 N 
ATOM      5  C   UNL     1       1.079   9.353  20.695  0.00  0.00    +0.000 C 
ATOM      6  O   UNL     1       1.583   8.965  21.746  0.00  0.00    +0.000 OA
ATOM      7  N   UNL     1       1.293   8.838  19.440  0.00  0.00    +0.000 N 
ATOM      8  H   UNL     1      -1.570  12.723  19.392  0.00  0.00    +0.000 HD
ATOM      9  H   UNL     1       0.286  10.886  21.664  0.00  0.00    +0.000 HD
ATOM     10  H   UNL     1       0.773   9.309  18.703  0.00  0.00    +0.000 HD
ENDROOT
BRANCH   1  17
ATOM     11  C   UNL     1      -5.194  12.188  18.338  0.00  0.00    +0.000 C 
ATOM     12  C   UNL     1      -4.075  11.392  17.742  0.00  0.00    +0.000 A 
ATOM     13  C   UNL     1      -4.084  11.077  16.408  0.00  0.00    +0.000 A 
ATOM     14  C   UNL     1      -2.966  10.420  15.920  0.00  0.00    +0.000 A 
ATOM     15  C   UNL     1      -2.989  10.004  14.478  0.00  0.00    +0.000 C 
ATOM     16  N   UNL     1      -1.899  10.086  16.690  0.00  0.00    +0.000 NA
ATOM     17  C   UNL     1      -1.996  10.437  17.982  0.00  0.00    +0.000 A 
ATOM     18  N   UNL     1      -3.045  11.068  18.539  0.00  0.00    +0.000 NA
ENDBRANCH   1  17
BRANCH   7  19
ATOM     19  C   UNL     1       2.149   7.779  19.087  0.00  0.00    +0.000 A 
ATOM     20  C   UNL     1       2.983   7.825  17.966  0.00  0.00    +0.000 A 
ATOM     21  C   UNL     1       3.811   6.749  17.636  0.00  0.00    +0.000 A 
ATOM     22  C   UNL     1       3.804   5.600  18.420  0.00  0.00    +0.000 A 
ATOM     23  C   UNL     1       2.970   5.542  19.543  0.00  0.00    +0.000 A 
ATOM     24  C   UNL     1       2.153   6.632  19.891  0.00  0.00    +0.000 A 
BRANCH  23  25
ATOM     25  N   UNL     1       2.944   4.314  20.349  0.00  0.00    +0.000 N 
ATOM     26  O   UNL     1       2.190   4.281  21.332  0.00  0.00    +0.000 OA
ATOM     27  O   UNL     1       3.688   3.384  20.008  0.00  0.00    +0.000 OA
ENDBRANCH  23  25
ENDBRANCH   7  19
BRANCH   3  28
ATOM     28  C   UNL     1      -0.157  13.233  20.888  0.00  0.00    +0.000 C 
BRANCH  28  29
ATOM     29  C   UNL     1      -0.602  13.562  22.316  0.00  0.00    +0.000 C 
BRANCH  29  30
ATOM     30  C   UNL     1      -1.987  13.083  22.603  0.00  0.00    +0.000 A 
ATOM     31  C   UNL     1      -2.350  11.990  23.368  0.00  0.00    +0.000 A 
ATOM     32  N   UNL     1      -3.715  11.986  23.485  0.00  0.00    +0.000 N 
ATOM     33  C   UNL     1      -4.258  13.002  22.736  0.00  0.00    +0.000 A 
ATOM     34  C   UNL     1      -5.593  13.377  22.550  0.00  0.00    +0.000 A 
ATOM     35  C   UNL     1      -5.852  14.406  21.644  0.00  0.00    +0.000 A 
ATOM     36  C   UNL     1      -4.815  15.036  20.962  0.00  0.00    +0.000 A 
ATOM     37  C   UNL     1      -3.482  14.715  21.231  0.00  0.00    +0.000 A 
ATOM     38  C   UNL     1      -3.197  13.667  22.124  0.00  0.00    +0.000 A 
ATOM     39  H   UNL     1      -4.255  11.319  24.019  0.00  0.00    +0.000 HD
ENDBRANCH  29  30
ENDBRANCH  28  29
ENDBRANCH   3  28
TORSDOF 6
ENDMDL
MODEL 8
REMARK VINA RESULT:      -9.1      4.219      9.299
REMARK  Name = 
REMARK  8 active torsions:
REMARK  status: ('A' for Active; 'I' for Inactive)
REMARK    1  A    between atoms: C_1  and  C_2
REMARK    2  A    between atoms: C_4  and  C_5
REMARK    3  A    between atoms: C_7  and  N_8
REMARK    4  A    between atoms: N_10  and  C_11
REMARK    5  A    between atoms: C_11  and  C_12
REMARK    6  A    between atoms: C_12  and  C_13
REMARK    7  A    between atoms: N_25  and  C_26
REMARK    8  A    between atoms: C_30  and  N_31
REMARK                            x       y       z     vdW  Elec       q    Type
REMARK                         _______ _______ _______ _____ _____    ______ ____
ROOT
ATOM      1  N   UNL     1      -1.009  10.286  18.780  0.00  0.00    +0.000 NA
ATOM      2  C   UNL     1      -0.668  11.093  19.715  0.00  0.00    +0.000 C 
ATOM      3  N   UNL     1      -1.082  12.376  19.985  0.00  0.00    +0.000 N 
ATOM      4  N   UNL     1       0.254  10.581  20.616  0.00  0.00    +0.000 N 
ATOM      5  C   UNL     1       1.040   9.445  20.606  0.00  0.00    +0.000 C 
ATOM      6  O   UNL     1       1.547   9.091  21.668  0.00  0.00    +0.000 OA
ATOM      7  N   UNL     1       1.253   8.893  19.367  0.00  0.00    +0.000 N 
ATOM      8  H   UNL     1      -1.616  12.771  19.206  0.00  0.00    +0.000 HD
ATOM      9  H   UNL     1       0.247  11.007  21.529  0.00  0.00    +0.000 HD
ATOM     10  H   UNL     1       0.731   9.340  18.617  0.00  0.00    +0.000 HD
ENDROOT
BRANCH   1  17
ATOM     11  C   UNL     1      -5.311  12.053  18.229  0.00  0.00    +0.000 C 
ATOM     12  C   UNL     1      -4.156  11.313  17.628  0.00  0.00    +0.000 A 
ATOM     13  C   UNL     1      -4.145  11.018  16.290  0.00  0.00    +0.000 A 
ATOM     14  C   UNL     1      -2.999  10.416  15.799  0.00  0.00    +0.000 A 
ATOM     15  C   UNL     1      -2.996  10.021  14.351  0.00  0.00    +0.000 C 
ATOM     16  N   UNL     1      -1.922  10.114  16.570  0.00  0.00    +0.000 NA
ATOM     17  C   UNL     1      -2.041  10.441  17.867  0.00  0.00    +0.000 A 
ATOM     18  N   UNL     1      -3.119  11.021  18.427  0.00  0.00    +0.000 NA
ENDBRANCH   1  17
BRANCH   7  19
ATOM     19  C   UNL     1       2.110   7.825  19.045  0.00  0.00    +0.000 A 
ATOM     20  C   UNL     1       2.966   7.852  17.939  0.00  0.00    +0.000 A 
ATOM     21  C   UNL     1       3.794   6.767  17.640  0.00  0.00    +0.000 A 
ATOM     22  C   UNL     1       3.766   5.629  18.440  0.00  0.00    +0.000 A 
ATOM     23  C   UNL     1       2.910   5.591  19.547  0.00  0.00    +0.000 A 
ATOM     24  C   UNL     1       2.092   6.689  19.864  0.00  0.00    +0.000 A 
BRANCH  23  25
ATOM     25  N   UNL     1       2.862   4.374  20.369  0.00  0.00    +0.000 N 
ATOM     26  O   UNL     1       2.122   4.373  21.364  0.00  0.00    +0.000 OA
ATOM     27  O   UNL     1       3.575   3.418  20.029  0.00  0.00    +0.000 OA
ENDBRANCH  23  25
ENDBRANCH   7  19
BRANCH   3  28
ATOM     28  C   UNL     1      -0.201  13.328  20.683  0.00  0.00    +0.000 C 
BRANCH  28  29
ATOM     29  C   UNL     1       0.270  14.514  19.836  0.00  0.00    +0.000 C 
BRANCH  29  30
ATOM     30  C   UNL     1       1.564  14.238  19.143  0.00  0.00    +0.000 A 
ATOM     31  C   UNL     1       1.894  13.115  18.407  0.00  0.00    +0.000 A 
ATOM     32  N   UNL     1       3.121  13.325  17.836  0.00  0.00    +0.000 N 
ATOM     33  C   UNL     1       3.641  14.525  18.257  0.00  0.00    +0.000 A 
ATOM     34  C   UNL     1       4.854  15.147  17.943  0.00  0.00    +0.000 A 
ATOM     35  C   UNL     1       5.158  16.337  18.606  0.00  0.00    +0.000 A 
ATOM     36  C   UNL     1       4.277  16.881  19.537  0.00  0.00    +0.000 A 
ATOM     37  C   UNL     1       3.028  16.300  19.767  0.00  0.00    +0.000 A 
ATOM     38  C   UNL     1       2.709  15.089  19.127  0.00  0.00    +0.000 A 
ATOM     39  H   UNL     1       3.596  12.683  17.215  0.00  0.00    +0.000 HD
ENDBRANCH  29  30
ENDBRANCH  28  29
ENDBRANCH   3  28
TORSDOF 6
ENDMDL
MODEL 9
REMARK VINA RESULT:      -9.1      4.354     10.293
REMARK  Name = 
REMARK  8 active torsions:
REMARK  status: ('A' for Active; 'I' for Inactive)
REMARK    1  A    between atoms: C_1  and  C_2
REMARK    2  A    between atoms: C_4  and  C_5
REMARK    3  A    between atoms: C_7  and  N_8
REMARK    4  A    between atoms: N_10  and  C_11
REMARK    5  A    between atoms: C_11  and  C_12
REMARK    6  A    between atoms: C_12  and  C_13
REMARK    7  A    between atoms: N_25  and  C_26
REMARK    8  A    between atoms: C_30  and  N_31
REMARK                            x       y       z     vdW  Elec       q    Type
REMARK                         _______ _______ _______ _____ _____    ______ ____
ROOT
ATOM      1  N   UNL     1      -0.797  10.340  19.241  0.00  0.00    +0.000 NA
ATOM      2  C   UNL     1      -0.247  11.241  19.966  0.00  0.00    +0.000 C 
ATOM      3  N   UNL     1      -0.387  12.609  19.952  0.00  0.00    +0.000 N 
ATOM      4  N   UNL     1       0.614  10.758  20.941  0.00  0.00    +0.000 N 
ATOM      5  C   UNL     1       1.162   9.511  21.168  0.00  0.00    +0.000 C 
ATOM      6  O   UNL     1       1.657   9.297  22.272  0.00  0.00    +0.000 OA
ATOM      7  N   UNL     1       1.183   8.674  20.080  0.00  0.00    +0.000 N 
ATOM      8  H   UNL     1      -0.882  12.928  19.115  0.00  0.00    +0.000 HD
ATOM      9  H   UNL     1       0.748  11.362  21.735  0.00  0.00    +0.000 HD
ATOM     10  H   UNL     1       0.712   9.047  19.259  0.00  0.00    +0.000 HD
ENDROOT
BRANCH   1  17
ATOM     11  C   UNL     1      -5.005  12.312  18.660  0.00  0.00    +0.000 C 
ATOM     12  C   UNL     1      -3.905  11.477  18.083  0.00  0.00    +0.000 A 
ATOM     13  C   UNL     1      -3.935  11.109  16.763  0.00  0.00    +0.000 A 
ATOM     14  C   UNL     1      -2.832  10.417  16.288  0.00  0.00    +0.000 A 
ATOM     15  C   UNL     1      -2.878   9.945  14.865  0.00  0.00    +0.000 C 
ATOM     16  N   UNL     1      -1.760  10.099  17.059  0.00  0.00    +0.000 NA
ATOM     17  C   UNL     1      -1.836  10.502  18.337  0.00  0.00    +0.000 A 
ATOM     18  N   UNL     1      -2.870  11.171  18.881  0.00  0.00    +0.000 NA
ENDBRANCH   1  17
BRANCH   7  19
ATOM     19  C   UNL     1       1.795   7.410  19.987  0.00  0.00    +0.000 A 
ATOM     20  C   UNL     1       1.469   6.351  20.840  0.00  0.00    +0.000 A 
ATOM     21  C   UNL     1       2.106   5.112  20.729  0.00  0.00    +0.000 A 
ATOM     22  C   UNL     1       3.092   4.921  19.766  0.00  0.00    +0.000 A 
ATOM     23  C   UNL     1       3.427   5.976  18.909  0.00  0.00    +0.000 A 
ATOM     24  C   UNL     1       2.773   7.217  19.003  0.00  0.00    +0.000 A 
BRANCH  23  25
ATOM     25  N   UNL     1       4.491   5.778  17.916  0.00  0.00    +0.000 N 
ATOM     26  O   UNL     1       4.795   4.614  17.613  0.00  0.00    +0.000 OA
ATOM     27  O   UNL     1       5.038   6.787  17.446  0.00  0.00    +0.000 OA
ENDBRANCH  23  25
ENDBRANCH   7  19
BRANCH   3  28
ATOM     28  C   UNL     1       0.706  13.489  20.403  0.00  0.00    +0.000 C 
BRANCH  28  29
ATOM     29  C   UNL     1       0.342  14.973  20.502  0.00  0.00    +0.000 C 
BRANCH  29  30
ATOM     30  C   UNL     1       1.131  15.816  19.555  0.00  0.00    +0.000 A 
ATOM     31  C   UNL     1       2.505  15.836  19.402  0.00  0.00    +0.000 A 
ATOM     32  N   UNL     1       2.804  16.647  18.339  0.00  0.00    +0.000 N 
ATOM     33  C   UNL     1       1.659  17.231  17.853  0.00  0.00    +0.000 A 
ATOM     34  C   UNL     1       1.478  18.125  16.792  0.00  0.00    +0.000 A 
ATOM     35  C   UNL     1       0.193  18.630  16.587  0.00  0.00    +0.000 A 
ATOM     36  C   UNL     1      -0.864  18.247  17.407  0.00  0.00    +0.000 A 
ATOM     37  C   UNL     1      -0.687  17.280  18.400  0.00  0.00    +0.000 A 
ATOM     38  C   UNL     1       0.603  16.773  18.639  0.00  0.00    +0.000 A 
ATOM     39  H   UNL     1       3.731  16.820  17.977  0.00  0.00    +0.000 HD
ENDBRANCH  29  30
ENDBRANCH  28  29
ENDBRANCH   3  28
TORSDOF 6
ENDMDL
