MODEL 1
REMARK VINA RESULT:      -8.1      0.000      0.000
REMARK  Name = 
REMARK  8 active torsions:
REMARK  status: ('A' for Active; 'I' for Inactive)
REMARK    1  A    between atoms: C_1  and  C_2
REMARK    2  A    between atoms: C_2  and  O_3
REMARK    3  A    between atoms: O_3  and  C_4
REMARK    4  A    between atoms: C_4  and  C_6
REMARK    5  A    between atoms: C_8  and  C_9
REMARK    6  A    between atoms: C_13  and  O_14
REMARK    7  A    between atoms: O_14  and  C_15
REMARK    8  A    between atoms: C_15  and  C_16
REMARK                            x       y       z     vdW  Elec       q    Type
REMARK                         _______ _______ _______ _____ _____    ______ ____
ROOT
ATOM      1  C   UNL     1       3.903   4.100  19.384  0.00  0.00    +0.000 A 
ATOM      2  C   UNL     1       3.710   2.895  20.076  0.00  0.00    +0.000 A 
ATOM      3  C   UNL     1       2.730   2.783  21.058  0.00  0.00    +0.000 A 
ATOM      4  C   UNL     1       1.934   3.880  21.374  0.00  0.00    +0.000 A 
ATOM      5  C   UNL     1       2.131   5.097  20.719  0.00  0.00    +0.000 A 
ATOM      6  C   UNL     1       3.085   5.194  19.704  0.00  0.00    +0.000 A 
ENDROOT
BRANCH   1   9
ATOM      7  C   UNL     1       6.382   4.457  16.706  0.00  0.00    +0.000 A 
ATOM      8  C   UNL     1       5.007   4.298  17.017  0.00  0.00    +0.000 A 
ATOM      9  C   UNL     1       4.958   4.226  18.388  0.00  0.00    +0.000 A 
ATOM     10  O   UNL     1       6.229   4.327  18.870  0.00  0.00    +0.000 OA
ATOM     11  N   UNL     1       7.120   4.474  17.830  0.00  0.00    +0.000 NA
BRANCH   7  12
ATOM     12  C   UNL     1       6.982   4.533  15.381  0.00  0.00    +0.000 C 
ATOM     13  O   UNL     1       7.755   5.425  15.051  0.00  0.00    +0.000 OA
BRANCH  12  14
ATOM     14  O   UNL     1       6.516   3.564  14.540  0.00  0.00    +0.000 OA
BRANCH  14  16
ATOM     15  C   UNL     1       6.592   3.513  12.155  0.00  0.00    +0.000 C 
ATOM     16  C   UNL     1       5.843   4.035  13.369  0.00  0.00    +0.000 C 
ENDBRANCH  14  16
ENDBRANCH  12  14
ENDBRANCH   7  12
ENDBRANCH   1   9
BRANCH   5  17
ATOM     17  O   UNL     1       1.453   6.255  21.002  0.00  0.00    +0.000 OA
BRANCH  17  18
ATOM     18  C   UNL     1       1.911   7.403  20.288  0.00  0.00    +0.000 C 
BRANCH  18  19
ATOM     19  C   UNL     1       1.136   8.614  20.735  0.00  0.00    +0.000 A 
ATOM     20  C   UNL     1       0.860   8.808  22.098  0.00  0.00    +0.000 A 
ATOM     21  C   UNL     1       0.100   9.898  22.518  0.00  0.00    +0.000 A 
ATOM     22  C   UNL     1      -0.383  10.814  21.584  0.00  0.00    +0.000 A 
ATOM     23  C   UNL     1      -0.089  10.640  20.233  0.00  0.00    +0.000 A 
ATOM     24 BR   UNL     1      -0.742  11.882  18.965  0.00  0.00    +0.000 Br
ATOM     25  C   UNL     1       0.671   9.553  19.804  0.00  0.00    +0.000 A 
ENDBRANCH  18  19
ENDBRANCH  17  18
ENDBRANCH   5  17
TORSDOF 7
ENDMDL
MODEL 2
REMARK VINA RESULT:      -8.1      3.125      5.158
REMARK  Name = 
REMARK  8 active torsions:
REMARK  status: ('A' for Active; 'I' for Inactive)
REMARK    1  A    between atoms: C_1  and  C_2
REMARK    2  A    between atoms: C_2  and  O_3
REMARK    3  A    between atoms: O_3  and  C_4
REMARK    4  A    between atoms: C_4  and  C_6
REMARK    5  A    between atoms: C_8  and  C_9
REMARK    6  A    between atoms: C_13  and  O_14
REMARK    7  A    between atoms: O_14  and  C_15
REMARK    8  A    between atoms: C_15  and  C_16
REMARK                            x       y       z     vdW  Elec       q    Type
REMARK                         _______ _______ _______ _____ _____    ______ ____
ROOT
ATOM      1  C   UNL     1       6.879   5.089  16.396  0.00  0.00    +0.000 A 
ATOM      2  C   UNL     1       7.493   6.306  16.726  0.00  0.00    +0.000 A 
ATOM      3  C   UNL     1       7.571   6.732  18.050  0.00  0.00    +0.000 A 
ATOM      4  C   UNL     1       7.023   5.953  19.064  0.00  0.00    +0.000 A 
ATOM      5  C   UNL     1       6.379   4.755  18.753  0.00  0.00    +0.000 A 
ATOM      6  C   UNL     1       6.341   4.308  17.430  0.00  0.00    +0.000 A 
ENDROOT
BRANCH   1   9
ATOM      7  C   UNL     1       6.366   3.917  12.960  0.00  0.00    +0.000 A 
ATOM      8  C   UNL     1       5.937   3.817  14.309  0.00  0.00    +0.000 A 
ATOM      9  C   UNL     1       6.760   4.666  15.007  0.00  0.00    +0.000 A 
ATOM     10  O   UNL     1       7.637   5.233  14.131  0.00  0.00    +0.000 OA
ATOM     11  N   UNL     1       7.395   4.775  12.855  0.00  0.00    +0.000 NA
BRANCH   7  12
ATOM     12  C   UNL     1       5.851   3.176  11.815  0.00  0.00    +0.000 C 
ATOM     13  O   UNL     1       6.264   2.065  11.502  0.00  0.00    +0.000 OA
BRANCH  12  14
ATOM     14  O   UNL     1       4.940   3.893  11.095  0.00  0.00    +0.000 OA
BRANCH  14  16
ATOM     15  C   UNL     1       3.009   3.879   9.694  0.00  0.00    +0.000 C 
ATOM     16  C   UNL     1       3.662   3.274  10.924  0.00  0.00    +0.000 C 
ENDBRANCH  14  16
ENDBRANCH  12  14
ENDBRANCH   7  12
ENDBRANCH   1   9
BRANCH   5  17
ATOM     17  O   UNL     1       5.745   3.949  19.664  0.00  0.00    +0.000 OA
BRANCH  17  18
ATOM     18  C   UNL     1       4.707   3.135  19.119  0.00  0.00    +0.000 C 
BRANCH  18  19
ATOM     19  C   UNL     1       3.374   3.609  19.637  0.00  0.00    +0.000 A 
ATOM     20  C   UNL     1       2.333   2.689  19.840  0.00  0.00    +0.000 A 
ATOM     21  C   UNL     1       1.079   3.123  20.269  0.00  0.00    +0.000 A 
ATOM     22  C   UNL     1       0.854   4.477  20.512  0.00  0.00    +0.000 A 
ATOM     23  C   UNL     1       1.893   5.390  20.337  0.00  0.00    +0.000 A 
ATOM     24 BR   UNL     1       1.590   7.227  20.668  0.00  0.00    +0.000 Br
ATOM     25  C   UNL     1       3.150   4.965  19.908  0.00  0.00    +0.000 A 
ENDBRANCH  18  19
ENDBRANCH  17  18
ENDBRANCH   5  17
TORSDOF 7
ENDMDL
MODEL 3
REMARK VINA RESULT:      -8.0      2.163      3.894
REMARK  Name = 
REMARK  8 active torsions:
REMARK  status: ('A' for Active; 'I' for Inactive)
REMARK    1  A    between atoms: C_1  and  C_2
REMARK    2  A    between atoms: C_2  and  O_3
REMARK    3  A    between atoms: O_3  and  C_4
REMARK    4  A    between atoms: C_4  and  C_6
REMARK    5  A    between atoms: C_8  and  C_9
REMARK    6  A    between atoms: C_13  and  O_14
REMARK    7  A    between atoms: O_14  and  C_15
REMARK    8  A    between atoms: C_15  and  C_16
REMARK                            x       y       z     vdW  Elec       q    Type
REMARK                         _______ _______ _______ _____ _____    ______ ____
ROOT
ATOM      1  C   UNL     1       6.558   4.873  16.858  0.00  0.00    +0.000 A 
ATOM      2  C   UNL     1       7.491   5.688  17.518  0.00  0.00    +0.000 A 
ATOM      3  C   UNL     1       7.365   5.964  18.877  0.00  0.00    +0.000 A 
ATOM      4  C   UNL     1       6.295   5.440  19.597  0.00  0.00    +0.000 A 
ATOM      5  C   UNL     1       5.339   4.653  18.952  0.00  0.00    +0.000 A 
ATOM      6  C   UNL     1       5.491   4.341  17.600  0.00  0.00    +0.000 A 
ENDROOT
BRANCH   1   9
ATOM      7  C   UNL     1       6.638   4.090  13.278  0.00  0.00    +0.000 A 
ATOM      8  C   UNL     1       6.089   3.748  14.540  0.00  0.00    +0.000 A 
ATOM      9  C   UNL     1       6.668   4.621  15.429  0.00  0.00    +0.000 A 
ATOM     10  O   UNL     1       7.521   5.431  14.741  0.00  0.00    +0.000 OA
ATOM     11  N   UNL     1       7.504   5.110  13.402  0.00  0.00    +0.000 NA
BRANCH   7  12
ATOM     12  C   UNL     1       6.389   3.431  12.002  0.00  0.00    +0.000 C 
ATOM     13  O   UNL     1       7.144   2.588  11.531  0.00  0.00    +0.000 OA
BRANCH  12  14
ATOM     14  O   UNL     1       5.289   3.926  11.364  0.00  0.00    +0.000 OA
BRANCH  14  16
ATOM     15  C   UNL     1       3.230   3.554  10.216  0.00  0.00    +0.000 C 
ATOM     16  C   UNL     1       4.164   3.045  11.300  0.00  0.00    +0.000 C 
ENDBRANCH  14  16
ENDBRANCH  12  14
ENDBRANCH   7  12
ENDBRANCH   1   9
BRANCH   5  17
ATOM     17  O   UNL     1       4.213   4.147  19.549  0.00  0.00    +0.000 OA
BRANCH  17  18
ATOM     18  C   UNL     1       2.992   4.462  18.880  0.00  0.00    +0.000 C 
BRANCH  18  19
ATOM     19  C   UNL     1       2.486   5.796  19.358  0.00  0.00    +0.000 A 
ATOM     20  C   UNL     1       1.947   5.921  20.649  0.00  0.00    +0.000 A 
ATOM     21  C   UNL     1       1.428   7.140  21.085  0.00  0.00    +0.000 A 
ATOM     22  C   UNL     1       1.452   8.250  20.242  0.00  0.00    +0.000 A 
ATOM     23  C   UNL     1       2.010   8.137  18.969  0.00  0.00    +0.000 A 
ATOM     24 BR   UNL     1       2.043   9.642  17.825  0.00  0.00    +0.000 Br
ATOM     25  C   UNL     1       2.531   6.922  18.525  0.00  0.00    +0.000 A 
ENDBRANCH  18  19
ENDBRANCH  17  18
ENDBRANCH   5  17
TORSDOF 7
ENDMDL
MODEL 4
REMARK VINA RESULT:      -7.9      0.878      1.482
REMARK  Name = 
REMARK  8 active torsions:
REMARK  status: ('A' for Active; 'I' for Inactive)
REMARK    1  A    between atoms: C_1  and  C_2
REMARK    2  A    between atoms: C_2  and  O_3
REMARK    3  A    between atoms: O_3  and  C_4
REMARK    4  A    between atoms: C_4  and  C_6
REMARK    5  A    between atoms: C_8  and  C_9
REMARK    6  A    between atoms: C_13  and  O_14
REMARK    7  A    between atoms: O_14  and  C_15
REMARK    8  A    between atoms: C_15  and  C_16
REMARK                            x       y       z     vdW  Elec       q    Type
REMARK                         _______ _______ _______ _____ _____    ______ ____
ROOT
ATOM      1  C   UNL     1       4.005   4.028  19.118  0.00  0.00    +0.000 A 
ATOM      2  C   UNL     1       3.996   2.877  19.920  0.00  0.00    +0.000 A 
ATOM      3  C   UNL     1       3.075   2.734  20.955  0.00  0.00    +0.000 A 
ATOM      4  C   UNL     1       2.156   3.746  21.214  0.00  0.00    +0.000 A 
ATOM      5  C   UNL     1       2.170   4.913  20.447  0.00  0.00    +0.000 A 
ATOM      6  C   UNL     1       3.065   5.036  19.382  0.00  0.00    +0.000 A 
ENDROOT
BRANCH   1   9
ATOM      7  C   UNL     1       6.315   4.494  16.309  0.00  0.00    +0.000 A 
ATOM      8  C   UNL     1       4.960   4.330  16.698  0.00  0.00    +0.000 A 
ATOM      9  C   UNL     1       4.996   4.195  18.065  0.00  0.00    +0.000 A 
ATOM     10  O   UNL     1       6.296   4.263  18.469  0.00  0.00    +0.000 OA
ATOM     11  N   UNL     1       7.121   4.454  17.384  0.00  0.00    +0.000 NA
BRANCH   7  12
ATOM     12  C   UNL     1       6.831   4.629  14.953  0.00  0.00    +0.000 C 
ATOM     13  O   UNL     1       7.830   5.287  14.684  0.00  0.00    +0.000 OA
BRANCH  12  14
ATOM     14  O   UNL     1       6.032   4.024  14.027  0.00  0.00    +0.000 OA
BRANCH  14  16
ATOM     15  C   UNL     1       5.758   2.860  11.962  0.00  0.00    +0.000 C 
ATOM     16  C   UNL     1       6.607   3.860  12.728  0.00  0.00    +0.000 C 
ENDBRANCH  14  16
ENDBRANCH  12  14
ENDBRANCH   7  12
ENDBRANCH   1   9
BRANCH   5  17
ATOM     17  O   UNL     1       1.358   5.998  20.662  0.00  0.00    +0.000 OA
BRANCH  17  18
ATOM     18  C   UNL     1       2.051   7.213  20.945  0.00  0.00    +0.000 C 
BRANCH  18  19
ATOM     19  C   UNL     1       1.482   8.324  20.102  0.00  0.00    +0.000 A 
ATOM     20  C   UNL     1       1.856   8.444  18.754  0.00  0.00    +0.000 A 
ATOM     21  C   UNL     1       1.376   9.499  17.978  0.00  0.00    +0.000 A 
ATOM     22  C   UNL     1       0.508  10.437  18.536  0.00  0.00    +0.000 A 
ATOM     23  C   UNL     1       0.113  10.306  19.867  0.00  0.00    +0.000 A 
ATOM     24 BR   UNL     1      -1.064  11.577  20.623  0.00  0.00    +0.000 Br
ATOM     25  C   UNL     1       0.589   9.255  20.649  0.00  0.00    +0.000 A 
ENDBRANCH  18  19
ENDBRANCH  17  18
ENDBRANCH   5  17
TORSDOF 7
ENDMDL
MODEL 5
REMARK VINA RESULT:      -7.8      1.522      1.652
REMARK  Name = 
REMARK  8 active torsions:
REMARK  status: ('A' for Active; 'I' for Inactive)
REMARK    1  A    between atoms: C_1  and  C_2
REMARK    2  A    between atoms: C_2  and  O_3
REMARK    3  A    between atoms: O_3  and  C_4
REMARK    4  A    between atoms: C_4  and  C_6
REMARK    5  A    between atoms: C_8  and  C_9
REMARK    6  A    between atoms: C_13  and  O_14
REMARK    7  A    between atoms: O_14  and  C_15
REMARK    8  A    between atoms: C_15  and  C_16
REMARK                            x       y       z     vdW  Elec       q    Type
REMARK                         _______ _______ _______ _____ _____    ______ ____
ROOT
ATOM      1  C   UNL     1       3.265   5.329  18.464  0.00  0.00    +0.000 A 
ATOM      2  C   UNL     1       2.737   4.085  18.840  0.00  0.00    +0.000 A 
ATOM      3  C   UNL     1       1.817   3.983  19.880  0.00  0.00    +0.000 A 
ATOM      4  C   UNL     1       1.419   5.124  20.570  0.00  0.00    +0.000 A 
ATOM      5  C   UNL     1       1.957   6.367  20.232  0.00  0.00    +0.000 A 
ATOM      6  C   UNL     1       2.846   6.473  19.161  0.00  0.00    +0.000 A 
ENDROOT
BRANCH   1   9
ATOM      7  C   UNL     1       5.762   5.329  15.779  0.00  0.00    +0.000 A 
ATOM      8  C   UNL     1       5.042   4.537  16.711  0.00  0.00    +0.000 A 
ATOM      9  C   UNL     1       4.260   5.427  17.405  0.00  0.00    +0.000 A 
ATOM     10  O   UNL     1       4.504   6.680  16.925  0.00  0.00    +0.000 OA
ATOM     11  N   UNL     1       5.434   6.626  15.911  0.00  0.00    +0.000 NA
BRANCH   7  12
ATOM     12  C   UNL     1       6.772   4.875  14.832  0.00  0.00    +0.000 C 
ATOM     13  O   UNL     1       7.812   5.489  14.624  0.00  0.00    +0.000 OA
BRANCH  12  14
ATOM     14  O   UNL     1       6.386   3.757  14.152  0.00  0.00    +0.000 OA
BRANCH  14  16
ATOM     15  C   UNL     1       5.655   3.051  11.992  0.00  0.00    +0.000 C 
ATOM     16  C   UNL     1       5.357   3.952  13.178  0.00  0.00    +0.000 C 
ENDBRANCH  14  16
ENDBRANCH  12  14
ENDBRANCH   7  12
ENDBRANCH   1   9
BRANCH   5  17
ATOM     17  O   UNL     1       1.688   7.539  20.892  0.00  0.00    +0.000 OA
BRANCH  17  18
ATOM     18  C   UNL     1       1.037   8.532  20.099  0.00  0.00    +0.000 C 
BRANCH  18  19
ATOM     19  C   UNL     1       0.410   9.562  21.001  0.00  0.00    +0.000 A 
ATOM     20  C   UNL     1      -0.045   9.194  22.278  0.00  0.00    +0.000 A 
ATOM     21  C   UNL     1      -0.674  10.128  23.101  0.00  0.00    +0.000 A 
ATOM     22  C   UNL     1      -0.844  11.441  22.665  0.00  0.00    +0.000 A 
ATOM     23  C   UNL     1      -0.369  11.817  21.409  0.00  0.00    +0.000 A 
ATOM     24 BR   UNL     1      -0.599  13.598  20.816  0.00  0.00    +0.000 Br
ATOM     25  C   UNL     1       0.260  10.890  20.579  0.00  0.00    +0.000 A 
ENDBRANCH  18  19
ENDBRANCH  17  18
ENDBRANCH   5  17
TORSDOF 7
ENDMDL
MODEL 6
REMARK VINA RESULT:      -7.7      1.484      1.860
REMARK  Name = 
REMARK  8 active torsions:
REMARK  status: ('A' for Active; 'I' for Inactive)
REMARK    1  A    between atoms: C_1  and  C_2
REMARK    2  A    between atoms: C_2  and  O_3
REMARK    3  A    between atoms: O_3  and  C_4
REMARK    4  A    between atoms: C_4  and  C_6
REMARK    5  A    between atoms: C_8  and  C_9
REMARK    6  A    between atoms: C_13  and  O_14
REMARK    7  A    between atoms: O_14  and  C_15
REMARK    8  A    between atoms: C_15  and  C_16
REMARK                            x       y       z     vdW  Elec       q    Type
REMARK                         _______ _______ _______ _____ _____    ______ ____
ROOT
ATOM      1  C   UNL     1       3.164   3.682  18.033  0.00  0.00    +0.000 A 
ATOM      2  C   UNL     1       2.526   2.433  17.979  0.00  0.00    +0.000 A 
ATOM      3  C   UNL     1       1.415   2.162  18.774  0.00  0.00    +0.000 A 
ATOM      4  C   UNL     1       0.932   3.132  19.647  0.00  0.00    +0.000 A 
ATOM      5  C   UNL     1       1.572   4.369  19.739  0.00  0.00    +0.000 A 
ATOM      6  C   UNL     1       2.658   4.654  18.910  0.00  0.00    +0.000 A 
ENDROOT
BRANCH   1   9
ATOM      7  C   UNL     1       6.005   4.365  15.819  0.00  0.00    +0.000 A 
ATOM      8  C   UNL     1       4.629   4.025  15.889  0.00  0.00    +0.000 A 
ATOM      9  C   UNL     1       4.350   3.948  17.232  0.00  0.00    +0.000 A 
ATOM     10  O   UNL     1       5.494   4.216  17.925  0.00  0.00    +0.000 OA
ATOM     11  N   UNL     1       6.525   4.480  17.052  0.00  0.00    +0.000 NA
BRANCH   7  12
ATOM     12  C   UNL     1       6.812   4.520  14.616  0.00  0.00    +0.000 C 
ATOM     13  O   UNL     1       7.711   5.349  14.520  0.00  0.00    +0.000 OA
BRANCH  12  14
ATOM     14  O   UNL     1       6.394   3.713  13.597  0.00  0.00    +0.000 OA
BRANCH  14  16
ATOM     15  C   UNL     1       6.915   2.712  11.495  0.00  0.00    +0.000 C 
ATOM     16  C   UNL     1       6.965   3.989  12.316  0.00  0.00    +0.000 C 
ENDBRANCH  14  16
ENDBRANCH  12  14
ENDBRANCH   7  12
ENDBRANCH   1   9
BRANCH   5  17
ATOM     17  O   UNL     1       1.223   5.366  20.615  0.00  0.00    +0.000 OA
BRANCH  17  18
ATOM     18  C   UNL     1       2.205   6.389  20.774  0.00  0.00    +0.000 C 
BRANCH  18  19
ATOM     19  C   UNL     1       1.586   7.730  20.477  0.00  0.00    +0.000 A 
ATOM     20  C   UNL     1       1.738   8.307  19.206  0.00  0.00    +0.000 A 
ATOM     21  C   UNL     1       1.213   9.570  18.935  0.00  0.00    +0.000 A 
ATOM     22  C   UNL     1       0.521  10.266  19.925  0.00  0.00    +0.000 A 
ATOM     23  C   UNL     1       0.345   9.685  21.181  0.00  0.00    +0.000 A 
ATOM     24 BR   UNL     1      -0.594  10.627  22.525  0.00  0.00    +0.000 Br
ATOM     25  C   UNL     1       0.867   8.422  21.460  0.00  0.00    +0.000 A 
ENDBRANCH  18  19
ENDBRANCH  17  18
ENDBRANCH   5  17
TORSDOF 7
ENDMDL
MODEL 7
REMARK VINA RESULT:      -7.7      1.608      2.128
REMARK  Name = 
REMARK  8 active torsions:
REMARK  status: ('A' for Active; 'I' for Inactive)
REMARK    1  A    between atoms: C_1  and  C_2
REMARK    2  A    between atoms: C_2  and  O_3
REMARK    3  A    between atoms: O_3  and  C_4
REMARK    4  A    between atoms: C_4  and  C_6
REMARK    5  A    between atoms: C_8  and  C_9
REMARK    6  A    between atoms: C_13  and  O_14
REMARK    7  A    between atoms: O_14  and  C_15
REMARK    8  A    between atoms: C_15  and  C_16
REMARK                            x       y       z     vdW  Elec       q    Type
REMARK                         _______ _______ _______ _____ _____    ______ ____
ROOT
ATOM      1  C   UNL     1       4.038   5.613  18.259  0.00  0.00    +0.000 A 
ATOM      2  C   UNL     1       3.824   4.566  19.168  0.00  0.00    +0.000 A 
ATOM      3  C   UNL     1       2.883   4.684  20.187  0.00  0.00    +0.000 A 
ATOM      4  C   UNL     1       2.148   5.859  20.323  0.00  0.00    +0.000 A 
ATOM      5  C   UNL     1       2.369   6.924  19.449  0.00  0.00    +0.000 A 
ATOM      6  C   UNL     1       3.282   6.787  18.401  0.00  0.00    +0.000 A 
ENDROOT
BRANCH   1   9
ATOM      7  C   UNL     1       6.421   5.238  15.498  0.00  0.00    +0.000 A 
ATOM      8  C   UNL     1       5.135   4.896  15.992  0.00  0.00    +0.000 A 
ATOM      9  C   UNL     1       5.053   5.504  17.221  0.00  0.00    +0.000 A 
ATOM     10  O   UNL     1       6.224   6.162  17.455  0.00  0.00    +0.000 OA
ATOM     11  N   UNL     1       7.077   6.004  16.386  0.00  0.00    +0.000 NA
BRANCH   7  12
ATOM     12  C   UNL     1       7.028   4.802  14.247  0.00  0.00    +0.000 C 
ATOM     13  O   UNL     1       7.923   5.427  13.690  0.00  0.00    +0.000 OA
BRANCH  12  14
ATOM     14  O   UNL     1       6.427   3.689  13.734  0.00  0.00    +0.000 OA
BRANCH  14  16
ATOM     15  C   UNL     1       5.044   3.211  11.849  0.00  0.00    +0.000 C 
ATOM     16  C   UNL     1       6.444   3.580  12.308  0.00  0.00    +0.000 C 
ENDBRANCH  14  16
ENDBRANCH  12  14
ENDBRANCH   7  12
ENDBRANCH   1   9
BRANCH   5  17
ATOM     17  O   UNL     1       1.754   8.147  19.537  0.00  0.00    +0.000 OA
BRANCH  17  18
ATOM     18  C   UNL     1       1.254   8.470  20.834  0.00  0.00    +0.000 C 
BRANCH  18  19
ATOM     19  C   UNL     1       0.514   9.780  20.775  0.00  0.00    +0.000 A 
ATOM     20  C   UNL     1       0.699  10.642  19.682  0.00  0.00    +0.000 A 
ATOM     21  C   UNL     1       0.059  11.881  19.642  0.00  0.00    +0.000 A 
ATOM     22  C   UNL     1      -0.781  12.267  20.685  0.00  0.00    +0.000 A 
ATOM     23  C   UNL     1      -0.988  11.403  21.759  0.00  0.00    +0.000 A 
ATOM     24 BR   UNL     1      -2.129  11.924  23.174  0.00  0.00    +0.000 Br
ATOM     25  C   UNL     1      -0.352  10.163  21.808  0.00  0.00    +0.000 A 
ENDBRANCH  18  19
ENDBRANCH  17  18
ENDBRANCH   5  17
TORSDOF 7
ENDMDL
MODEL 8
REMARK VINA RESULT:      -7.6      1.301      1.305
REMARK  Name = 
REMARK  8 active torsions:
REMARK  status: ('A' for Active; 'I' for Inactive)
REMARK    1  A    between atoms: C_1  and  C_2
REMARK    2  A    between atoms: C_2  and  O_3
REMARK    3  A    between atoms: O_3  and  C_4
REMARK    4  A    between atoms: C_4  and  C_6
REMARK    5  A    between atoms: C_8  and  C_9
REMARK    6  A    between atoms: C_13  and  O_14
REMARK    7  A    between atoms: O_14  and  C_15
REMARK    8  A    between atoms: C_15  and  C_16
REMARK                            x       y       z     vdW  Elec       q    Type
REMARK                         _______ _______ _______ _____ _____    ______ ____
ROOT
ATOM      1  C   UNL     1       2.945   4.634  18.645  0.00  0.00    +0.000 A 
ATOM      2  C   UNL     1       2.516   3.324  18.908  0.00  0.00    +0.000 A 
ATOM      3  C   UNL     1       1.526   3.071  19.855  0.00  0.00    +0.000 A 
ATOM      4  C   UNL     1       0.960   4.125  20.566  0.00  0.00    +0.000 A 
ATOM      5  C   UNL     1       1.396   5.432  20.343  0.00  0.00    +0.000 A 
ATOM      6  C   UNL     1       2.356   5.687  19.362  0.00  0.00    +0.000 A 
ENDROOT
BRANCH   1   9
ATOM      7  C   UNL     1       5.669   5.037  16.225  0.00  0.00    +0.000 A 
ATOM      8  C   UNL     1       5.023   4.151  17.126  0.00  0.00    +0.000 A 
ATOM      9  C   UNL     1       4.010   4.891  17.686  0.00  0.00    +0.000 A 
ATOM     10  O   UNL     1       4.053   6.148  17.160  0.00  0.00    +0.000 OA
ATOM     11  N   UNL     1       5.080   6.245  16.248  0.00  0.00    +0.000 NA
BRANCH   7  12
ATOM     12  C   UNL     1       6.845   4.761  15.411  0.00  0.00    +0.000 C 
ATOM     13  O   UNL     1       7.945   4.513  15.893  0.00  0.00    +0.000 OA
BRANCH  12  14
ATOM     14  O   UNL     1       6.602   4.902  14.075  0.00  0.00    +0.000 OA
BRANCH  14  16
ATOM     15  C   UNL     1       6.465   3.438  12.196  0.00  0.00    +0.000 C 
ATOM     16  C   UNL     1       5.793   3.882  13.483  0.00  0.00    +0.000 C 
ENDBRANCH  14  16
ENDBRANCH  12  14
ENDBRANCH   7  12
ENDBRANCH   1   9
BRANCH   5  17
ATOM     17  O   UNL     1       0.957   6.531  21.036  0.00  0.00    +0.000 OA
BRANCH  17  18
ATOM     18  C   UNL     1       1.589   7.757  20.671  0.00  0.00    +0.000 C 
BRANCH  18  19
ATOM     19  C   UNL     1       0.745   8.915  21.135  0.00  0.00    +0.000 A 
ATOM     20  C   UNL     1       0.508   9.106  22.506  0.00  0.00    +0.000 A 
ATOM     21  C   UNL     1      -0.314  10.144  22.944  0.00  0.00    +0.000 A 
ATOM     22  C   UNL     1      -0.897  11.009  22.020  0.00  0.00    +0.000 A 
ATOM     23  C   UNL     1      -0.643  10.840  20.660  0.00  0.00    +0.000 A 
ATOM     24 BR   UNL     1      -1.434  12.013  19.406  0.00  0.00    +0.000 Br
ATOM     25  C   UNL     1       0.177   9.804  20.213  0.00  0.00    +0.000 A 
ENDBRANCH  18  19
ENDBRANCH  17  18
ENDBRANCH   5  17
TORSDOF 7
ENDMDL
MODEL 9
REMARK VINA RESULT:      -7.6      1.053      1.350
REMARK  Name = 
REMARK  8 active torsions:
REMARK  status: ('A' for Active; 'I' for Inactive)
REMARK    1  A    between atoms: C_1  and  C_2
REMARK    2  A    between atoms: C_2  and  O_3
REMARK    3  A    between atoms: O_3  and  C_4
REMARK    4  A    between atoms: C_4  and  C_6
REMARK    5  A    between atoms: C_8  and  C_9
REMARK    6  A    between atoms: C_13  and  O_14
REMARK    7  A    between atoms: O_14  and  C_15
REMARK    8  A    between atoms: C_15  and  C_16
REMARK                            x       y       z     vdW  Elec       q    Type
REMARK                         _______ _______ _______ _____ _____    ______ ____
ROOT
ATOM      1  C   UNL     1       3.605   5.218  18.762  0.00  0.00    +0.000 A 
ATOM      2  C   UNL     1       3.183   4.157  19.578  0.00  0.00    +0.000 A 
ATOM      3  C   UNL     1       2.234   4.356  20.577  0.00  0.00    +0.000 A 
ATOM      4  C   UNL     1       1.699   5.624  20.786  0.00  0.00    +0.000 A 
ATOM      5  C   UNL     1       2.129   6.699  20.006  0.00  0.00    +0.000 A 
ATOM      6  C   UNL     1       3.048   6.489  18.976  0.00  0.00    +0.000 A 
ENDROOT
BRANCH   1   9
ATOM      7  C   UNL     1       6.057   4.865  16.060  0.00  0.00    +0.000 A 
ATOM      8  C   UNL     1       4.769   5.339  16.419  0.00  0.00    +0.000 A 
ATOM      9  C   UNL     1       4.629   5.017  17.747  0.00  0.00    +0.000 A 
ATOM     10  O   UNL     1       5.762   4.379  18.157  0.00  0.00    +0.000 OA
ATOM     11  N   UNL     1       6.656   4.285  17.114  0.00  0.00    +0.000 NA
BRANCH   7  12
ATOM     12  C   UNL     1       6.676   4.912  14.742  0.00  0.00    +0.000 C 
ATOM     13  O   UNL     1       7.817   5.320  14.557  0.00  0.00    +0.000 OA
BRANCH  12  14
ATOM     14  O   UNL     1       5.817   4.544  13.747  0.00  0.00    +0.000 OA
BRANCH  14  16
ATOM     15  C   UNL     1       5.187   3.211  11.871  0.00  0.00    +0.000 C 
ATOM     16  C   UNL     1       6.267   3.480  12.904  0.00  0.00    +0.000 C 
ENDBRANCH  14  16
ENDBRANCH  12  14
ENDBRANCH   7  12
ENDBRANCH   1   9
BRANCH   5  17
ATOM     17  O   UNL     1       1.721   7.998  20.174  0.00  0.00    +0.000 OA
BRANCH  17  18
ATOM     18  C   UNL     1       1.100   8.269  21.431  0.00  0.00    +0.000 C 
BRANCH  18  19
ATOM     19  C   UNL     1       0.280   9.527  21.324  0.00  0.00    +0.000 A 
ATOM     20  C   UNL     1      -0.161  10.178  22.488  0.00  0.00    +0.000 A 
ATOM     21  C   UNL     1      -0.964  11.315  22.401  0.00  0.00    +0.000 A 
ATOM     22  C   UNL     1      -1.324  11.822  21.153  0.00  0.00    +0.000 A 
ATOM     23  C   UNL     1      -0.866  11.194  19.996  0.00  0.00    +0.000 A 
ATOM     24 BR   UNL     1      -1.354  11.881  18.303  0.00  0.00    +0.000 Br
ATOM     25  C   UNL     1      -0.063  10.057  20.073  0.00  0.00    +0.000 A 
ENDBRANCH  18  19
ENDBRANCH  17  18
ENDBRANCH   5  17
TORSDOF 7
ENDMDL
