MODEL 1
REMARK VINA RESULT:      -9.1      0.000      0.000
REMARK  Name = 
REMARK  10 active torsions:
REMARK  status: ('A' for Active; 'I' for Inactive)
REMARK    1  A    between atoms: C_2  and  C_26
REMARK    2  A    between atoms: N_3  and  C_4
REMARK    3  A    between atoms: C_4  and  C_5
REMARK    4  A    between atoms: C_4  and  C_16
REMARK    5  A    between atoms: C_5  and  C_6
REMARK    6  A    between atoms: CA_22  and  C_23
REMARK    7  A    between atoms: C_23  and  OXT_25
REMARK    8  A    between atoms: C_26  and  S_27
REMARK    9  A    between atoms: C_26  and  C_28
REMARK   10  A    between atoms: C_28  and  C_29
REMARK                            x       y       z     vdW  Elec       q    Type
REMARK                         _______ _______ _______ _____ _____    ______ ____
ROOT
ATOM      1  C   UNK A   1       3.388   6.560  18.669  0.00  0.00    +0.000 C 
ENDROOT
BRANCH   1   2
ATOM      2  C   UNK A   1       2.671   5.210  18.306  0.00  0.00    +0.000 C 
ATOM      3  O   UNK A   1       1.754   5.165  17.474  0.00  0.00    +0.000 OA
ATOM      4  N   PRO A   2       3.062   4.003  18.845  0.00  0.00    +0.000 N 
ATOM      5  CD  PRO A   2       4.206   3.704  19.682  0.00  0.00    +0.000 C 
ATOM      6  CG  PRO A   2       4.705   2.376  19.132  0.00  0.00    +0.000 C 
ATOM      7  CB  PRO A   2       3.435   1.634  18.732  0.00  0.00    +0.000 C 
ATOM      8  CA  PRO A   2       2.422   2.738  18.411  0.00  0.00    +0.000 C 
BRANCH   8   9
ATOM      9  C   PRO A   2       1.066   2.500  19.123  0.00  0.00    +0.000 C 
ATOM     10  O   PRO A   2       0.027   2.212  18.563  0.00  0.00    +0.000 OA
BRANCH   9  11
ATOM     11  OXT PRO A   2       1.139   2.707  20.460  0.00  0.00    +0.000 OA
ATOM     12  HXT PRO A   2       1.754   2.068  20.900  0.00  0.00    +0.000 HD
ENDBRANCH   9  11
ENDBRANCH   8   9
ENDBRANCH   1   2
BRANCH   1  15
ATOM     13  O   UNK A   0       4.598   6.577  16.126  0.00  0.00    +0.000 OA
ATOM     14  C   UNK A   0       5.323   6.346  17.092  0.00  0.00    +0.000 C 
ATOM     15  N   UNK A   1       4.826   6.395  18.375  0.00  0.00    +0.000 N 
ATOM     16  H   UNK A   1       5.483   6.382  19.146  0.00  0.00    +0.000 HD
BRANCH  14  17
ATOM     17  C   UNK A   0       6.814   6.019  16.937  0.00  0.00    +0.000 C 
BRANCH  17  18
ATOM     18  S   UNK A   0       7.659   6.153  18.562  0.00  0.00    +0.000 S 
ATOM     19  H   UNK A   0       6.810   5.374  19.255  0.00  0.00    +0.000 HD
ENDBRANCH  17  18
BRANCH  17  20
ATOM     20  C   UNK A   0       7.034   4.606  16.343  0.00  0.00    +0.000 C 
BRANCH  20  21
ATOM     21  C   UNK A   0       6.896   4.582  14.830  0.00  0.00    +0.000 A 
ATOM     22  C   UNK A   0       5.981   3.724  14.212  0.00  0.00    +0.000 A 
ATOM     23  C   UNK A   0       6.000   3.549  12.827  0.00  0.00    +0.000 A 
ATOM     24  C   UNK A   0       6.917   4.249  12.045  0.00  0.00    +0.000 A 
ATOM     25  C   UNK A   0       7.798   5.147  12.642  0.00  0.00    +0.000 A 
ATOM     26  C   UNK A   0       7.780   5.322  14.028  0.00  0.00    +0.000 A 
ENDBRANCH  20  21
ENDBRANCH  17  20
ENDBRANCH  14  17
ENDBRANCH   1  15
BRANCH   1  27
ATOM     27  C   UNK A   1       2.724   7.806  17.974  0.00  0.00    +0.000 C 
BRANCH  27  28
ATOM     28  C   UNK A   1       1.722   8.594  18.802  0.00  0.00    +0.000 A 
ATOM     29  C   UNK A   1       1.032   9.652  18.212  0.00  0.00    +0.000 A 
ATOM     30  C   UNK A   1       0.243  10.512  18.970  0.00  0.00    +0.000 A 
ATOM     31  C   UNK A   1       0.069  10.300  20.341  0.00  0.00    +0.000 A 
ATOM     32  C   UNK A   1      -0.710  11.179  21.106  0.00  0.00    +0.000 A 
ATOM     33  C   UNK A   1      -0.882  10.967  22.474  0.00  0.00    +0.000 A 
ATOM     34  C   UNK A   1      -0.276   9.875  23.086  0.00  0.00    +0.000 A 
ATOM     35  C   UNK A   1       0.500   8.989  22.333  0.00  0.00    +0.000 A 
ATOM     36  C   UNK A   1       0.683   9.187  20.952  0.00  0.00    +0.000 A 
ATOM     37  C   UNK A   1       1.488   8.332  20.165  0.00  0.00    +0.000 A 
ENDBRANCH  27  28
ENDBRANCH   1  27
TORSDOF 10
ENDMDL
MODEL 2
REMARK VINA RESULT:      -8.9      1.208      1.919
REMARK  Name = 
REMARK  10 active torsions:
REMARK  status: ('A' for Active; 'I' for Inactive)
REMARK    1  A    between atoms: C_2  and  C_26
REMARK    2  A    between atoms: N_3  and  C_4
REMARK    3  A    between atoms: C_4  and  C_5
REMARK    4  A    between atoms: C_4  and  C_16
REMARK    5  A    between atoms: C_5  and  C_6
REMARK    6  A    between atoms: CA_22  and  C_23
REMARK    7  A    between atoms: C_23  and  OXT_25
REMARK    8  A    between atoms: C_26  and  S_27
REMARK    9  A    between atoms: C_26  and  C_28
REMARK   10  A    between atoms: C_28  and  C_29
REMARK                            x       y       z     vdW  Elec       q    Type
REMARK                         _______ _______ _______ _____ _____    ______ ____
ROOT
ATOM      1  C   UNK A   1       3.735   6.174  18.821  0.00  0.00    +0.000 C 
ENDROOT
BRANCH   1   2
ATOM      2  C   UNK A   1       3.419   4.636  18.774  0.00  0.00    +0.000 C 
ATOM      3  O   UNK A   1       3.948   3.889  17.939  0.00  0.00    +0.000 OA
ATOM      4  N   PRO A   2       2.586   4.029  19.690  0.00  0.00    +0.000 N 
ATOM      5  CD  PRO A   2       1.980   4.586  20.883  0.00  0.00    +0.000 C 
ATOM      6  CG  PRO A   2       2.116   3.463  21.901  0.00  0.00    +0.000 C 
ATOM      7  CB  PRO A   2       1.924   2.190  21.085  0.00  0.00    +0.000 C 
ATOM      8  CA  PRO A   2       2.381   2.561  19.670  0.00  0.00    +0.000 C 
BRANCH   8   9
ATOM      9  C   PRO A   2       1.344   2.135  18.600  0.00  0.00    +0.000 C 
ATOM     10  O   PRO A   2       0.140   2.109  18.769  0.00  0.00    +0.000 OA
BRANCH   9  11
ATOM     11  OXT PRO A   2       1.925   1.730  17.445  0.00  0.00    +0.000 OA
ATOM     12  HXT PRO A   2       1.875   2.425  16.742  0.00  0.00    +0.000 HD
ENDBRANCH   9  11
ENDBRANCH   8   9
ENDBRANCH   1   2
BRANCH   1  15
ATOM     13  O   UNK A   0       4.476   6.807  16.179  0.00  0.00    +0.000 OA
ATOM     14  C   UNK A   0       5.384   6.602  16.984  0.00  0.00    +0.000 C 
ATOM     15  N   UNK A   1       5.109   6.362  18.311  0.00  0.00    +0.000 N 
ATOM     16  H   UNK A   1       5.877   6.382  18.972  0.00  0.00    +0.000 HD
BRANCH  14  17
ATOM     17  C   UNK A   0       6.862   6.627  16.574  0.00  0.00    +0.000 C 
BRANCH  17  18
ATOM     18  S   UNK A   0       7.885   7.284  17.951  0.00  0.00    +0.000 S 
ATOM     19  H   UNK A   0       7.473   8.562  17.867  0.00  0.00    +0.000 HD
ENDBRANCH  17  18
BRANCH  17  20
ATOM     20  C   UNK A   0       7.369   5.222  16.165  0.00  0.00    +0.000 C 
BRANCH  20  21
ATOM     21  C   UNK A   0       6.992   4.859  14.739  0.00  0.00    +0.000 A 
ATOM     22  C   UNK A   0       5.941   3.971  14.484  0.00  0.00    +0.000 A 
ATOM     23  C   UNK A   0       5.731   3.477  13.195  0.00  0.00    +0.000 A 
ATOM     24  C   UNK A   0       6.552   3.885  12.146  0.00  0.00    +0.000 A 
ATOM     25  C   UNK A   0       7.567   4.810  12.376  0.00  0.00    +0.000 A 
ATOM     26  C   UNK A   0       7.780   5.304  13.664  0.00  0.00    +0.000 A 
ENDBRANCH  20  21
ENDBRANCH  17  20
ENDBRANCH  14  17
ENDBRANCH   1  15
BRANCH   1  27
ATOM     27  C   UNK A   1       2.647   7.041  18.086  0.00  0.00    +0.000 C 
BRANCH  27  28
ATOM     28  C   UNK A   1       1.939   8.095  18.922  0.00  0.00    +0.000 A 
ATOM     29  C   UNK A   1       1.807   7.900  20.296  0.00  0.00    +0.000 A 
ATOM     30  C   UNK A   1       1.016   8.741  21.073  0.00  0.00    +0.000 A 
ATOM     31  C   UNK A   1       0.379   9.848  20.504  0.00  0.00    +0.000 A 
ATOM     32  C   UNK A   1      -0.433  10.683  21.285  0.00  0.00    +0.000 A 
ATOM     33  C   UNK A   1      -1.070  11.786  20.717  0.00  0.00    +0.000 A 
ATOM     34  C   UNK A   1      -0.898  12.062  19.364  0.00  0.00    +0.000 A 
ATOM     35  C   UNK A   1      -0.087  11.240  18.576  0.00  0.00    +0.000 A 
ATOM     36  C   UNK A   1       0.563  10.123  19.133  0.00  0.00    +0.000 A 
ATOM     37  C   UNK A   1       1.363   9.250  18.361  0.00  0.00    +0.000 A 
ENDBRANCH  27  28
ENDBRANCH   1  27
TORSDOF 10
ENDMDL
MODEL 3
REMARK VINA RESULT:      -8.6      1.323      1.521
REMARK  Name = 
REMARK  10 active torsions:
REMARK  status: ('A' for Active; 'I' for Inactive)
REMARK    1  A    between atoms: C_2  and  C_26
REMARK    2  A    between atoms: N_3  and  C_4
REMARK    3  A    between atoms: C_4  and  C_5
REMARK    4  A    between atoms: C_4  and  C_16
REMARK    5  A    between atoms: C_5  and  C_6
REMARK    6  A    between atoms: CA_22  and  C_23
REMARK    7  A    between atoms: C_23  and  OXT_25
REMARK    8  A    between atoms: C_26  and  S_27
REMARK    9  A    between atoms: C_26  and  C_28
REMARK   10  A    between atoms: C_28  and  C_29
REMARK                            x       y       z     vdW  Elec       q    Type
REMARK                         _______ _______ _______ _____ _____    ______ ____
ROOT
ATOM      1  C   UNK A   1       3.493   6.438  19.004  0.00  0.00    +0.000 C 
ENDROOT
BRANCH   1   2
ATOM      2  C   UNK A   1       2.645   5.361  19.771  0.00  0.00    +0.000 C 
ATOM      3  O   UNK A   1       1.926   5.664  20.733  0.00  0.00    +0.000 OA
ATOM      4  N   PRO A   2       2.610   4.039  19.380  0.00  0.00    +0.000 N 
ATOM      5  CD  PRO A   2       3.178   3.420  18.199  0.00  0.00    +0.000 C 
ATOM      6  CG  PRO A   2       2.097   2.442  17.763  0.00  0.00    +0.000 C 
ATOM      7  CB  PRO A   2       1.501   1.932  19.070  0.00  0.00    +0.000 C 
ATOM      8  CA  PRO A   2       1.729   3.068  20.073  0.00  0.00    +0.000 C 
BRANCH   8   9
ATOM      9  C   PRO A   2       2.357   2.554  21.393  0.00  0.00    +0.000 C 
ATOM     10  O   PRO A   2       3.522   2.236  21.531  0.00  0.00    +0.000 OA
BRANCH   9  11
ATOM     11  OXT PRO A   2       1.448   2.436  22.389  0.00  0.00    +0.000 OA
ATOM     12  HXT PRO A   2       0.534   2.669  22.085  0.00  0.00    +0.000 HD
ENDBRANCH   9  11
ENDBRANCH   8   9
ENDBRANCH   1   2
BRANCH   1  15
ATOM     13  O   UNK A   0       5.494   7.600  17.398  0.00  0.00    +0.000 OA
ATOM     14  C   UNK A   0       5.485   6.374  17.484  0.00  0.00    +0.000 C 
ATOM     15  N   UNK A   1       4.588   5.731  18.309  0.00  0.00    +0.000 N 
ATOM     16  H   UNK A   1       4.729   4.745  18.495  0.00  0.00    +0.000 HD
BRANCH  14  17
ATOM     17  C   UNK A   0       6.474   5.491  16.712  0.00  0.00    +0.000 C 
BRANCH  17  18
ATOM     18  S   UNK A   0       7.643   4.688  17.879  0.00  0.00    +0.000 S 
ATOM     19  H   UNK A   0       8.689   4.609  17.037  0.00  0.00    +0.000 HD
ENDBRANCH  17  18
BRANCH  17  20
ATOM     20  C   UNK A   0       5.748   4.415  15.869  0.00  0.00    +0.000 C 
BRANCH  20  21
ATOM     21  C   UNK A   0       6.179   4.427  14.412  0.00  0.00    +0.000 A 
ATOM     22  C   UNK A   0       5.573   3.573  13.484  0.00  0.00    +0.000 A 
ATOM     23  C   UNK A   0       6.106   3.433  12.201  0.00  0.00    +0.000 A 
ATOM     24  C   UNK A   0       7.233   4.163  11.827  0.00  0.00    +0.000 A 
ATOM     25  C   UNK A   0       7.813   5.055  12.724  0.00  0.00    +0.000 A 
ATOM     26  C   UNK A   0       7.282   5.197  14.008  0.00  0.00    +0.000 A 
ENDBRANCH  20  21
ENDBRANCH  17  20
ENDBRANCH  14  17
ENDBRANCH   1  15
BRANCH   1  27
ATOM     27  C   UNK A   1       2.614   7.349  18.069  0.00  0.00    +0.000 C 
BRANCH  27  28
ATOM     28  C   UNK A   1       1.733   8.379  18.756  0.00  0.00    +0.000 A 
ATOM     29  C   UNK A   1       1.305   9.496  18.041  0.00  0.00    +0.000 A 
ATOM     30  C   UNK A   1       0.651  10.551  18.671  0.00  0.00    +0.000 A 
ATOM     31  C   UNK A   1       0.347  10.490  20.034  0.00  0.00    +0.000 A 
ATOM     32  C   UNK A   1      -0.294  11.563  20.670  0.00  0.00    +0.000 A 
ATOM     33  C   UNK A   1      -0.594  11.502  22.030  0.00  0.00    +0.000 A 
ATOM     34  C   UNK A   1      -0.256  10.370  22.764  0.00  0.00    +0.000 A 
ATOM     35  C   UNK A   1       0.379   9.292  22.140  0.00  0.00    +0.000 A 
ATOM     36  C   UNK A   1       0.690   9.336  20.768  0.00  0.00    +0.000 A 
ATOM     37  C   UNK A   1       1.362   8.281  20.110  0.00  0.00    +0.000 A 
ENDBRANCH  27  28
ENDBRANCH   1  27
TORSDOF 10
ENDMDL
MODEL 4
REMARK VINA RESULT:      -8.5      2.061      8.477
REMARK  Name = 
REMARK  10 active torsions:
REMARK  status: ('A' for Active; 'I' for Inactive)
REMARK    1  A    between atoms: C_2  and  C_26
REMARK    2  A    between atoms: N_3  and  C_4
REMARK    3  A    between atoms: C_4  and  C_5
REMARK    4  A    between atoms: C_4  and  C_16
REMARK    5  A    between atoms: C_5  and  C_6
REMARK    6  A    between atoms: CA_22  and  C_23
REMARK    7  A    between atoms: C_23  and  OXT_25
REMARK    8  A    between atoms: C_26  and  S_27
REMARK    9  A    between atoms: C_26  and  C_28
REMARK   10  A    between atoms: C_28  and  C_29
REMARK                            x       y       z     vdW  Elec       q    Type
REMARK                         _______ _______ _______ _____ _____    ______ ____
ROOT
ATOM      1  C   UNK A   1       3.597   6.325  18.065  0.00  0.00    +0.000 C 
ENDROOT
BRANCH   1   2
ATOM      2  C   UNK A   1       3.653   5.093  19.037  0.00  0.00    +0.000 C 
ATOM      3  O   UNK A   1       4.341   5.108  20.067  0.00  0.00    +0.000 OA
ATOM      4  N   PRO A   2       2.898   3.958  18.828  0.00  0.00    +0.000 N 
ATOM      5  CD  PRO A   2       1.868   3.715  17.838  0.00  0.00    +0.000 C 
ATOM      6  CG  PRO A   2       0.805   2.956  18.618  0.00  0.00    +0.000 C 
ATOM      7  CB  PRO A   2       1.598   2.087  19.588  0.00  0.00    +0.000 C 
ATOM      8  CA  PRO A   2       2.908   2.851  19.814  0.00  0.00    +0.000 C 
BRANCH   8   9
ATOM      9  C   PRO A   2       4.146   1.934  19.644  0.00  0.00    +0.000 C 
ATOM     10  O   PRO A   2       5.098   1.903  20.399  0.00  0.00    +0.000 OA
BRANCH   9  11
ATOM     11  OXT PRO A   2       4.091   1.192  18.512  0.00  0.00    +0.000 OA
ATOM     12  HXT PRO A   2       4.993   1.005  18.148  0.00  0.00    +0.000 HD
ENDBRANCH   9  11
ENDBRANCH   8   9
ENDBRANCH   1   2
BRANCH   1  15
ATOM     13  O   UNK A   0       2.449   8.600  16.865  0.00  0.00    +0.000 OA
ATOM     14  C   UNK A   0       2.377   8.513  18.090  0.00  0.00    +0.000 C 
ATOM     15  N   UNK A   1       2.845   7.397  18.747  0.00  0.00    +0.000 N 
ATOM     16  H   UNK A   1       2.604   7.279  19.724  0.00  0.00    +0.000 HD
BRANCH  14  17
ATOM     17  C   UNK A   0       1.745   9.613  18.952  0.00  0.00    +0.000 C 
BRANCH  17  18
ATOM     18  S   UNK A   0       2.119  11.264  18.239  0.00  0.00    +0.000 S 
ATOM     19  H   UNK A   0       0.875  11.547  17.814  0.00  0.00    +0.000 HD
ENDBRANCH  17  18
BRANCH  17  20
ATOM     20  C   UNK A   0       0.213   9.432  19.084  0.00  0.00    +0.000 C 
BRANCH  20  21
ATOM     21  C   UNK A   0      -0.298   9.782  20.472  0.00  0.00    +0.000 A 
ATOM     22  C   UNK A   0      -0.766  11.070  20.754  0.00  0.00    +0.000 A 
ATOM     23  C   UNK A   0      -1.036  11.450  22.070  0.00  0.00    +0.000 A 
ATOM     24  C   UNK A   0      -0.865  10.541  23.112  0.00  0.00    +0.000 A 
ATOM     25  C   UNK A   0      -0.451   9.240  22.838  0.00  0.00    +0.000 A 
ATOM     26  C   UNK A   0      -0.180   8.858  21.523  0.00  0.00    +0.000 A 
ENDBRANCH  20  21
ENDBRANCH  17  20
ENDBRANCH  14  17
ENDBRANCH   1  15
BRANCH   1  27
ATOM     27  C   UNK A   1       5.020   6.759  17.552  0.00  0.00    +0.000 C 
BRANCH  27  28
ATOM     28  C   UNK A   1       5.626   5.921  16.437  0.00  0.00    +0.000 A 
ATOM     29  C   UNK A   1       7.011   5.888  16.285  0.00  0.00    +0.000 A 
ATOM     30  C   UNK A   1       7.602   5.286  15.178  0.00  0.00    +0.000 A 
ATOM     31  C   UNK A   1       6.822   4.638  14.216  0.00  0.00    +0.000 A 
ATOM     32  C   UNK A   1       7.419   4.049  13.092  0.00  0.00    +0.000 A 
ATOM     33  C   UNK A   1       6.639   3.404  12.132  0.00  0.00    +0.000 A 
ATOM     34  C   UNK A   1       5.258   3.344  12.289  0.00  0.00    +0.000 A 
ATOM     35  C   UNK A   1       4.652   3.924  13.407  0.00  0.00    +0.000 A 
ATOM     36  C   UNK A   1       5.423   4.578  14.386  0.00  0.00    +0.000 A 
ATOM     37  C   UNK A   1       4.843   5.205  15.512  0.00  0.00    +0.000 A 
ENDBRANCH  27  28
ENDBRANCH   1  27
TORSDOF 10
ENDMDL
MODEL 5
REMARK VINA RESULT:      -8.5      0.545      1.448
REMARK  Name = 
REMARK  10 active torsions:
REMARK  status: ('A' for Active; 'I' for Inactive)
REMARK    1  A    between atoms: C_2  and  C_26
REMARK    2  A    between atoms: N_3  and  C_4
REMARK    3  A    between atoms: C_4  and  C_5
REMARK    4  A    between atoms: C_4  and  C_16
REMARK    5  A    between atoms: C_5  and  C_6
REMARK    6  A    between atoms: CA_22  and  C_23
REMARK    7  A    between atoms: C_23  and  OXT_25
REMARK    8  A    between atoms: C_26  and  S_27
REMARK    9  A    between atoms: C_26  and  C_28
REMARK   10  A    between atoms: C_28  and  C_29
REMARK                            x       y       z     vdW  Elec       q    Type
REMARK                         _______ _______ _______ _____ _____    ______ ____
ROOT
ATOM      1  C   UNK A   1       3.312   6.514  18.597  0.00  0.00    +0.000 C 
ENDROOT
BRANCH   1   2
ATOM      2  C   UNK A   1       2.564   5.178  18.248  0.00  0.00    +0.000 C 
ATOM      3  O   UNK A   1       1.675   5.136  17.387  0.00  0.00    +0.000 OA
ATOM      4  N   PRO A   2       2.896   3.975  18.836  0.00  0.00    +0.000 N 
ATOM      5  CD  PRO A   2       4.002   3.666  19.721  0.00  0.00    +0.000 C 
ATOM      6  CG  PRO A   2       4.475   2.306  19.227  0.00  0.00    +0.000 C 
ATOM      7  CB  PRO A   2       3.196   1.593  18.805  0.00  0.00    +0.000 C 
ATOM      8  CA  PRO A   2       2.230   2.719  18.417  0.00  0.00    +0.000 C 
BRANCH   8   9
ATOM      9  C   PRO A   2       0.844   2.546  19.088  0.00  0.00    +0.000 C 
ATOM     10  O   PRO A   2      -0.011   1.761  18.728  0.00  0.00    +0.000 OA
BRANCH   9  11
ATOM     11  OXT PRO A   2       0.649   3.418  20.107  0.00  0.00    +0.000 OA
ATOM     12  HXT PRO A   2       1.490   3.617  20.589  0.00  0.00    +0.000 HD
ENDBRANCH   9  11
ENDBRANCH   8   9
ENDBRANCH   1   2
BRANCH   1  15
ATOM     13  O   UNK A   0       4.542   6.940  16.099  0.00  0.00    +0.000 OA
ATOM     14  C   UNK A   0       5.244   6.489  17.002  0.00  0.00    +0.000 C 
ATOM     15  N   UNK A   1       4.740   6.323  18.273  0.00  0.00    +0.000 N 
ATOM     16  H   UNK A   1       5.390   6.127  19.025  0.00  0.00    +0.000 HD
BRANCH  14  17
ATOM     17  C   UNK A   0       6.715   6.111  16.783  0.00  0.00    +0.000 C 
BRANCH  17  18
ATOM     18  S   UNK A   0       7.652   6.300  18.352  0.00  0.00    +0.000 S 
ATOM     19  H   UNK A   0       7.687   4.997  18.681  0.00  0.00    +0.000 HD
ENDBRANCH  17  18
BRANCH  17  20
ATOM     20  C   UNK A   0       6.864   4.665  16.251  0.00  0.00    +0.000 C 
BRANCH  20  21
ATOM     21  C   UNK A   0       6.803   4.593  14.734  0.00  0.00    +0.000 A 
ATOM     22  C   UNK A   0       5.991   3.647  14.099  0.00  0.00    +0.000 A 
ATOM     23  C   UNK A   0       6.092   3.442  12.722  0.00  0.00    +0.000 A 
ATOM     24  C   UNK A   0       6.987   4.195  11.964  0.00  0.00    +0.000 A 
ATOM     25  C   UNK A   0       7.762   5.176  12.577  0.00  0.00    +0.000 A 
ATOM     26  C   UNK A   0       7.663   5.383  13.954  0.00  0.00    +0.000 A 
ENDBRANCH  20  21
ENDBRANCH  17  20
ENDBRANCH  14  17
ENDBRANCH   1  15
BRANCH   1  27
ATOM     27  C   UNK A   1       2.656   7.772  17.916  0.00  0.00    +0.000 C 
BRANCH  27  28
ATOM     28  C   UNK A   1       1.843   8.687  18.818  0.00  0.00    +0.000 A 
ATOM     29  C   UNK A   1       1.645   8.330  20.151  0.00  0.00    +0.000 A 
ATOM     30  C   UNK A   1       0.764   9.036  20.965  0.00  0.00    +0.000 A 
ATOM     31  C   UNK A   1       0.099  10.167  20.484  0.00  0.00    +0.000 A 
ATOM     32  C   UNK A   1      -0.803  10.865  21.300  0.00  0.00    +0.000 A 
ATOM     33  C   UNK A   1      -1.468  11.992  20.819  0.00  0.00    +0.000 A 
ATOM     34  C   UNK A   1      -1.236  12.430  19.519  0.00  0.00    +0.000 A 
ATOM     35  C   UNK A   1      -0.336  11.745  18.697  0.00  0.00    +0.000 A 
ATOM     36  C   UNK A   1       0.343  10.606  19.166  0.00  0.00    +0.000 A 
ATOM     37  C   UNK A   1       1.235   9.869  18.354  0.00  0.00    +0.000 A 
ENDBRANCH  27  28
ENDBRANCH   1  27
TORSDOF 10
ENDMDL
MODEL 6
REMARK VINA RESULT:      -8.5      2.062      8.156
REMARK  Name = 
REMARK  10 active torsions:
REMARK  status: ('A' for Active; 'I' for Inactive)
REMARK    1  A    between atoms: C_2  and  C_26
REMARK    2  A    between atoms: N_3  and  C_4
REMARK    3  A    between atoms: C_4  and  C_5
REMARK    4  A    between atoms: C_4  and  C_16
REMARK    5  A    between atoms: C_5  and  C_6
REMARK    6  A    between atoms: CA_22  and  C_23
REMARK    7  A    between atoms: C_23  and  OXT_25
REMARK    8  A    between atoms: C_26  and  S_27
REMARK    9  A    between atoms: C_26  and  C_28
REMARK   10  A    between atoms: C_28  and  C_29
REMARK                            x       y       z     vdW  Elec       q    Type
REMARK                         _______ _______ _______ _____ _____    ______ ____
ROOT
ATOM      1  C   UNK A   1       2.857   6.363  19.043  0.00  0.00    +0.000 C 
ENDROOT
BRANCH   1   2
ATOM      2  C   UNK A   1       2.030   5.290  19.839  0.00  0.00    +0.000 C 
ATOM      3  O   UNK A   1       1.242   5.613  20.738  0.00  0.00    +0.000 OA
ATOM      4  N   PRO A   2       2.093   3.946  19.540  0.00  0.00    +0.000 N 
ATOM      5  CD  PRO A   2       2.761   3.284  18.437  0.00  0.00    +0.000 C 
ATOM      6  CG  PRO A   2       1.764   2.215  18.015  0.00  0.00    +0.000 C 
ATOM      7  CB  PRO A   2       1.125   1.759  19.322  0.00  0.00    +0.000 C 
ATOM      8  CA  PRO A   2       1.231   2.972  20.253  0.00  0.00    +0.000 C 
BRANCH   8   9
ATOM      9  C   PRO A   2       1.812   2.587  21.637  0.00  0.00    +0.000 C 
ATOM     10  O   PRO A   2       2.996   2.458  21.883  0.00  0.00    +0.000 OA
BRANCH   9  11
ATOM     11  OXT PRO A   2       0.847   2.345  22.556  0.00  0.00    +0.000 OA
ATOM     12  HXT PRO A   2      -0.007   2.077  22.133  0.00  0.00    +0.000 HD
ENDBRANCH   9  11
ENDBRANCH   8   9
ENDBRANCH   1   2
BRANCH   1  15
ATOM     13  O   UNK A   0       2.348   8.480  17.256  0.00  0.00    +0.000 OA
ATOM     14  C   UNK A   0       2.156   8.695  18.451  0.00  0.00    +0.000 C 
ATOM     15  N   UNK A   1       2.307   7.691  19.382  0.00  0.00    +0.000 N 
ATOM     16  H   UNK A   1       1.966   7.853  20.322  0.00  0.00    +0.000 HD
BRANCH  14  17
ATOM     17  C   UNK A   0       1.715  10.068  18.975  0.00  0.00    +0.000 C 
BRANCH  17  18
ATOM     18  S   UNK A   0       2.233  11.384  17.804  0.00  0.00    +0.000 S 
ATOM     19  H   UNK A   0       1.430  11.025  16.786  0.00  0.00    +0.000 HD
ENDBRANCH  17  18
BRANCH  17  20
ATOM     20  C   UNK A   0       0.184  10.133  19.198  0.00  0.00    +0.000 C 
BRANCH  20  21
ATOM     21  C   UNK A   0      -0.183  10.381  20.652  0.00  0.00    +0.000 A 
ATOM     22  C   UNK A   0      -0.008   9.377  21.611  0.00  0.00    +0.000 A 
ATOM     23  C   UNK A   0      -0.535   9.528  22.894  0.00  0.00    +0.000 A 
ATOM     24  C   UNK A   0      -1.220  10.692  23.239  0.00  0.00    +0.000 A 
ATOM     25  C   UNK A   0      -1.355  11.720  22.310  0.00  0.00    +0.000 A 
ATOM     26  C   UNK A   0      -0.829  11.571  21.025  0.00  0.00    +0.000 A 
ENDBRANCH  20  21
ENDBRANCH  17  20
ENDBRANCH  14  17
ENDBRANCH   1  15
BRANCH   1  27
ATOM     27  C   UNK A   1       4.408   6.227  19.271  0.00  0.00    +0.000 C 
BRANCH  27  28
ATOM     28  C   UNK A   1       5.238   5.807  18.068  0.00  0.00    +0.000 A 
ATOM     29  C   UNK A   1       6.564   6.226  17.976  0.00  0.00    +0.000 A 
ATOM     30  C   UNK A   1       7.307   6.022  16.817  0.00  0.00    +0.000 A 
ATOM     31  C   UNK A   1       6.762   5.330  15.732  0.00  0.00    +0.000 A 
ATOM     32  C   UNK A   1       7.506   5.142  14.559  0.00  0.00    +0.000 A 
ATOM     33  C   UNK A   1       6.960   4.454  13.476  0.00  0.00    +0.000 A 
ATOM     34  C   UNK A   1       5.667   3.948  13.558  0.00  0.00    +0.000 A 
ATOM     35  C   UNK A   1       4.917   4.124  14.724  0.00  0.00    +0.000 A 
ATOM     36  C   UNK A   1       5.452   4.816  15.827  0.00  0.00    +0.000 A 
ATOM     37  C   UNK A   1       4.711   5.044  17.009  0.00  0.00    +0.000 A 
ENDBRANCH  27  28
ENDBRANCH   1  27
TORSDOF 10
ENDMDL
MODEL 7
REMARK VINA RESULT:      -8.4      1.470      2.324
REMARK  Name = 
REMARK  10 active torsions:
REMARK  status: ('A' for Active; 'I' for Inactive)
REMARK    1  A    between atoms: C_2  and  C_26
REMARK    2  A    between atoms: N_3  and  C_4
REMARK    3  A    between atoms: C_4  and  C_5
REMARK    4  A    between atoms: C_4  and  C_16
REMARK    5  A    between atoms: C_5  and  C_6
REMARK    6  A    between atoms: CA_22  and  C_23
REMARK    7  A    between atoms: C_23  and  OXT_25
REMARK    8  A    between atoms: C_26  and  S_27
REMARK    9  A    between atoms: C_26  and  C_28
REMARK   10  A    between atoms: C_28  and  C_29
REMARK                            x       y       z     vdW  Elec       q    Type
REMARK                         _______ _______ _______ _____ _____    ______ ____
ROOT
ATOM      1  C   UNK A   1       3.222   6.550  19.065  0.00  0.00    +0.000 C 
ENDROOT
BRANCH   1   2
ATOM      2  C   UNK A   1       2.404   5.438  19.815  0.00  0.00    +0.000 C 
ATOM      3  O   UNK A   1       1.644   5.711  20.754  0.00  0.00    +0.000 OA
ATOM      4  N   PRO A   2       2.443   4.114  19.431  0.00  0.00    +0.000 N 
ATOM      5  CD  PRO A   2       3.073   3.517  18.270  0.00  0.00    +0.000 C 
ATOM      6  CG  PRO A   2       2.052   2.487  17.809  0.00  0.00    +0.000 C 
ATOM      7  CB  PRO A   2       1.443   1.956  19.101  0.00  0.00    +0.000 C 
ATOM      8  CA  PRO A   2       1.588   3.106  20.103  0.00  0.00    +0.000 C 
BRANCH   8   9
ATOM      9  C   PRO A   2       2.202   2.628  21.444  0.00  0.00    +0.000 C 
ATOM     10  O   PRO A   2       3.367   2.320  21.605  0.00  0.00    +0.000 OA
BRANCH   9  11
ATOM     11  OXT PRO A   2       1.279   2.529  22.431  0.00  0.00    +0.000 OA
ATOM     12  HXT PRO A   2       0.447   3.017  22.209  0.00  0.00    +0.000 HD
ENDBRANCH   9  11
ENDBRANCH   8   9
ENDBRANCH   1   2
BRANCH   1  15
ATOM     13  O   UNK A   0       4.835   7.609  17.014  0.00  0.00    +0.000 OA
ATOM     14  C   UNK A   0       5.078   6.462  17.385  0.00  0.00    +0.000 C 
ATOM     15  N   UNK A   1       4.387   5.898  18.434  0.00  0.00    +0.000 N 
ATOM     16  H   UNK A   1       4.735   5.032  18.828  0.00  0.00    +0.000 HD
BRANCH  14  17
ATOM     17  C   UNK A   0       6.170   5.604  16.732  0.00  0.00    +0.000 C 
BRANCH  17  18
ATOM     18  S   UNK A   0       7.268   4.895  18.022  0.00  0.00    +0.000 S 
ATOM     19  H   UNK A   0       6.722   3.665  18.045  0.00  0.00    +0.000 HD
ENDBRANCH  17  18
BRANCH  17  20
ATOM     20  C   UNK A   0       5.569   4.468  15.868  0.00  0.00    +0.000 C 
BRANCH  20  21
ATOM     21  C   UNK A   0       6.253   4.341  14.517  0.00  0.00    +0.000 A 
ATOM     22  C   UNK A   0       7.338   5.160  14.188  0.00  0.00    +0.000 A 
ATOM     23  C   UNK A   0       7.829   5.190  12.882  0.00  0.00    +0.000 A 
ATOM     24  C   UNK A   0       7.257   4.385  11.898  0.00  0.00    +0.000 A 
ATOM     25  C   UNK A   0       6.211   3.527  12.225  0.00  0.00    +0.000 A 
ATOM     26  C   UNK A   0       5.718   3.495  13.531  0.00  0.00    +0.000 A 
ENDBRANCH  20  21
ENDBRANCH  17  20
ENDBRANCH  14  17
ENDBRANCH   1  15
BRANCH   1  27
ATOM     27  C   UNK A   1       2.336   7.392  18.075  0.00  0.00    +0.000 C 
BRANCH  27  28
ATOM     28  C   UNK A   1       1.541   8.538  18.680  0.00  0.00    +0.000 A 
ATOM     29  C   UNK A   1       1.708   8.846  20.029  0.00  0.00    +0.000 A 
ATOM     30  C   UNK A   1       0.878   9.761  20.669  0.00  0.00    +0.000 A 
ATOM     31  C   UNK A   1      -0.110  10.449  19.958  0.00  0.00    +0.000 A 
ATOM     32  C   UNK A   1      -0.958  11.356  20.610  0.00  0.00    +0.000 A 
ATOM     33  C   UNK A   1      -1.945  12.039  19.900  0.00  0.00    +0.000 A 
ATOM     34  C   UNK A   1      -2.091  11.821  18.534  0.00  0.00    +0.000 A 
ATOM     35  C   UNK A   1      -1.249  10.922  17.872  0.00  0.00    +0.000 A 
ATOM     36  C   UNK A   1      -0.248  10.224  18.573  0.00  0.00    +0.000 A 
ATOM     37  C   UNK A   1       0.599   9.283  17.944  0.00  0.00    +0.000 A 
ENDBRANCH  27  28
ENDBRANCH   1  27
TORSDOF 10
ENDMDL
MODEL 8
REMARK VINA RESULT:      -8.4      1.295      1.675
REMARK  Name = 
REMARK  10 active torsions:
REMARK  status: ('A' for Active; 'I' for Inactive)
REMARK    1  A    between atoms: C_2  and  C_26
REMARK    2  A    between atoms: N_3  and  C_4
REMARK    3  A    between atoms: C_4  and  C_5
REMARK    4  A    between atoms: C_4  and  C_16
REMARK    5  A    between atoms: C_5  and  C_6
REMARK    6  A    between atoms: CA_22  and  C_23
REMARK    7  A    between atoms: C_23  and  OXT_25
REMARK    8  A    between atoms: C_26  and  S_27
REMARK    9  A    between atoms: C_26  and  C_28
REMARK   10  A    between atoms: C_28  and  C_29
REMARK                            x       y       z     vdW  Elec       q    Type
REMARK                         _______ _______ _______ _____ _____    ______ ____
ROOT
ATOM      1  C   UNK A   1       3.397   6.425  18.907  0.00  0.00    +0.000 C 
ENDROOT
BRANCH   1   2
ATOM      2  C   UNK A   1       2.528   5.339  19.637  0.00  0.00    +0.000 C 
ATOM      3  O   UNK A   1       1.695   5.646  20.502  0.00  0.00    +0.000 OA
ATOM      4  N   PRO A   2       2.602   4.000  19.315  0.00  0.00    +0.000 N 
ATOM      5  CD  PRO A   2       3.323   3.360  18.233  0.00  0.00    +0.000 C 
ATOM      6  CG  PRO A   2       2.346   2.303  17.739  0.00  0.00    +0.000 C 
ATOM      7  CB  PRO A   2       1.641   1.822  19.002  0.00  0.00    +0.000 C 
ATOM      8  CA  PRO A   2       1.702   3.016  19.962  0.00  0.00    +0.000 C 
BRANCH   8   9
ATOM      9  C   PRO A   2       2.211   2.600  21.366  0.00  0.00    +0.000 C 
ATOM     10  O   PRO A   2       1.529   2.567  22.372  0.00  0.00    +0.000 OA
BRANCH   9  11
ATOM     11  OXT PRO A   2       3.538   2.327  21.376  0.00  0.00    +0.000 OA
ATOM     12  HXT PRO A   2       3.854   2.067  22.279  0.00  0.00    +0.000 HD
ENDBRANCH   9  11
ENDBRANCH   8   9
ENDBRANCH   1   2
BRANCH   1  15
ATOM     13  O   UNK A   0       5.654   7.590  17.691  0.00  0.00    +0.000 OA
ATOM     14  C   UNK A   0       5.499   6.379  17.545  0.00  0.00    +0.000 C 
ATOM     15  N   UNK A   1       4.465   5.719  18.170  0.00  0.00    +0.000 N 
ATOM     16  H   UNK A   1       4.476   4.706  18.178  0.00  0.00    +0.000 HD
BRANCH  14  17
ATOM     17  C   UNK A   0       6.450   5.529  16.692  0.00  0.00    +0.000 C 
BRANCH  17  18
ATOM     18  S   UNK A   0       7.606   4.600  17.776  0.00  0.00    +0.000 S 
ATOM     19  H   UNK A   0       6.748   4.391  18.791  0.00  0.00    +0.000 HD
ENDBRANCH  17  18
BRANCH  17  20
ATOM     20  C   UNK A   0       5.679   4.545  15.778  0.00  0.00    +0.000 C 
BRANCH  20  21
ATOM     21  C   UNK A   0       6.332   4.383  14.415  0.00  0.00    +0.000 A 
ATOM     22  C   UNK A   0       7.386   5.218  14.027  0.00  0.00    +0.000 A 
ATOM     23  C   UNK A   0       7.843   5.210  12.708  0.00  0.00    +0.000 A 
ATOM     24  C   UNK A   0       7.269   4.353  11.772  0.00  0.00    +0.000 A 
ATOM     25  C   UNK A   0       6.256   3.479  12.158  0.00  0.00    +0.000 A 
ATOM     26  C   UNK A   0       5.796   3.485  13.477  0.00  0.00    +0.000 A 
ENDBRANCH  20  21
ENDBRANCH  17  20
ENDBRANCH  14  17
ENDBRANCH   1  15
BRANCH   1  27
ATOM     27  C   UNK A   1       2.534   7.398  18.022  0.00  0.00    +0.000 C 
BRANCH  27  28
ATOM     28  C   UNK A   1       1.665   8.402  18.763  0.00  0.00    +0.000 A 
ATOM     29  C   UNK A   1       1.196   9.527  18.088  0.00  0.00    +0.000 A 
ATOM     30  C   UNK A   1       0.552  10.560  18.764  0.00  0.00    +0.000 A 
ATOM     31  C   UNK A   1       0.300  10.466  20.136  0.00  0.00    +0.000 A 
ATOM     32  C   UNK A   1      -0.331  11.516  20.818  0.00  0.00    +0.000 A 
ATOM     33  C   UNK A   1      -0.580  11.423  22.187  0.00  0.00    +0.000 A 
ATOM     34  C   UNK A   1      -0.201  10.280  22.883  0.00  0.00    +0.000 A 
ATOM     35  C   UNK A   1       0.425   9.225  22.213  0.00  0.00    +0.000 A 
ATOM     36  C   UNK A   1       0.684   9.302  20.832  0.00  0.00    +0.000 A 
ATOM     37  C   UNK A   1       1.345   8.270  20.128  0.00  0.00    +0.000 A 
ENDBRANCH  27  28
ENDBRANCH   1  27
TORSDOF 10
ENDMDL
MODEL 9
REMARK VINA RESULT:      -8.4      0.577      1.555
REMARK  Name = 
REMARK  10 active torsions:
REMARK  status: ('A' for Active; 'I' for Inactive)
REMARK    1  A    between atoms: C_2  and  C_26
REMARK    2  A    between atoms: N_3  and  C_4
REMARK    3  A    between atoms: C_4  and  C_5
REMARK    4  A    between atoms: C_4  and  C_16
REMARK    5  A    between atoms: C_5  and  C_6
REMARK    6  A    between atoms: CA_22  and  C_23
REMARK    7  A    between atoms: C_23  and  OXT_25
REMARK    8  A    between atoms: C_26  and  S_27
REMARK    9  A    between atoms: C_26  and  C_28
REMARK   10  A    between atoms: C_28  and  C_29
REMARK                            x       y       z     vdW  Elec       q    Type
REMARK                         _______ _______ _______ _____ _____    ______ ____
ROOT
ATOM      1  C   UNK A   1       3.299   6.454  18.759  0.00  0.00    +0.000 C 
ENDROOT
BRANCH   1   2
ATOM      2  C   UNK A   1       2.616   5.098  18.355  0.00  0.00    +0.000 C 
ATOM      3  O   UNK A   1       1.797   5.034  17.428  0.00  0.00    +0.000 OA
ATOM      4  N   PRO A   2       2.935   3.905  18.967  0.00  0.00    +0.000 N 
ATOM      5  CD  PRO A   2       3.977   3.624  19.934  0.00  0.00    +0.000 C 
ATOM      6  CG  PRO A   2       4.523   2.278  19.479  0.00  0.00    +0.000 C 
ATOM      7  CB  PRO A   2       3.300   1.531  18.961  0.00  0.00    +0.000 C 
ATOM      8  CA  PRO A   2       2.337   2.631  18.499  0.00  0.00    +0.000 C 
BRANCH   8   9
ATOM      9  C   PRO A   2       0.909   2.420  19.062  0.00  0.00    +0.000 C 
ATOM     10  O   PRO A   2      -0.023   1.952  18.438  0.00  0.00    +0.000 OA
BRANCH   9  11
ATOM     11  OXT PRO A   2       0.779   2.873  20.332  0.00  0.00    +0.000 OA
ATOM     12  HXT PRO A   2       0.705   2.131  20.984  0.00  0.00    +0.000 HD
ENDBRANCH   9  11
ENDBRANCH   8   9
ENDBRANCH   1   2
BRANCH   1  15
ATOM     13  O   UNK A   0       4.174   7.097  16.160  0.00  0.00    +0.000 OA
ATOM     14  C   UNK A   0       5.020   6.683  16.952  0.00  0.00    +0.000 C 
ATOM     15  N   UNK A   1       4.689   6.419  18.262  0.00  0.00    +0.000 N 
ATOM     16  H   UNK A   1       5.440   6.258  18.924  0.00  0.00    +0.000 HD
BRANCH  14  17
ATOM     17  C   UNK A   0       6.482   6.461  16.546  0.00  0.00    +0.000 C 
BRANCH  17  18
ATOM     18  S   UNK A   0       7.601   7.135  17.837  0.00  0.00    +0.000 S 
ATOM     19  H   UNK A   0       7.299   6.245  18.799  0.00  0.00    +0.000 HD
ENDBRANCH  17  18
BRANCH  17  20
ATOM     20  C   UNK A   0       6.793   4.963  16.309  0.00  0.00    +0.000 C 
BRANCH  20  21
ATOM     21  C   UNK A   0       6.908   4.618  14.834  0.00  0.00    +0.000 A 
ATOM     22  C   UNK A   0       7.812   5.301  14.012  0.00  0.00    +0.000 A 
ATOM     23  C   UNK A   0       7.771   5.134  12.627  0.00  0.00    +0.000 A 
ATOM     24  C   UNK A   0       6.845   4.265  12.052  0.00  0.00    +0.000 A 
ATOM     25  C   UNK A   0       5.977   3.539  12.863  0.00  0.00    +0.000 A 
ATOM     26  C   UNK A   0       6.015   3.705  14.249  0.00  0.00    +0.000 A 
ENDBRANCH  20  21
ENDBRANCH  17  20
ENDBRANCH  14  17
ENDBRANCH   1  15
BRANCH   1  27
ATOM     27  C   UNK A   1       2.476   7.711  18.290  0.00  0.00    +0.000 C 
BRANCH  27  28
ATOM     28  C   UNK A   1       1.778   8.511  19.378  0.00  0.00    +0.000 A 
ATOM     29  C   UNK A   1       1.695   7.984  20.666  0.00  0.00    +0.000 A 
ATOM     30  C   UNK A   1       0.915   8.590  21.646  0.00  0.00    +0.000 A 
ATOM     31  C   UNK A   1       0.241   9.786  21.384  0.00  0.00    +0.000 A 
ATOM     32  C   UNK A   1      -0.560  10.383  22.368  0.00  0.00    +0.000 A 
ATOM     33  C   UNK A   1      -1.234  11.575  22.104  0.00  0.00    +0.000 A 
ATOM     34  C   UNK A   1      -1.113  12.178  20.857  0.00  0.00    +0.000 A 
ATOM     35  C   UNK A   1      -0.314  11.593  19.869  0.00  0.00    +0.000 A 
ATOM     36  C   UNK A   1       0.373  10.391  20.117  0.00  0.00    +0.000 A 
ATOM     37  C   UNK A   1       1.163   9.754  19.133  0.00  0.00    +0.000 A 
ENDBRANCH  27  28
ENDBRANCH   1  27
TORSDOF 10
ENDMDL
