MODEL 1
REMARK VINA RESULT:      -9.8      0.000      0.000
REMARK  Name = 
REMARK  10 active torsions:
REMARK  status: ('A' for Active; 'I' for Inactive)
REMARK    1  A    between atoms: C_1  and  C_2
REMARK    2  A    between atoms: C_7  and  C_8
REMARK    3  A    between atoms: C_9  and  C_10
REMARK    4  A    between atoms: C_15  and  S_16
REMARK    5  A    between atoms: S_16  and  N_19
REMARK    6  A    between atoms: N_19  and  C_20
REMARK    7  A    between atoms: C_20  and  C_21
REMARK    8  A    between atoms: C_20  and  C_22
REMARK    9  A    between atoms: C_22  and  O_24
REMARK   10  A    between atoms: O_24  and  C_25
REMARK                            x       y       z     vdW  Elec       q    Type
REMARK                         _______ _______ _______ _____ _____    ______ ____
ROOT
ATOM      1  C   UNL     1       2.036   6.543  20.055  0.00  0.00    +0.000 A 
ATOM      2  C   UNL     1       1.460   5.527  20.831  0.00  0.00    +0.000 A 
ATOM      3  C   UNL     1       2.038   4.252  20.898  0.00  0.00    +0.000 A 
ATOM      4  C   UNL     1       3.202   3.955  20.181  0.00  0.00    +0.000 A 
ATOM      5 CL   UNL     1       3.855   2.372  20.377  0.00  0.00    +0.000 Cl
ATOM      6  C   UNL     1       3.778   4.946  19.391  0.00  0.00    +0.000 A 
ATOM      7  C   UNL     1       3.194   6.228  19.333  0.00  0.00    +0.000 A 
ENDROOT
BRANCH   1  16
ATOM      8  C   UNL     1      -1.226  12.486  22.853  0.00  0.00    +0.000 C 
ATOM      9  C   UNL     1      -0.493  11.204  22.551  0.00  0.00    +0.000 C 
ATOM     10  O   UNL     1      -0.234  10.412  23.450  0.00  0.00    +0.000 OA
ATOM     11  N   UNL     1      -0.189  11.083  21.215  0.00  0.00    +0.000 N 
ATOM     12  C   UNL     1       0.447  10.023  20.623  0.00  0.00    +0.000 A 
ATOM     13  N   UNL     1       0.925  10.108  19.407  0.00  0.00    +0.000 NA
ATOM     14  C   UNL     1       1.563   8.920  19.062  0.00  0.00    +0.000 A 
ATOM     15  C   UNL     1       2.247   8.883  17.740  0.00  0.00    +0.000 C 
ATOM     16  C   UNL     1       1.483   7.908  20.018  0.00  0.00    +0.000 A 
ATOM     17  S   UNL     1       0.619   8.516  21.380  0.00  0.00    +0.000 S 
ATOM     18  H   UNL     1      -0.295  11.879  20.601  0.00  0.00    +0.000 HD
ENDBRANCH   1  16
BRANCH   6  19
ATOM     19  S   UNL     1       5.225   4.656  18.406  0.00  0.00    +0.000 S 
ATOM     20  O   UNL     1       6.325   4.394  19.304  0.00  0.00    +0.000 OA
ATOM     21  O   UNL     1       4.884   3.710  17.366  0.00  0.00    +0.000 OA
BRANCH  19  22
ATOM     22  N   UNL     1       5.508   6.126  17.669  0.00  0.00    +0.000 NA
ATOM     23  H   UNL     1       4.912   6.879  18.026  0.00  0.00    +0.000 HD
BRANCH  22  24
ATOM     24  C   UNL     1       6.880   6.522  17.268  0.00  0.00    +0.000 C 
ATOM     25  C   UNL     1       7.763   6.712  18.495  0.00  0.00    +0.000 C 
BRANCH  24  26
ATOM     26  C   UNL     1       7.456   5.427  16.360  0.00  0.00    +0.000 C 
ATOM     27  O   UNL     1       7.981   4.395  16.767  0.00  0.00    +0.000 OA
BRANCH  26  28
ATOM     28  O   UNL     1       7.267   5.740  15.045  0.00  0.00    +0.000 OA
BRANCH  28  29
ATOM     29  C   UNL     1       7.229   4.639  14.133  0.00  0.00    +0.000 C 
ATOM     30  C   UNL     1       5.819   4.103  13.917  0.00  0.00    +0.000 C 
ATOM     31  C   UNL     1       5.915   3.370  12.586  0.00  0.00    +0.000 C 
ATOM     32  C   UNL     1       6.975   4.118  11.778  0.00  0.00    +0.000 C 
ATOM     33  C   UNL     1       7.608   5.124  12.736  0.00  0.00    +0.000 C 
ENDBRANCH  28  29
ENDBRANCH  26  28
ENDBRANCH  24  26
ENDBRANCH  22  24
ENDBRANCH  19  22
ENDBRANCH   6  19
TORSDOF 7
ENDMDL
MODEL 2
REMARK VINA RESULT:      -9.3      0.740      1.208
REMARK  Name = 
REMARK  10 active torsions:
REMARK  status: ('A' for Active; 'I' for Inactive)
REMARK    1  A    between atoms: C_1  and  C_2
REMARK    2  A    between atoms: C_7  and  C_8
REMARK    3  A    between atoms: C_9  and  C_10
REMARK    4  A    between atoms: C_15  and  S_16
REMARK    5  A    between atoms: S_16  and  N_19
REMARK    6  A    between atoms: N_19  and  C_20
REMARK    7  A    between atoms: C_20  and  C_21
REMARK    8  A    between atoms: C_20  and  C_22
REMARK    9  A    between atoms: C_22  and  O_24
REMARK   10  A    between atoms: O_24  and  C_25
REMARK                            x       y       z     vdW  Elec       q    Type
REMARK                         _______ _______ _______ _____ _____    ______ ____
ROOT
ATOM      1  C   UNL     1       1.947   6.542  20.152  0.00  0.00    +0.000 A 
ATOM      2  C   UNL     1       1.339   5.567  20.956  0.00  0.00    +0.000 A 
ATOM      3  C   UNL     1       1.869   4.273  21.049  0.00  0.00    +0.000 A 
ATOM      4  C   UNL     1       3.015   3.914  20.330  0.00  0.00    +0.000 A 
ATOM      5 CL   UNL     1       3.608   2.313  20.559  0.00  0.00    +0.000 Cl
ATOM      6  C   UNL     1       3.621   4.865  19.513  0.00  0.00    +0.000 A 
ATOM      7  C   UNL     1       3.087   6.166  19.429  0.00  0.00    +0.000 A 
ENDROOT
BRANCH   1  16
ATOM      8  C   UNL     1      -1.195  12.620  22.794  0.00  0.00    +0.000 C 
ATOM      9  C   UNL     1      -0.499  11.309  22.526  0.00  0.00    +0.000 C 
ATOM     10  O   UNL     1      -0.303  10.515  23.439  0.00  0.00    +0.000 OA
ATOM     11  N   UNL     1      -0.151  11.169  21.203  0.00  0.00    +0.000 N 
ATOM     12  C   UNL     1       0.467  10.081  20.641  0.00  0.00    +0.000 A 
ATOM     13  N   UNL     1       0.992  10.140  19.443  0.00  0.00    +0.000 NA
ATOM     14  C   UNL     1       1.599   8.928  19.129  0.00  0.00    +0.000 A 
ATOM     15  C   UNL     1       2.329   8.857  17.833  0.00  0.00    +0.000 C 
ATOM     16  C   UNL     1       1.447   7.926  20.086  0.00  0.00    +0.000 A 
ATOM     17  S   UNL     1       0.556   8.575  21.413  0.00  0.00    +0.000 S 
ATOM     18  H   UNL     1      -0.205  11.963  20.581  0.00  0.00    +0.000 HD
ENDBRANCH   1  16
BRANCH   6  19
ATOM     19  S   UNL     1       5.048   4.496  18.525  0.00  0.00    +0.000 S 
ATOM     20  O   UNL     1       6.147   4.222  19.420  0.00  0.00    +0.000 OA
ATOM     21  O   UNL     1       4.665   3.533  17.516  0.00  0.00    +0.000 OA
BRANCH  19  22
ATOM     22  N   UNL     1       5.375   5.933  17.743  0.00  0.00    +0.000 NA
ATOM     23  H   UNL     1       5.948   6.575  18.299  0.00  0.00    +0.000 HD
BRANCH  22  24
ATOM     24  C   UNL     1       5.604   5.965  16.278  0.00  0.00    +0.000 C 
ATOM     25  C   UNL     1       4.842   7.120  15.642  0.00  0.00    +0.000 C 
BRANCH  24  26
ATOM     26  C   UNL     1       7.111   6.117  16.026  0.00  0.00    +0.000 C 
ATOM     27  O   UNL     1       7.811   6.993  16.524  0.00  0.00    +0.000 OA
BRANCH  26  28
ATOM     28  O   UNL     1       7.566   5.125  15.208  0.00  0.00    +0.000 OA
BRANCH  28  29
ATOM     29  C   UNL     1       6.913   5.000  13.942  0.00  0.00    +0.000 C 
ATOM     30  C   UNL     1       7.892   4.928  12.778  0.00  0.00    +0.000 C 
ATOM     31  C   UNL     1       7.082   4.274  11.668  0.00  0.00    +0.000 C 
ATOM     32  C   UNL     1       6.094   3.344  12.371  0.00  0.00    +0.000 C 
ATOM     33  C   UNL     1       6.216   3.643  13.862  0.00  0.00    +0.000 C 
ENDBRANCH  28  29
ENDBRANCH  26  28
ENDBRANCH  24  26
ENDBRANCH  22  24
ENDBRANCH  19  22
ENDBRANCH   6  19
TORSDOF 7
ENDMDL
MODEL 3
REMARK VINA RESULT:      -9.2      1.173      1.410
REMARK  Name = 
REMARK  10 active torsions:
REMARK  status: ('A' for Active; 'I' for Inactive)
REMARK    1  A    between atoms: C_1  and  C_2
REMARK    2  A    between atoms: C_7  and  C_8
REMARK    3  A    between atoms: C_9  and  C_10
REMARK    4  A    between atoms: C_15  and  S_16
REMARK    5  A    between atoms: S_16  and  N_19
REMARK    6  A    between atoms: N_19  and  C_20
REMARK    7  A    between atoms: C_20  and  C_21
REMARK    8  A    between atoms: C_20  and  C_22
REMARK    9  A    between atoms: C_22  and  O_24
REMARK   10  A    between atoms: O_24  and  C_25
REMARK                            x       y       z     vdW  Elec       q    Type
REMARK                         _______ _______ _______ _____ _____    ______ ____
ROOT
ATOM      1  C   UNL     1       1.595   7.818  19.918  0.00  0.00    +0.000 A 
ATOM      2  C   UNL     1       1.295   6.847  20.886  0.00  0.00    +0.000 A 
ATOM      3  C   UNL     1       1.885   5.577  20.843  0.00  0.00    +0.000 A 
ATOM      4  C   UNL     1       2.782   5.237  19.825  0.00  0.00    +0.000 A 
ATOM      5 CL   UNL     1       3.486   3.666  19.899  0.00  0.00    +0.000 Cl
ATOM      6  C   UNL     1       3.078   6.182  18.846  0.00  0.00    +0.000 A 
ATOM      7  C   UNL     1       2.486   7.460  18.898  0.00  0.00    +0.000 A 
ENDROOT
BRANCH   1  16
ATOM      8  C   UNL     1      -1.976  13.425  23.016  0.00  0.00    +0.000 C 
ATOM      9  C   UNL     1      -1.207  12.181  22.649  0.00  0.00    +0.000 C 
ATOM     10  O   UNL     1      -1.031  11.294  23.477  0.00  0.00    +0.000 OA
ATOM     11  N   UNL     1      -0.771  12.209  21.344  0.00  0.00    +0.000 N 
ATOM     12  C   UNL     1      -0.071  11.218  20.706  0.00  0.00    +0.000 A 
ATOM     13  N   UNL     1       0.524  11.435  19.560  0.00  0.00    +0.000 NA
ATOM     14  C   UNL     1       1.203  10.291  19.151  0.00  0.00    +0.000 A 
ATOM     15  C   UNL     1       2.015  10.398  17.908  0.00  0.00    +0.000 C 
ATOM     16  C   UNL     1       1.037   9.180  19.977  0.00  0.00    +0.000 A 
ATOM     17  S   UNL     1       0.038   9.637  21.306  0.00  0.00    +0.000 S 
ATOM     18  H   UNL     1      -0.822  13.067  20.814  0.00  0.00    +0.000 HD
ENDBRANCH   1  16
BRANCH   6  19
ATOM     19  S   UNL     1       4.165   5.834  17.487  0.00  0.00    +0.000 S 
ATOM     20  O   UNL     1       3.707   4.619  16.856  0.00  0.00    +0.000 OA
ATOM     21  O   UNL     1       4.329   7.046  16.714  0.00  0.00    +0.000 OA
BRANCH  19  22
ATOM     22  N   UNL     1       5.628   5.508  18.219  0.00  0.00    +0.000 NA
ATOM     23  H   UNL     1       5.700   4.548  18.570  0.00  0.00    +0.000 HD
BRANCH  22  24
ATOM     24  C   UNL     1       6.884   6.103  17.702  0.00  0.00    +0.000 C 
ATOM     25  C   UNL     1       7.873   6.338  18.837  0.00  0.00    +0.000 C 
BRANCH  24  26
ATOM     26  C   UNL     1       7.483   5.145  16.663  0.00  0.00    +0.000 C 
ATOM     27  O   UNL     1       8.137   4.144  16.940  0.00  0.00    +0.000 OA
BRANCH  26  28
ATOM     28  O   UNL     1       7.156   5.537  15.398  0.00  0.00    +0.000 OA
BRANCH  28  29
ATOM     29  C   UNL     1       7.092   4.503  14.412  0.00  0.00    +0.000 C 
ATOM     30  C   UNL     1       5.664   4.178  13.992  0.00  0.00    +0.000 C 
ATOM     31  C   UNL     1       5.833   3.512  12.634  0.00  0.00    +0.000 C 
ATOM     32  C   UNL     1       7.076   4.149  12.013  0.00  0.00    +0.000 C 
ATOM     33  C   UNL     1       7.706   5.005  13.107  0.00  0.00    +0.000 C 
ENDBRANCH  28  29
ENDBRANCH  26  28
ENDBRANCH  24  26
ENDBRANCH  22  24
ENDBRANCH  19  22
ENDBRANCH   6  19
TORSDOF 7
ENDMDL
MODEL 4
REMARK VINA RESULT:      -9.2      1.088      1.252
REMARK  Name = 
REMARK  10 active torsions:
REMARK  status: ('A' for Active; 'I' for Inactive)
REMARK    1  A    between atoms: C_1  and  C_2
REMARK    2  A    between atoms: C_7  and  C_8
REMARK    3  A    between atoms: C_9  and  C_10
REMARK    4  A    between atoms: C_15  and  S_16
REMARK    5  A    between atoms: S_16  and  N_19
REMARK    6  A    between atoms: N_19  and  C_20
REMARK    7  A    between atoms: C_20  and  C_21
REMARK    8  A    between atoms: C_20  and  C_22
REMARK    9  A    between atoms: C_22  and  O_24
REMARK   10  A    between atoms: O_24  and  C_25
REMARK                            x       y       z     vdW  Elec       q    Type
REMARK                         _______ _______ _______ _____ _____    ______ ____
ROOT
ATOM      1  C   UNL     1       2.391   6.377  19.751  0.00  0.00    +0.000 A 
ATOM      2  C   UNL     1       1.707   5.203  20.100  0.00  0.00    +0.000 A 
ATOM      3  C   UNL     1       2.362   3.965  20.121  0.00  0.00    +0.000 A 
ATOM      4  C   UNL     1       3.715   3.863  19.780  0.00  0.00    +0.000 A 
ATOM      5 CL   UNL     1       4.431   2.299  19.889  0.00  0.00    +0.000 Cl
ATOM      6  C   UNL     1       4.405   5.016  19.414  0.00  0.00    +0.000 A 
ATOM      7  C   UNL     1       3.742   6.260  19.402  0.00  0.00    +0.000 A 
ENDROOT
BRANCH   1  16
ATOM      8  C   UNL     1      -1.087  12.015  22.899  0.00  0.00    +0.000 C 
ATOM      9  C   UNL     1      -0.288  10.795  22.519  0.00  0.00    +0.000 C 
ATOM     10  O   UNL     1       0.086  10.006  23.380  0.00  0.00    +0.000 OA
ATOM     11  N   UNL     1      -0.066  10.723  21.163  0.00  0.00    +0.000 N 
ATOM     12  C   UNL     1       0.602   9.722  20.506  0.00  0.00    +0.000 A 
ATOM     13  N   UNL     1       0.990   9.865  19.263  0.00  0.00    +0.000 NA
ATOM     14  C   UNL     1       1.686   8.733  18.849  0.00  0.00    +0.000 A 
ATOM     15  C   UNL     1       2.281   8.771  17.484  0.00  0.00    +0.000 C 
ATOM     16  C   UNL     1       1.742   7.700  19.783  0.00  0.00    +0.000 A 
ATOM     17  S   UNL     1       0.930   8.218  21.214  0.00  0.00    +0.000 S 
ATOM     18  H   UNL     1      -0.269  11.520  20.576  0.00  0.00    +0.000 HD
ENDBRANCH   1  16
BRANCH   6  19
ATOM     19  S   UNL     1       6.109   4.987  18.920  0.00  0.00    +0.000 S 
ATOM     20  O   UNL     1       6.887   5.585  19.978  0.00  0.00    +0.000 OA
ATOM     21  O   UNL     1       6.420   3.657  18.441  0.00  0.00    +0.000 OA
BRANCH  19  22
ATOM     22  N   UNL     1       6.161   6.014  17.606  0.00  0.00    +0.000 NA
ATOM     23  H   UNL     1       7.028   6.556  17.550  0.00  0.00    +0.000 HD
BRANCH  22  24
ATOM     24  C   UNL     1       5.562   5.617  16.308  0.00  0.00    +0.000 C 
ATOM     25  C   UNL     1       4.830   6.792  15.674  0.00  0.00    +0.000 C 
BRANCH  24  26
ATOM     26  C   UNL     1       6.686   5.127  15.384  0.00  0.00    +0.000 C 
ATOM     27  O   UNL     1       7.789   4.756  15.773  0.00  0.00    +0.000 OA
BRANCH  26  28
ATOM     28  O   UNL     1       6.276   5.126  14.083  0.00  0.00    +0.000 OA
BRANCH  28  29
ATOM     29  C   UNL     1       6.196   3.847  13.448  0.00  0.00    +0.000 C 
ATOM     30  C   UNL     1       4.917   3.671  12.638  0.00  0.00    +0.000 C 
ATOM     31  C   UNL     1       5.263   2.559  11.659  0.00  0.00    +0.000 C 
ATOM     32  C   UNL     1       6.761   2.697  11.389  0.00  0.00    +0.000 C 
ATOM     33  C   UNL     1       7.275   3.744  12.373  0.00  0.00    +0.000 C 
ENDBRANCH  28  29
ENDBRANCH  26  28
ENDBRANCH  24  26
ENDBRANCH  22  24
ENDBRANCH  19  22
ENDBRANCH   6  19
TORSDOF 7
ENDMDL
MODEL 5
REMARK VINA RESULT:      -8.6      2.032      2.442
REMARK  Name = 
REMARK  10 active torsions:
REMARK  status: ('A' for Active; 'I' for Inactive)
REMARK    1  A    between atoms: C_1  and  C_2
REMARK    2  A    between atoms: C_7  and  C_8
REMARK    3  A    between atoms: C_9  and  C_10
REMARK    4  A    between atoms: C_15  and  S_16
REMARK    5  A    between atoms: S_16  and  N_19
REMARK    6  A    between atoms: N_19  and  C_20
REMARK    7  A    between atoms: C_20  and  C_21
REMARK    8  A    between atoms: C_20  and  C_22
REMARK    9  A    between atoms: C_22  and  O_24
REMARK   10  A    between atoms: O_24  and  C_25
REMARK                            x       y       z     vdW  Elec       q    Type
REMARK                         _______ _______ _______ _____ _____    ______ ____
ROOT
ATOM      1  C   UNL     1       1.615   7.656  20.246  0.00  0.00    +0.000 A 
ATOM      2  C   UNL     1       1.232   6.552  21.022  0.00  0.00    +0.000 A 
ATOM      3  C   UNL     1       1.767   5.279  20.782  0.00  0.00    +0.000 A 
ATOM      4  C   UNL     1       2.691   5.073  19.751  0.00  0.00    +0.000 A 
ATOM      5 CL   UNL     1       3.321   3.478  19.578  0.00  0.00    +0.000 Cl
ATOM      6  C   UNL     1       3.069   6.154  18.960  0.00  0.00    +0.000 A 
ATOM      7  C   UNL     1       2.532   7.433  19.211  0.00  0.00    +0.000 A 
ENDROOT
BRANCH   1  16
ATOM      8  C   UNL     1       0.622  14.790  18.865  0.00  0.00    +0.000 C 
ATOM      9  C   UNL     1       0.872  13.304  18.866  0.00  0.00    +0.000 C 
ATOM     10  O   UNL     1       1.372  12.759  17.889  0.00  0.00    +0.000 OA
ATOM     11  N   UNL     1       0.477  12.714  20.045  0.00  0.00    +0.000 N 
ATOM     12  C   UNL     1       0.598  11.386  20.363  0.00  0.00    +0.000 A 
ATOM     13  N   UNL     1      -0.036  10.871  21.387  0.00  0.00    +0.000 NA
ATOM     14  C   UNL     1       0.213   9.503  21.463  0.00  0.00    +0.000 A 
ATOM     15  C   UNL     1      -0.511   8.746  22.520  0.00  0.00    +0.000 C 
ATOM     16  C   UNL     1       1.116   9.015  20.520  0.00  0.00    +0.000 A 
ATOM     17  S   UNL     1       1.604  10.324  19.508  0.00  0.00    +0.000 S 
ATOM     18  H   UNL     1      -0.083  13.233  20.706  0.00  0.00    +0.000 HD
ENDBRANCH   1  16
BRANCH   6  19
ATOM     19  S   UNL     1       4.196   5.988  17.599  0.00  0.00    +0.000 S 
ATOM     20  O   UNL     1       3.886   4.754  16.918  0.00  0.00    +0.000 OA
ATOM     21  O   UNL     1       4.221   7.241  16.876  0.00  0.00    +0.000 OA
BRANCH  19  22
ATOM     22  N   UNL     1       5.683   5.806  18.333  0.00  0.00    +0.000 NA
ATOM     23  H   UNL     1       5.780   4.919  18.835  0.00  0.00    +0.000 HD
BRANCH  22  24
ATOM     24  C   UNL     1       6.915   6.322  17.688  0.00  0.00    +0.000 C 
ATOM     25  C   UNL     1       7.983   6.618  18.733  0.00  0.00    +0.000 C 
BRANCH  24  26
ATOM     26  C   UNL     1       7.420   5.268  16.692  0.00  0.00    +0.000 C 
ATOM     27  O   UNL     1       7.976   4.223  17.014  0.00  0.00    +0.000 OA
BRANCH  26  28
ATOM     28  O   UNL     1       7.130   5.636  15.411  0.00  0.00    +0.000 OA
BRANCH  28  29
ATOM     29  C   UNL     1       7.138   4.589  14.437  0.00  0.00    +0.000 C 
ATOM     30  C   UNL     1       5.737   4.184  13.996  0.00  0.00    +0.000 C 
ATOM     31  C   UNL     1       5.965   3.513  12.649  0.00  0.00    +0.000 C 
ATOM     32  C   UNL     1       7.183   4.209  12.042  0.00  0.00    +0.000 C 
ATOM     33  C   UNL     1       7.747   5.109  13.137  0.00  0.00    +0.000 C 
ENDBRANCH  28  29
ENDBRANCH  26  28
ENDBRANCH  24  26
ENDBRANCH  22  24
ENDBRANCH  19  22
ENDBRANCH   6  19
TORSDOF 7
ENDMDL
MODEL 6
REMARK VINA RESULT:      -8.5      3.471      9.363
REMARK  Name = 
REMARK  10 active torsions:
REMARK  status: ('A' for Active; 'I' for Inactive)
REMARK    1  A    between atoms: C_1  and  C_2
REMARK    2  A    between atoms: C_7  and  C_8
REMARK    3  A    between atoms: C_9  and  C_10
REMARK    4  A    between atoms: C_15  and  S_16
REMARK    5  A    between atoms: S_16  and  N_19
REMARK    6  A    between atoms: N_19  and  C_20
REMARK    7  A    between atoms: C_20  and  C_21
REMARK    8  A    between atoms: C_20  and  C_22
REMARK    9  A    between atoms: C_22  and  O_24
REMARK   10  A    between atoms: O_24  and  C_25
REMARK                            x       y       z     vdW  Elec       q    Type
REMARK                         _______ _______ _______ _____ _____    ______ ____
ROOT
ATOM      1  C   UNL     1       4.374   6.278  17.924  0.00  0.00    +0.000 A 
ATOM      2  C   UNL     1       4.146   5.553  19.104  0.00  0.00    +0.000 A 
ATOM      3  C   UNL     1       3.117   5.910  19.984  0.00  0.00    +0.000 A 
ATOM      4  C   UNL     1       2.294   7.010  19.717  0.00  0.00    +0.000 A 
ATOM      5 CL   UNL     1       1.028   7.328  20.842  0.00  0.00    +0.000 Cl
ATOM      6  C   UNL     1       2.517   7.752  18.560  0.00  0.00    +0.000 A 
ATOM      7  C   UNL     1       3.551   7.383  17.675  0.00  0.00    +0.000 A 
ENDROOT
BRANCH   1  16
ATOM      8  C   UNL     1       6.918   3.082  11.833  0.00  0.00    +0.000 C 
ATOM      9  C   UNL     1       6.142   3.733  12.950  0.00  0.00    +0.000 C 
ATOM     10  O   UNL     1       4.916   3.707  12.949  0.00  0.00    +0.000 OA
ATOM     11  N   UNL     1       6.969   4.311  13.885  0.00  0.00    +0.000 N 
ATOM     12  C   UNL     1       6.569   4.954  15.028  0.00  0.00    +0.000 A 
ATOM     13  N   UNL     1       7.400   5.695  15.718  0.00  0.00    +0.000 NA
ATOM     14  C   UNL     1       6.739   6.273  16.798  0.00  0.00    +0.000 A 
ATOM     15  C   UNL     1       7.520   7.225  17.634  0.00  0.00    +0.000 C 
ATOM     16  C   UNL     1       5.409   5.884  16.952  0.00  0.00    +0.000 A 
ATOM     17  S   UNL     1       5.007   4.805  15.668  0.00  0.00    +0.000 S 
ATOM     18  H   UNL     1       7.953   4.423  13.688  0.00  0.00    +0.000 HD
ENDBRANCH   1  16
BRANCH   6  19
ATOM     19  S   UNL     1       1.562   9.191  18.154  0.00  0.00    +0.000 S 
ATOM     20  O   UNL     1       2.436  10.129  17.491  0.00  0.00    +0.000 OA
ATOM     21  O   UNL     1       0.334   8.759  17.523  0.00  0.00    +0.000 OA
BRANCH  19  22
ATOM     22  N   UNL     1       1.159   9.834  19.640  0.00  0.00    +0.000 NA
ATOM     23  H   UNL     1       1.964  10.205  20.152  0.00  0.00    +0.000 HD
BRANCH  22  24
ATOM     24  C   UNL     1      -0.119  10.562  19.830  0.00  0.00    +0.000 C 
ATOM     25  C   UNL     1      -0.474  10.644  21.309  0.00  0.00    +0.000 C 
BRANCH  24  26
ATOM     26  C   UNL     1       0.032  11.971  19.239  0.00  0.00    +0.000 C 
ATOM     27  O   UNL     1       1.030  12.672  19.368  0.00  0.00    +0.000 OA
BRANCH  26  28
ATOM     28  O   UNL     1      -1.076  12.314  18.520  0.00  0.00    +0.000 OA
BRANCH  28  29
ATOM     29  C   UNL     1      -2.012  11.264  18.261  0.00  0.00    +0.000 C 
ATOM     30  C   UNL     1      -3.437  11.637  18.648  0.00  0.00    +0.000 C 
ATOM     31  C   UNL     1      -4.293  10.680  17.829  0.00  0.00    +0.000 C 
ATOM     32  C   UNL     1      -3.503  10.413  16.548  0.00  0.00    +0.000 C 
ATOM     33  C   UNL     1      -2.132  11.050  16.754  0.00  0.00    +0.000 C 
ENDBRANCH  28  29
ENDBRANCH  26  28
ENDBRANCH  24  26
ENDBRANCH  22  24
ENDBRANCH  19  22
ENDBRANCH   6  19
TORSDOF 7
ENDMDL
MODEL 7
REMARK VINA RESULT:      -8.4      1.939      2.221
REMARK  Name = 
REMARK  10 active torsions:
REMARK  status: ('A' for Active; 'I' for Inactive)
REMARK    1  A    between atoms: C_1  and  C_2
REMARK    2  A    between atoms: C_7  and  C_8
REMARK    3  A    between atoms: C_9  and  C_10
REMARK    4  A    between atoms: C_15  and  S_16
REMARK    5  A    between atoms: S_16  and  N_19
REMARK    6  A    between atoms: N_19  and  C_20
REMARK    7  A    between atoms: C_20  and  C_21
REMARK    8  A    between atoms: C_20  and  C_22
REMARK    9  A    between atoms: C_22  and  O_24
REMARK   10  A    between atoms: O_24  and  C_25
REMARK                            x       y       z     vdW  Elec       q    Type
REMARK                         _______ _______ _______ _____ _____    ______ ____
ROOT
ATOM      1  C   UNL     1       1.424   8.421  19.656  0.00  0.00    +0.000 A 
ATOM      2  C   UNL     1       1.131   7.540  20.707  0.00  0.00    +0.000 A 
ATOM      3  C   UNL     1       1.748   6.284  20.791  0.00  0.00    +0.000 A 
ATOM      4  C   UNL     1       2.666   5.870  19.819  0.00  0.00    +0.000 A 
ATOM      5 CL   UNL     1       3.401   4.329  20.049  0.00  0.00    +0.000 Cl
ATOM      6  C   UNL     1       2.955   6.725  18.759  0.00  0.00    +0.000 A 
ATOM      7  C   UNL     1       2.336   7.989  18.684  0.00  0.00    +0.000 A 
ENDROOT
BRANCH   1  16
ATOM      8  C   UNL     1       0.818  15.527  21.367  0.00  0.00    +0.000 C 
ATOM      9  C   UNL     1       1.211  14.094  21.113  0.00  0.00    +0.000 C 
ATOM     10  O   UNL     1       2.234  13.635  21.608  0.00  0.00    +0.000 OA
ATOM     11  N   UNL     1       0.308  13.446  20.301  0.00  0.00    +0.000 N 
ATOM     12  C   UNL     1       0.371  12.134  19.910  0.00  0.00    +0.000 A 
ATOM     13  N   UNL     1      -0.377  11.677  18.936  0.00  0.00    +0.000 NA
ATOM     14  C   UNL     1      -0.088  10.336  18.703  0.00  0.00    +0.000 A 
ATOM     15  C   UNL     1      -0.786   9.686  17.560  0.00  0.00    +0.000 C 
ATOM     16  C   UNL     1       0.837   9.770  19.580  0.00  0.00    +0.000 A 
ATOM     17  S   UNL     1       1.364  10.994  20.675  0.00  0.00    +0.000 S 
ATOM     18  H   UNL     1      -0.399  13.976  19.811  0.00  0.00    +0.000 HD
ENDBRANCH   1  16
BRANCH   6  19
ATOM     19  S   UNL     1       4.067   6.275  17.451  0.00  0.00    +0.000 S 
ATOM     20  O   UNL     1       3.733   4.935  17.029  0.00  0.00    +0.000 OA
ATOM     21  O   UNL     1       4.103   7.359  16.493  0.00  0.00    +0.000 OA
BRANCH  19  22
ATOM     22  N   UNL     1       5.558   6.219  18.196  0.00  0.00    +0.000 NA
ATOM     23  H   UNL     1       5.657   5.432  18.844  0.00  0.00    +0.000 HD
BRANCH  22  24
ATOM     24  C   UNL     1       6.787   6.613  17.466  0.00  0.00    +0.000 C 
ATOM     25  C   UNL     1       7.907   6.947  18.442  0.00  0.00    +0.000 C 
BRANCH  24  26
ATOM     26  C   UNL     1       7.203   5.450  16.553  0.00  0.00    +0.000 C 
ATOM     27  O   UNL     1       7.733   4.416  16.948  0.00  0.00    +0.000 OA
BRANCH  26  28
ATOM     28  O   UNL     1       6.867   5.709  15.257  0.00  0.00    +0.000 OA
BRANCH  28  29
ATOM     29  C   UNL     1       6.945   4.604  14.352  0.00  0.00    +0.000 C 
ATOM     30  C   UNL     1       5.576   4.132  13.880  0.00  0.00    +0.000 C 
ATOM     31  C   UNL     1       5.880   3.386  12.588  0.00  0.00    +0.000 C 
ATOM     32  C   UNL     1       7.104   4.078  11.990  0.00  0.00    +0.000 C 
ATOM     33  C   UNL     1       7.597   5.061  13.048  0.00  0.00    +0.000 C 
ENDBRANCH  28  29
ENDBRANCH  26  28
ENDBRANCH  24  26
ENDBRANCH  22  24
ENDBRANCH  19  22
ENDBRANCH   6  19
TORSDOF 7
ENDMDL
MODEL 8
REMARK VINA RESULT:      -8.4      2.665      4.228
REMARK  Name = 
REMARK  10 active torsions:
REMARK  status: ('A' for Active; 'I' for Inactive)
REMARK    1  A    between atoms: C_1  and  C_2
REMARK    2  A    between atoms: C_7  and  C_8
REMARK    3  A    between atoms: C_9  and  C_10
REMARK    4  A    between atoms: C_15  and  S_16
REMARK    5  A    between atoms: S_16  and  N_19
REMARK    6  A    between atoms: N_19  and  C_20
REMARK    7  A    between atoms: C_20  and  C_21
REMARK    8  A    between atoms: C_20  and  C_22
REMARK    9  A    between atoms: C_22  and  O_24
REMARK   10  A    between atoms: O_24  and  C_25
REMARK                            x       y       z     vdW  Elec       q    Type
REMARK                         _______ _______ _______ _____ _____    ______ ____
ROOT
ATOM      1  C   UNL     1       0.959   9.596  19.027  0.00  0.00    +0.000 A 
ATOM      2  C   UNL     1       1.747  10.050  17.959  0.00  0.00    +0.000 A 
ATOM      3  C   UNL     1       2.760   9.248  17.417  0.00  0.00    +0.000 A 
ATOM      4  C   UNL     1       3.022   7.975  17.936  0.00  0.00    +0.000 A 
ATOM      5 CL   UNL     1       4.256   7.056  17.160  0.00  0.00    +0.000 Cl
ATOM      6  C   UNL     1       2.261   7.516  19.008  0.00  0.00    +0.000 A 
ATOM      7  C   UNL     1       1.240   8.325  19.544  0.00  0.00    +0.000 A 
ENDROOT
BRANCH   1  16
ATOM      8  C   UNL     1      -2.268  14.130  23.804  0.00  0.00    +0.000 C 
ATOM      9  C   UNL     1      -1.361  13.308  22.925  0.00  0.00    +0.000 C 
ATOM     10  O   UNL     1      -0.161  13.241  23.165  0.00  0.00    +0.000 OA
ATOM     11  N   UNL     1      -2.046  12.703  21.896  0.00  0.00    +0.000 N 
ATOM     12  C   UNL     1      -1.509  11.873  20.947  0.00  0.00    +0.000 A 
ATOM     13  N   UNL     1      -2.175  11.556  19.864  0.00  0.00    +0.000 NA
ATOM     14  C   UNL     1      -1.393  10.748  19.044  0.00  0.00    +0.000 A 
ATOM     15  C   UNL     1      -1.969  10.374  17.723  0.00  0.00    +0.000 C 
ATOM     16  C   UNL     1      -0.153  10.394  19.573  0.00  0.00    +0.000 A 
ATOM     17  S   UNL     1       0.015  11.151  21.114  0.00  0.00    +0.000 S 
ATOM     18  H   UNL     1      -2.998  12.975  21.697  0.00  0.00    +0.000 HD
ENDBRANCH   1  16
BRANCH   6  19
ATOM     19  S   UNL     1       2.546   5.938  19.768  0.00  0.00    +0.000 S 
ATOM     20  O   UNL     1       3.970   5.787  19.953  0.00  0.00    +0.000 OA
ATOM     21  O   UNL     1       1.642   5.805  20.890  0.00  0.00    +0.000 OA
BRANCH  19  22
ATOM     22  N   UNL     1       2.063   4.842  18.607  0.00  0.00    +0.000 NA
ATOM     23  H   UNL     1       2.271   5.147  17.652  0.00  0.00    +0.000 HD
BRANCH  22  24
ATOM     24  C   UNL     1       2.158   3.383  18.855  0.00  0.00    +0.000 C 
ATOM     25  C   UNL     1       0.807   2.714  18.640  0.00  0.00    +0.000 C 
BRANCH  24  26
ATOM     26  C   UNL     1       3.203   2.795  17.896  0.00  0.00    +0.000 C 
ATOM     27  O   UNL     1       3.537   1.614  17.875  0.00  0.00    +0.000 OA
BRANCH  26  28
ATOM     28  O   UNL     1       3.677   3.755  17.050  0.00  0.00    +0.000 OA
BRANCH  28  29
ATOM     29  C   UNL     1       5.028   3.596  16.608  0.00  0.00    +0.000 C 
ATOM     30  C   UNL     1       5.320   4.355  15.320  0.00  0.00    +0.000 C 
ATOM     31  C   UNL     1       6.834   4.510  15.330  0.00  0.00    +0.000 C 
ATOM     32  C   UNL     1       7.231   4.592  16.804  0.00  0.00    +0.000 C 
ATOM     33  C   UNL     1       5.970   4.272  17.602  0.00  0.00    +0.000 C 
ENDBRANCH  28  29
ENDBRANCH  26  28
ENDBRANCH  24  26
ENDBRANCH  22  24
ENDBRANCH  19  22
ENDBRANCH   6  19
TORSDOF 7
ENDMDL
MODEL 9
REMARK VINA RESULT:      -8.3      3.605      9.345
REMARK  Name = 
REMARK  10 active torsions:
REMARK  status: ('A' for Active; 'I' for Inactive)
REMARK    1  A    between atoms: C_1  and  C_2
REMARK    2  A    between atoms: C_7  and  C_8
REMARK    3  A    between atoms: C_9  and  C_10
REMARK    4  A    between atoms: C_15  and  S_16
REMARK    5  A    between atoms: S_16  and  N_19
REMARK    6  A    between atoms: N_19  and  C_20
REMARK    7  A    between atoms: C_20  and  C_21
REMARK    8  A    between atoms: C_20  and  C_22
REMARK    9  A    between atoms: C_22  and  O_24
REMARK   10  A    between atoms: O_24  and  C_25
REMARK                            x       y       z     vdW  Elec       q    Type
REMARK                         _______ _______ _______ _____ _____    ______ ____
ROOT
ATOM      1  C   UNL     1       4.310   6.246  17.896  0.00  0.00    +0.000 A 
ATOM      2  C   UNL     1       4.052   5.507  19.060  0.00  0.00    +0.000 A 
ATOM      3  C   UNL     1       3.025   5.877  19.939  0.00  0.00    +0.000 A 
ATOM      4  C   UNL     1       2.236   7.004  19.686  0.00  0.00    +0.000 A 
ATOM      5 CL   UNL     1       0.971   7.338  20.806  0.00  0.00    +0.000 Cl
ATOM      6  C   UNL     1       2.490   7.760  18.544  0.00  0.00    +0.000 A 
ATOM      7  C   UNL     1       3.520   7.378  17.661  0.00  0.00    +0.000 A 
ENDROOT
BRANCH   1  16
ATOM      8  C   UNL     1       6.829   2.991  11.826  0.00  0.00    +0.000 C 
ATOM      9  C   UNL     1       6.058   3.653  12.939  0.00  0.00    +0.000 C 
ATOM     10  O   UNL     1       4.833   3.632  12.942  0.00  0.00    +0.000 OA
ATOM     11  N   UNL     1       6.889   4.236  13.868  0.00  0.00    +0.000 N 
ATOM     12  C   UNL     1       6.494   4.890  15.007  0.00  0.00    +0.000 A 
ATOM     13  N   UNL     1       7.329   5.634  15.689  0.00  0.00    +0.000 NA
ATOM     14  C   UNL     1       6.672   6.224  16.765  0.00  0.00    +0.000 A 
ATOM     15  C   UNL     1       7.458   7.180  17.591  0.00  0.00    +0.000 C 
ATOM     16  C   UNL     1       5.341   5.841  16.925  0.00  0.00    +0.000 A 
ATOM     17  S   UNL     1       4.933   4.752  15.651  0.00  0.00    +0.000 S 
ATOM     18  H   UNL     1       7.873   4.343  13.668  0.00  0.00    +0.000 HD
ENDBRANCH   1  16
BRANCH   6  19
ATOM     19  S   UNL     1       1.580   9.233  18.158  0.00  0.00    +0.000 S 
ATOM     20  O   UNL     1       2.466  10.128  17.450  0.00  0.00    +0.000 OA
ATOM     21  O   UNL     1       0.312   8.845  17.579  0.00  0.00    +0.000 OA
BRANCH  19  22
ATOM     22  N   UNL     1       1.260   9.908  19.650  0.00  0.00    +0.000 NA
ATOM     23  H   UNL     1       2.087  10.318  20.094  0.00  0.00    +0.000 HD
BRANCH  22  24
ATOM     24  C   UNL     1      -0.025  10.602  19.909  0.00  0.00    +0.000 C 
ATOM     25  C   UNL     1      -0.206  10.854  21.400  0.00  0.00    +0.000 C 
BRANCH  24  26
ATOM     26  C   UNL     1      -0.022  11.931  19.140  0.00  0.00    +0.000 C 
ATOM     27  O   UNL     1      -0.834  12.229  18.271  0.00  0.00    +0.000 OA
BRANCH  26  28
ATOM     28  O   UNL     1       0.980  12.745  19.585  0.00  0.00    +0.000 OA
BRANCH  28  29
ATOM     29  C   UNL     1       1.380  13.794  18.700  0.00  0.00    +0.000 C 
ATOM     30  C   UNL     1       1.515  15.138  19.403  0.00  0.00    +0.000 C 
ATOM     31  C   UNL     1       2.428  15.935  18.483  0.00  0.00    +0.000 C 
ATOM     32  C   UNL     1       3.349  14.908  17.825  0.00  0.00    +0.000 C 
ATOM     33  C   UNL     1       2.807  13.537  18.219  0.00  0.00    +0.000 C 
ENDBRANCH  28  29
ENDBRANCH  26  28
ENDBRANCH  24  26
ENDBRANCH  22  24
ENDBRANCH  19  22
ENDBRANCH   6  19
TORSDOF 7
ENDMDL
