MODEL 1
REMARK VINA RESULT:      -8.4      0.000      0.000
REMARK  Name = 
REMARK  7 active torsions:
REMARK  status: ('A' for Active; 'I' for Inactive)
REMARK    1  A    between atoms: C_1  and  N_2
REMARK    2  A    between atoms: N_2  and  C_3
REMARK    3  A    between atoms: C_4  and  C_6
REMARK    4  A    between atoms: C_8  and  C_9
REMARK    5  A    between atoms: C_13  and  C_14
REMARK    6  A    between atoms: C_19  and  O_20
REMARK    7  A    between atoms: O_20  and  C_21
REMARK                            x       y       z     vdW  Elec       q    Type
REMARK                         _______ _______ _______ _____ _____    ______ ____
ROOT
ATOM      1  C   UNL     1       2.612   6.612  18.671  0.00  0.00    +0.000 A 
ATOM      2  C   UNL     1       2.455   5.681  19.698  0.00  0.00    +0.000 A 
ATOM      3  C   UNL     1       3.204   4.509  19.696  0.00  0.00    +0.000 A 
ATOM      4  C   UNL     1       4.153   4.284  18.694  0.00  0.00    +0.000 A 
ATOM      5  C   UNL     1       4.301   5.164  17.609  0.00  0.00    +0.000 A 
ATOM      6  C   UNL     1       3.478   6.314  17.608  0.00  0.00    +0.000 A 
ENDROOT
BRANCH   5   7
ATOM      7  C   UNL     1       5.325   4.966  16.541  0.00  0.00    +0.000 A 
ATOM      8  C   UNL     1       4.954   4.190  15.410  0.00  0.00    +0.000 A 
ATOM      9  C   UNL     1       5.803   3.974  14.323  0.00  0.00    +0.000 A 
ATOM     10  C   UNL     1       7.063   4.537  14.321  0.00  0.00    +0.000 A 
ATOM     11  C   UNL     1       7.464   5.324  15.402  0.00  0.00    +0.000 A 
ATOM     12  C   UNL     1       6.621   5.526  16.514  0.00  0.00    +0.000 A 
BRANCH  12  13
ATOM     13  O   UNL     1       7.109   6.449  17.399  0.00  0.00    +0.000 OA
BRANCH  13  14
ATOM     14  C   UNL     1       7.668   5.988  18.622  0.00  0.00    +0.000 C 
ATOM     15  F   UNL     1       6.779   5.839  19.620  0.00  0.00    +0.000 F 
ATOM     16  F   UNL     1       8.283   4.802  18.415  0.00  0.00    +0.000 F 
ATOM     17  F   UNL     1       8.617   6.876  19.007  0.00  0.00    +0.000 F 
ENDBRANCH  13  14
ENDBRANCH  12  13
ENDBRANCH   5   7
BRANCH   1  20
ATOM     18  C   UNL     1       1.207   9.620  19.991  0.00  0.00    +0.000 A 
ATOM     19  N   UNL     1       1.579   8.354  20.048  0.00  0.00    +0.000 NA
ATOM     20  C   UNL     1       2.024   7.934  18.809  0.00  0.00    +0.000 A 
ATOM     21  C   UNL     1       1.949   8.882  17.806  0.00  0.00    +0.000 A 
ATOM     22  S   UNL     1       1.280  10.337  18.430  0.00  0.00    +0.000 S 
BRANCH  18  26
ATOM     23  C   UNL     1      -0.714  10.678  23.083  0.00  0.00    +0.000 C 
ATOM     24  N   UNL     1      -0.179   9.837  22.030  0.00  0.00    +0.000 N 
ATOM     25  C   UNL     1      -0.669   8.468  21.929  0.00  0.00    +0.000 C 
ATOM     26  C   UNL     1       0.757  10.408  21.144  0.00  0.00    +0.000 C 
ATOM     27  O   UNL     1       1.172  11.550  21.365  0.00  0.00    +0.000 OA
ENDBRANCH  18  26
ENDBRANCH   1  20
TORSDOF 5
ENDMDL
MODEL 2
REMARK VINA RESULT:      -8.3      2.688      4.667
REMARK  Name = 
REMARK  7 active torsions:
REMARK  status: ('A' for Active; 'I' for Inactive)
REMARK    1  A    between atoms: C_1  and  N_2
REMARK    2  A    between atoms: N_2  and  C_3
REMARK    3  A    between atoms: C_4  and  C_6
REMARK    4  A    between atoms: C_8  and  C_9
REMARK    5  A    between atoms: C_13  and  C_14
REMARK    6  A    between atoms: C_19  and  O_20
REMARK    7  A    between atoms: O_20  and  C_21
REMARK                            x       y       z     vdW  Elec       q    Type
REMARK                         _______ _______ _______ _____ _____    ______ ____
ROOT
ATOM      1  C   UNL     1       1.360   8.931  20.161  0.00  0.00    +0.000 A 
ATOM      2  C   UNL     1       1.511   9.359  18.842  0.00  0.00    +0.000 A 
ATOM      3  C   UNL     1       1.984   8.479  17.874  0.00  0.00    +0.000 A 
ATOM      4  C   UNL     1       2.261   7.150  18.209  0.00  0.00    +0.000 A 
ATOM      5  C   UNL     1       2.182   6.693  19.535  0.00  0.00    +0.000 A 
ATOM      6  C   UNL     1       1.760   7.631  20.505  0.00  0.00    +0.000 A 
ENDROOT
BRANCH   5   7
ATOM      7  C   UNL     1       2.444   5.274  19.918  0.00  0.00    +0.000 A 
ATOM      8  C   UNL     1       1.474   4.620  20.725  0.00  0.00    +0.000 A 
ATOM      9  C   UNL     1       1.578   3.281  21.106  0.00  0.00    +0.000 A 
ATOM     10  C   UNL     1       2.661   2.536  20.684  0.00  0.00    +0.000 A 
ATOM     11  C   UNL     1       3.628   3.130  19.872  0.00  0.00    +0.000 A 
ATOM     12  C   UNL     1       3.542   4.488  19.505  0.00  0.00    +0.000 A 
BRANCH  12  13
ATOM     13  O   UNL     1       4.483   4.856  18.580  0.00  0.00    +0.000 OA
BRANCH  13  14
ATOM     14  C   UNL     1       4.277   4.493  17.221  0.00  0.00    +0.000 C 
ATOM     15  F   UNL     1       3.047   4.023  16.950  0.00  0.00    +0.000 F 
ATOM     16  F   UNL     1       4.510   5.564  16.431  0.00  0.00    +0.000 F 
ATOM     17  F   UNL     1       5.191   3.545  16.901  0.00  0.00    +0.000 F 
ENDBRANCH  13  14
ENDBRANCH  12  13
ENDBRANCH   5   7
BRANCH   1  20
ATOM     18  C   UNL     1      -0.159  11.703  21.827  0.00  0.00    +0.000 A 
ATOM     19  N   UNL     1       0.664  11.139  20.962  0.00  0.00    +0.000 NA
ATOM     20  C   UNL     1       0.633   9.764  21.104  0.00  0.00    +0.000 A 
ATOM     21  C   UNL     1      -0.192   9.297  22.110  0.00  0.00    +0.000 A 
ATOM     22  S   UNL     1      -0.934  10.622  22.915  0.00  0.00    +0.000 S 
BRANCH  18  26
ATOM     23  C   UNL     1      -1.571  15.129  21.029  0.00  0.00    +0.000 C 
ATOM     24  N   UNL     1      -1.411  13.688  21.042  0.00  0.00    +0.000 N 
ATOM     25  C   UNL     1      -2.242  12.897  20.143  0.00  0.00    +0.000 C 
ATOM     26  C   UNL     1      -0.433  13.143  21.898  0.00  0.00    +0.000 C 
ATOM     27  O   UNL     1       0.159  13.889  22.683  0.00  0.00    +0.000 OA
ENDBRANCH  18  26
ENDBRANCH   1  20
TORSDOF 5
ENDMDL
MODEL 3
REMARK VINA RESULT:      -8.2      2.406      4.334
REMARK  Name = 
REMARK  7 active torsions:
REMARK  status: ('A' for Active; 'I' for Inactive)
REMARK    1  A    between atoms: C_1  and  N_2
REMARK    2  A    between atoms: N_2  and  C_3
REMARK    3  A    between atoms: C_4  and  C_6
REMARK    4  A    between atoms: C_8  and  C_9
REMARK    5  A    between atoms: C_13  and  C_14
REMARK    6  A    between atoms: C_19  and  O_20
REMARK    7  A    between atoms: O_20  and  C_21
REMARK                            x       y       z     vdW  Elec       q    Type
REMARK                         _______ _______ _______ _____ _____    ______ ____
ROOT
ATOM      1  C   UNL     1       1.432   8.866  20.143  0.00  0.00    +0.000 A 
ATOM      2  C   UNL     1       1.533   9.267  18.810  0.00  0.00    +0.000 A 
ATOM      3  C   UNL     1       2.019   8.383  17.852  0.00  0.00    +0.000 A 
ATOM      4  C   UNL     1       2.358   7.074  18.212  0.00  0.00    +0.000 A 
ATOM      5  C   UNL     1       2.329   6.647  19.550  0.00  0.00    +0.000 A 
ATOM      6  C   UNL     1       1.892   7.592  20.507  0.00  0.00    +0.000 A 
ENDROOT
BRANCH   5   7
ATOM      7  C   UNL     1       2.656   5.250  19.960  0.00  0.00    +0.000 A 
ATOM      8  C   UNL     1       1.870   4.664  20.988  0.00  0.00    +0.000 A 
ATOM      9  C   UNL     1       2.044   3.349  21.424  0.00  0.00    +0.000 A 
ATOM     10  C   UNL     1       3.013   2.560  20.838  0.00  0.00    +0.000 A 
ATOM     11  C   UNL     1       3.796   3.087  19.809  0.00  0.00    +0.000 A 
ATOM     12  C   UNL     1       3.643   4.422  19.381  0.00  0.00    +0.000 A 
BRANCH  12  13
ATOM     13  O   UNL     1       4.375   4.716  18.263  0.00  0.00    +0.000 OA
BRANCH  13  14
ATOM     14  C   UNL     1       5.657   5.308  18.427  0.00  0.00    +0.000 C 
ATOM     15  F   UNL     1       6.008   5.533  19.706  0.00  0.00    +0.000 F 
ATOM     16  F   UNL     1       6.593   4.516  17.859  0.00  0.00    +0.000 F 
ATOM     17  F   UNL     1       5.660   6.486  17.757  0.00  0.00    +0.000 F 
ENDBRANCH  13  14
ENDBRANCH  12  13
ENDBRANCH   5   7
BRANCH   1  20
ATOM     18  C   UNL     1      -0.142  11.620  21.788  0.00  0.00    +0.000 A 
ATOM     19  N   UNL     1       0.685  11.066  20.920  0.00  0.00    +0.000 NA
ATOM     20  C   UNL     1       0.694   9.693  21.083  0.00  0.00    +0.000 A 
ATOM     21  C   UNL     1      -0.104   9.218  22.106  0.00  0.00    +0.000 A 
ATOM     22  S   UNL     1      -0.872  10.534  22.902  0.00  0.00    +0.000 S 
BRANCH  18  26
ATOM     23  C   UNL     1      -1.664  14.992  20.961  0.00  0.00    +0.000 C 
ATOM     24  N   UNL     1      -1.463  13.556  20.994  0.00  0.00    +0.000 N 
ATOM     25  C   UNL     1      -2.287  12.727  20.122  0.00  0.00    +0.000 C 
ATOM     26  C   UNL     1      -0.456  13.052  21.841  0.00  0.00    +0.000 C 
ATOM     27  O   UNL     1       0.128  13.828  22.604  0.00  0.00    +0.000 OA
ENDBRANCH  18  26
ENDBRANCH   1  20
TORSDOF 5
ENDMDL
MODEL 4
REMARK VINA RESULT:      -8.1      2.726      4.732
REMARK  Name = 
REMARK  7 active torsions:
REMARK  status: ('A' for Active; 'I' for Inactive)
REMARK    1  A    between atoms: C_1  and  N_2
REMARK    2  A    between atoms: N_2  and  C_3
REMARK    3  A    between atoms: C_4  and  C_6
REMARK    4  A    between atoms: C_8  and  C_9
REMARK    5  A    between atoms: C_13  and  C_14
REMARK    6  A    between atoms: C_19  and  O_20
REMARK    7  A    between atoms: O_20  and  C_21
REMARK                            x       y       z     vdW  Elec       q    Type
REMARK                         _______ _______ _______ _____ _____    ______ ____
ROOT
ATOM      1  C   UNL     1       1.243   9.022  20.093  0.00  0.00    +0.000 A 
ATOM      2  C   UNL     1       1.418   9.449  18.777  0.00  0.00    +0.000 A 
ATOM      3  C   UNL     1       1.983   8.594  17.837  0.00  0.00    +0.000 A 
ATOM      4  C   UNL     1       2.329   7.287  18.194  0.00  0.00    +0.000 A 
ATOM      5  C   UNL     1       2.226   6.835  19.521  0.00  0.00    +0.000 A 
ATOM      6  C   UNL     1       1.709   7.751  20.464  0.00  0.00    +0.000 A 
ENDROOT
BRANCH   5   7
ATOM      7  C   UNL     1       2.560   5.438  19.926  0.00  0.00    +0.000 A 
ATOM      8  C   UNL     1       1.653   4.769  20.791  0.00  0.00    +0.000 A 
ATOM      9  C   UNL     1       1.826   3.445  21.200  0.00  0.00    +0.000 A 
ATOM     10  C   UNL     1       2.918   2.731  20.749  0.00  0.00    +0.000 A 
ATOM     11  C   UNL     1       3.826   3.341  19.881  0.00  0.00    +0.000 A 
ATOM     12  C   UNL     1       3.670   4.685  19.484  0.00  0.00    +0.000 A 
BRANCH  12  13
ATOM     13  O   UNL     1       4.555   5.064  18.511  0.00  0.00    +0.000 OA
BRANCH  13  14
ATOM     14  C   UNL     1       4.350   4.591  17.186  0.00  0.00    +0.000 C 
ATOM     15  F   UNL     1       5.104   3.529  16.850  0.00  0.00    +0.000 F 
ATOM     16  F   UNL     1       3.049   4.261  17.024  0.00  0.00    +0.000 F 
ATOM     17  F   UNL     1       4.620   5.610  16.334  0.00  0.00    +0.000 F 
ENDBRANCH  13  14
ENDBRANCH  12  13
ENDBRANCH   5   7
BRANCH   1  20
ATOM     18  C   UNL     1      -0.975  11.463  21.466  0.00  0.00    +0.000 A 
ATOM     19  N   UNL     1      -0.181  10.965  20.536  0.00  0.00    +0.000 NA
ATOM     20  C   UNL     1       0.429   9.814  20.999  0.00  0.00    +0.000 A 
ATOM     21  C   UNL     1       0.118   9.468  22.301  0.00  0.00    +0.000 A 
ATOM     22  S   UNL     1      -0.955  10.632  22.971  0.00  0.00    +0.000 S 
BRANCH  18  26
ATOM     23  C   UNL     1      -2.259  15.027  21.599  0.00  0.00    +0.000 C 
ATOM     24  N   UNL     1      -1.346  13.902  21.659  0.00  0.00    +0.000 N 
ATOM     25  C   UNL     1       0.009  14.142  22.140  0.00  0.00    +0.000 C 
ATOM     26  C   UNL     1      -1.838  12.636  21.283  0.00  0.00    +0.000 C 
ATOM     27  O   UNL     1      -2.975  12.551  20.808  0.00  0.00    +0.000 OA
ENDBRANCH  18  26
ENDBRANCH   1  20
TORSDOF 5
ENDMDL
MODEL 5
REMARK VINA RESULT:      -8.1      2.482      4.438
REMARK  Name = 
REMARK  7 active torsions:
REMARK  status: ('A' for Active; 'I' for Inactive)
REMARK    1  A    between atoms: C_1  and  N_2
REMARK    2  A    between atoms: N_2  and  C_3
REMARK    3  A    between atoms: C_4  and  C_6
REMARK    4  A    between atoms: C_8  and  C_9
REMARK    5  A    between atoms: C_13  and  C_14
REMARK    6  A    between atoms: C_19  and  O_20
REMARK    7  A    between atoms: O_20  and  C_21
REMARK                            x       y       z     vdW  Elec       q    Type
REMARK                         _______ _______ _______ _____ _____    ______ ____
ROOT
ATOM      1  C   UNL     1       1.365   8.870  20.027  0.00  0.00    +0.000 A 
ATOM      2  C   UNL     1       1.539   9.268  18.701  0.00  0.00    +0.000 A 
ATOM      3  C   UNL     1       2.100   8.391  17.779  0.00  0.00    +0.000 A 
ATOM      4  C   UNL     1       2.443   7.091  18.165  0.00  0.00    +0.000 A 
ATOM      5  C   UNL     1       2.342   6.668  19.500  0.00  0.00    +0.000 A 
ATOM      6  C   UNL     1       1.828   7.607  20.425  0.00  0.00    +0.000 A 
ENDROOT
BRANCH   5   7
ATOM      7  C   UNL     1       2.673   5.280  19.935  0.00  0.00    +0.000 A 
ATOM      8  C   UNL     1       1.885   4.709  20.971  0.00  0.00    +0.000 A 
ATOM      9  C   UNL     1       2.062   3.402  21.430  0.00  0.00    +0.000 A 
ATOM     10  C   UNL     1       3.035   2.607  20.860  0.00  0.00    +0.000 A 
ATOM     11  C   UNL     1       3.820   3.118  19.825  0.00  0.00    +0.000 A 
ATOM     12  C   UNL     1       3.664   4.444  19.374  0.00  0.00    +0.000 A 
BRANCH  12  13
ATOM     13  O   UNL     1       4.399   4.721  18.253  0.00  0.00    +0.000 OA
BRANCH  13  14
ATOM     14  C   UNL     1       5.679   5.319  18.411  0.00  0.00    +0.000 C 
ATOM     15  F   UNL     1       5.828   6.495  17.776  0.00  0.00    +0.000 F 
ATOM     16  F   UNL     1       5.926   5.507  19.727  0.00  0.00    +0.000 F 
ATOM     17  F   UNL     1       6.606   4.447  17.944  0.00  0.00    +0.000 F 
ENDBRANCH  13  14
ENDBRANCH  12  13
ENDBRANCH   5   7
BRANCH   1  20
ATOM     18  C   UNL     1      -0.843  11.347  21.350  0.00  0.00    +0.000 A 
ATOM     19  N   UNL     1      -0.051  10.827  20.430  0.00  0.00    +0.000 NA
ATOM     20  C   UNL     1       0.555   9.683  20.917  0.00  0.00    +0.000 A 
ATOM     21  C   UNL     1       0.243   9.366  22.226  0.00  0.00    +0.000 A 
ATOM     22  S   UNL     1      -0.825  10.548  22.872  0.00  0.00    +0.000 S 
BRANCH  18  26
ATOM     23  C   UNL     1      -2.112  14.919  21.408  0.00  0.00    +0.000 C 
ATOM     24  N   UNL     1      -1.203  13.792  21.490  0.00  0.00    +0.000 N 
ATOM     25  C   UNL     1       0.154  14.037  21.961  0.00  0.00    +0.000 C 
ATOM     26  C   UNL     1      -1.702  12.519  21.144  0.00  0.00    +0.000 C 
ATOM     27  O   UNL     1      -2.840  12.429  20.674  0.00  0.00    +0.000 OA
ENDBRANCH  18  26
ENDBRANCH   1  20
TORSDOF 5
ENDMDL
MODEL 6
REMARK VINA RESULT:      -8.0      1.634      2.026
REMARK  Name = 
REMARK  7 active torsions:
REMARK  status: ('A' for Active; 'I' for Inactive)
REMARK    1  A    between atoms: C_1  and  N_2
REMARK    2  A    between atoms: N_2  and  C_3
REMARK    3  A    between atoms: C_4  and  C_6
REMARK    4  A    between atoms: C_8  and  C_9
REMARK    5  A    between atoms: C_13  and  C_14
REMARK    6  A    between atoms: C_19  and  O_20
REMARK    7  A    between atoms: O_20  and  C_21
REMARK                            x       y       z     vdW  Elec       q    Type
REMARK                         _______ _______ _______ _____ _____    ______ ____
ROOT
ATOM      1  C   UNL     1       2.413   6.071  18.767  0.00  0.00    +0.000 A 
ATOM      2  C   UNL     1       1.940   4.868  19.292  0.00  0.00    +0.000 A 
ATOM      3  C   UNL     1       2.474   3.660  18.855  0.00  0.00    +0.000 A 
ATOM      4  C   UNL     1       3.520   3.650  17.927  0.00  0.00    +0.000 A 
ATOM      5  C   UNL     1       3.985   4.832  17.327  0.00  0.00    +0.000 A 
ATOM      6  C   UNL     1       3.375   6.037  17.747  0.00  0.00    +0.000 A 
ENDROOT
BRANCH   5   7
ATOM      7  C   UNL     1       5.118   4.855  16.356  0.00  0.00    +0.000 A 
ATOM      8  C   UNL     1       4.929   4.199  15.110  0.00  0.00    +0.000 A 
ATOM      9  C   UNL     1       5.893   4.193  14.099  0.00  0.00    +0.000 A 
ATOM     10  C   UNL     1       7.089   4.854  14.295  0.00  0.00    +0.000 A 
ATOM     11  C   UNL     1       7.310   5.529  15.497  0.00  0.00    +0.000 A 
ATOM     12  C   UNL     1       6.352   5.519  16.531  0.00  0.00    +0.000 A 
BRANCH  12  13
ATOM     13  O   UNL     1       6.665   6.361  17.563  0.00  0.00    +0.000 OA
BRANCH  13  14
ATOM     14  C   UNL     1       7.382   5.836  18.673  0.00  0.00    +0.000 C 
ATOM     15  F   UNL     1       8.405   6.605  19.089  0.00  0.00    +0.000 F 
ATOM     16  F   UNL     1       6.534   5.654  19.710  0.00  0.00    +0.000 F 
ATOM     17  F   UNL     1       7.861   4.619  18.321  0.00  0.00    +0.000 F 
ENDBRANCH  13  14
ENDBRANCH  12  13
ENDBRANCH   5   7
BRANCH   1  20
ATOM     18  C   UNL     1       1.433   9.454  19.368  0.00  0.00    +0.000 A 
ATOM     19  N   UNL     1       1.901   8.463  18.632  0.00  0.00    +0.000 NA
ATOM     20  C   UNL     1       2.040   7.323  19.403  0.00  0.00    +0.000 A 
ATOM     21  C   UNL     1       1.708   7.473  20.736  0.00  0.00    +0.000 A 
ATOM     22  S   UNL     1       1.229   9.096  21.037  0.00  0.00    +0.000 S 
BRANCH  18  26
ATOM     23  C   UNL     1      -0.581  12.370  18.022  0.00  0.00    +0.000 C 
ATOM     24  N   UNL     1      -0.269  11.105  18.659  0.00  0.00    +0.000 N 
ATOM     25  C   UNL     1      -1.375  10.230  19.025  0.00  0.00    +0.000 C 
ATOM     26  C   UNL     1       1.090  10.784  18.852  0.00  0.00    +0.000 C 
ATOM     27  O   UNL     1       1.949  11.630  18.586  0.00  0.00    +0.000 OA
ENDBRANCH  18  26
ENDBRANCH   1  20
TORSDOF 5
ENDMDL
MODEL 7
REMARK VINA RESULT:      -7.9      1.677      1.985
REMARK  Name = 
REMARK  7 active torsions:
REMARK  status: ('A' for Active; 'I' for Inactive)
REMARK    1  A    between atoms: C_1  and  N_2
REMARK    2  A    between atoms: N_2  and  C_3
REMARK    3  A    between atoms: C_4  and  C_6
REMARK    4  A    between atoms: C_8  and  C_9
REMARK    5  A    between atoms: C_13  and  C_14
REMARK    6  A    between atoms: C_19  and  O_20
REMARK    7  A    between atoms: O_20  and  C_21
REMARK                            x       y       z     vdW  Elec       q    Type
REMARK                         _______ _______ _______ _____ _____    ______ ____
ROOT
ATOM      1  C   UNL     1       2.330   6.432  19.575  0.00  0.00    +0.000 A 
ATOM      2  C   UNL     1       2.102   5.321  20.388  0.00  0.00    +0.000 A 
ATOM      3  C   UNL     1       2.748   4.119  20.121  0.00  0.00    +0.000 A 
ATOM      4  C   UNL     1       3.666   4.033  19.070  0.00  0.00    +0.000 A 
ATOM      5  C   UNL     1       3.881   5.107  18.190  0.00  0.00    +0.000 A 
ATOM      6  C   UNL     1       3.159   6.294  18.451  0.00  0.00    +0.000 A 
ENDROOT
BRANCH   5   7
ATOM      7  C   UNL     1       4.875   5.054  17.079  0.00  0.00    +0.000 A 
ATOM      8  C   UNL     1       4.488   4.398  15.879  0.00  0.00    +0.000 A 
ATOM      9  C   UNL     1       5.308   4.326  14.751  0.00  0.00    +0.000 A 
ATOM     10  C   UNL     1       6.554   4.920  14.777  0.00  0.00    +0.000 A 
ATOM     11  C   UNL     1       6.969   5.593  15.926  0.00  0.00    +0.000 A 
ATOM     12  C   UNL     1       6.156   5.648  17.077  0.00  0.00    +0.000 A 
BRANCH  12  13
ATOM     13  O   UNL     1       6.649   6.482  18.045  0.00  0.00    +0.000 OA
BRANCH  13  14
ATOM     14  C   UNL     1       7.642   5.981  18.931  0.00  0.00    +0.000 C 
ATOM     15  F   UNL     1       7.194   5.697  20.167  0.00  0.00    +0.000 F 
ATOM     16  F   UNL     1       8.188   4.861  18.406  0.00  0.00    +0.000 F 
ATOM     17  F   UNL     1       8.626   6.909  19.022  0.00  0.00    +0.000 F 
ENDBRANCH  13  14
ENDBRANCH  12  13
ENDBRANCH   5   7
BRANCH   1  20
ATOM     18  C   UNL     1       1.150   9.804  19.626  0.00  0.00    +0.000 A 
ATOM     19  N   UNL     1       1.709   8.747  19.067  0.00  0.00    +0.000 NA
ATOM     20  C   UNL     1       1.859   7.738  20.001  0.00  0.00    +0.000 A 
ATOM     21  C   UNL     1       1.443   8.058  21.280  0.00  0.00    +0.000 A 
ATOM     22  S   UNL     1       0.867   9.677  21.317  0.00  0.00    +0.000 S 
BRANCH  18  26
ATOM     23  C   UNL     1      -0.895  12.334  17.681  0.00  0.00    +0.000 C 
ATOM     24  N   UNL     1      -0.570  11.189  18.509  0.00  0.00    +0.000 N 
ATOM     25  C   UNL     1      -1.641  10.261  18.848  0.00  0.00    +0.000 C 
ATOM     26  C   UNL     1       0.773  11.025  18.905  0.00  0.00    +0.000 C 
ATOM     27  O   UNL     1       1.589  11.913  18.638  0.00  0.00    +0.000 OA
ENDBRANCH  18  26
ENDBRANCH   1  20
TORSDOF 5
ENDMDL
MODEL 8
REMARK VINA RESULT:      -7.9      1.008      1.178
REMARK  Name = 
REMARK  7 active torsions:
REMARK  status: ('A' for Active; 'I' for Inactive)
REMARK    1  A    between atoms: C_1  and  N_2
REMARK    2  A    between atoms: N_2  and  C_3
REMARK    3  A    between atoms: C_4  and  C_6
REMARK    4  A    between atoms: C_8  and  C_9
REMARK    5  A    between atoms: C_13  and  C_14
REMARK    6  A    between atoms: C_19  and  O_20
REMARK    7  A    between atoms: O_20  and  C_21
REMARK                            x       y       z     vdW  Elec       q    Type
REMARK                         _______ _______ _______ _____ _____    ______ ____
ROOT
ATOM      1  C   UNL     1       2.512   6.799  18.872  0.00  0.00    +0.000 A 
ATOM      2  C   UNL     1       2.340   5.956  19.969  0.00  0.00    +0.000 A 
ATOM      3  C   UNL     1       3.082   4.784  20.070  0.00  0.00    +0.000 A 
ATOM      4  C   UNL     1       4.040   4.474  19.100  0.00  0.00    +0.000 A 
ATOM      5  C   UNL     1       4.205   5.263  17.949  0.00  0.00    +0.000 A 
ATOM      6  C   UNL     1       3.388   6.412  17.846  0.00  0.00    +0.000 A 
ENDROOT
BRANCH   5   7
ATOM      7  C   UNL     1       5.238   4.973  16.912  0.00  0.00    +0.000 A 
ATOM      8  C   UNL     1       4.897   5.222  15.555  0.00  0.00    +0.000 A 
ATOM      9  C   UNL     1       5.792   5.040  14.499  0.00  0.00    +0.000 A 
ATOM     10  C   UNL     1       7.076   4.607  14.762  0.00  0.00    +0.000 A 
ATOM     11  C   UNL     1       7.462   4.370  16.082  0.00  0.00    +0.000 A 
ATOM     12  C   UNL     1       6.556   4.527  17.150  0.00  0.00    +0.000 A 
BRANCH  12  13
ATOM     13  O   UNL     1       7.148   4.410  18.379  0.00  0.00    +0.000 OA
BRANCH  13  14
ATOM     14  C   UNL     1       7.621   5.588  19.020  0.00  0.00    +0.000 C 
ATOM     15  F   UNL     1       7.896   6.605  18.184  0.00  0.00    +0.000 F 
ATOM     16  F   UNL     1       6.702   6.008  19.919  0.00  0.00    +0.000 F 
ATOM     17  F   UNL     1       8.744   5.266  19.707  0.00  0.00    +0.000 F 
ENDBRANCH  13  14
ENDBRANCH  12  13
ENDBRANCH   5   7
BRANCH   1  20
ATOM     18  C   UNL     1       0.712   9.739  19.811  0.00  0.00    +0.000 A 
ATOM     19  N   UNL     1       1.017   8.457  19.882  0.00  0.00    +0.000 NA
ATOM     20  C   UNL     1       1.931   8.131  18.896  0.00  0.00    +0.000 A 
ATOM     21  C   UNL     1       2.284   9.171  18.056  0.00  0.00    +0.000 A 
ATOM     22  S   UNL     1       1.429  10.593  18.502  0.00  0.00    +0.000 S 
BRANCH  18  26
ATOM     23  C   UNL     1      -0.973  10.788  23.041  0.00  0.00    +0.000 C 
ATOM     24  N   UNL     1      -0.008  10.195  22.134  0.00  0.00    +0.000 N 
ATOM     25  C   UNL     1       1.039   9.355  22.700  0.00  0.00    +0.000 C 
ATOM     26  C   UNL     1      -0.167  10.439  20.755  0.00  0.00    +0.000 C 
ATOM     27  O   UNL     1      -1.035  11.235  20.383  0.00  0.00    +0.000 OA
ENDBRANCH  18  26
ENDBRANCH   1  20
TORSDOF 5
ENDMDL
MODEL 9
REMARK VINA RESULT:      -7.9      1.040      1.269
REMARK  Name = 
REMARK  7 active torsions:
REMARK  status: ('A' for Active; 'I' for Inactive)
REMARK    1  A    between atoms: C_1  and  N_2
REMARK    2  A    between atoms: N_2  and  C_3
REMARK    3  A    between atoms: C_4  and  C_6
REMARK    4  A    between atoms: C_8  and  C_9
REMARK    5  A    between atoms: C_13  and  C_14
REMARK    6  A    between atoms: C_19  and  O_20
REMARK    7  A    between atoms: O_20  and  C_21
REMARK                            x       y       z     vdW  Elec       q    Type
REMARK                         _______ _______ _______ _____ _____    ______ ____
ROOT
ATOM      1  C   UNL     1       2.470   6.350  18.943  0.00  0.00    +0.000 A 
ATOM      2  C   UNL     1       2.214   5.364  19.896  0.00  0.00    +0.000 A 
ATOM      3  C   UNL     1       2.897   4.153  19.845  0.00  0.00    +0.000 A 
ATOM      4  C   UNL     1       3.878   3.941  18.870  0.00  0.00    +0.000 A 
ATOM      5  C   UNL     1       4.124   4.881  17.856  0.00  0.00    +0.000 A 
ATOM      6  C   UNL     1       3.366   6.074  17.900  0.00  0.00    +0.000 A 
ENDROOT
BRANCH   5   7
ATOM      7  C   UNL     1       5.183   4.695  16.822  0.00  0.00    +0.000 A 
ATOM      8  C   UNL     1       4.814   4.874  15.461  0.00  0.00    +0.000 A 
ATOM      9  C   UNL     1       5.723   4.778  14.406  0.00  0.00    +0.000 A 
ATOM     10  C   UNL     1       7.049   4.504  14.673  0.00  0.00    +0.000 A 
ATOM     11  C   UNL     1       7.463   4.340  15.996  0.00  0.00    +0.000 A 
ATOM     12  C   UNL     1       6.545   4.411  17.065  0.00  0.00    +0.000 A 
BRANCH  12  13
ATOM     13  O   UNL     1       7.148   4.389  18.294  0.00  0.00    +0.000 OA
BRANCH  13  14
ATOM     14  C   UNL     1       7.420   5.626  18.939  0.00  0.00    +0.000 C 
ATOM     15  F   UNL     1       8.565   5.648  19.644  0.00  0.00    +0.000 F 
ATOM     16  F   UNL     1       7.466   6.613  18.016  0.00  0.00    +0.000 F 
ATOM     17  F   UNL     1       6.386   5.898  19.772  0.00  0.00    +0.000 F 
ENDBRANCH  13  14
ENDBRANCH  12  13
ENDBRANCH   5   7
BRANCH   1  20
ATOM     18  C   UNL     1       1.150   9.332  20.404  0.00  0.00    +0.000 A 
ATOM     19  N   UNL     1       1.445   8.045  20.385  0.00  0.00    +0.000 NA
ATOM     20  C   UNL     1       1.950   7.692  19.147  0.00  0.00    +0.000 A 
ATOM     21  C   UNL     1       1.999   8.716  18.220  0.00  0.00    +0.000 A 
ATOM     22  S   UNL     1       1.372  10.158  18.913  0.00  0.00    +0.000 S 
BRANCH  18  26
ATOM     23  C   UNL     1      -0.817  11.730  22.583  0.00  0.00    +0.000 C 
ATOM     24  N   UNL     1      -0.440  10.919  21.442  0.00  0.00    +0.000 N 
ATOM     25  C   UNL     1      -1.202  11.073  20.209  0.00  0.00    +0.000 C 
ATOM     26  C   UNL     1       0.666  10.058  21.584  0.00  0.00    +0.000 C 
ATOM     27  O   UNL     1       1.192   9.936  22.695  0.00  0.00    +0.000 OA
ENDBRANCH  18  26
ENDBRANCH   1  20
TORSDOF 5
ENDMDL
