MODEL 1
REMARK VINA RESULT:      -7.3      0.000      0.000
REMARK  Name = 
REMARK  2 active torsions:
REMARK  status: ('A' for Active; 'I' for Inactive)
REMARK    1  A    between atoms: C_1  and  C_2
REMARK    2  A    between atoms: C_6  and  N_7
REMARK                            x       y       z     vdW  Elec       q    Type
REMARK                         _______ _______ _______ _____ _____    ______ ____
ROOT
ATOM      1  N   UNL     1       3.544   5.640  18.214  0.00  0.00    +0.000 N 
ATOM      2  C   UNL     1       3.184   7.054  18.374  0.00  0.00    +0.000 C 
ATOM      3  N   UNL     1       3.697   8.071  17.520  0.00  0.00    +0.000 N 
ATOM      4  N   UNL     1       2.366   7.443  19.288  0.00  0.00    +0.000 NA
ATOM      5  C   UNL     1       1.772   6.559  20.203  0.00  0.00    +0.000 C 
ATOM      6  N   UNL     1       0.858   7.041  21.165  0.00  0.00    +0.000 N 
ATOM      7  N   UNL     1       2.003   5.306  20.117  0.00  0.00    +0.000 NA
ATOM      8  C   UNL     1       2.824   4.643  19.121  0.00  0.00    +0.000 C 
ATOM      9  C   UNL     1       3.786   3.742  19.964  0.00  0.00    +0.000 C 
ATOM     10  C   UNL     1       4.475   2.641  19.162  0.00  0.00    +0.000 C 
ATOM     11  C   UNL     1       3.452   1.837  18.291  0.00  0.00    +0.000 C 
ATOM     12  C   UNL     1       2.313   2.635  17.558  0.00  0.00    +0.000 C 
ATOM     13  C   UNL     1       1.766   3.704  18.458  0.00  0.00    +0.000 C 
ATOM     14  H   UNL     1       4.258   7.863  16.687  0.00  0.00    +0.000 HD
ATOM     15  H   UNL     1       3.460   9.060  17.703  0.00  0.00    +0.000 HD
ATOM     16  H   UNL     1       0.613   8.041  21.206  0.00  0.00    +0.000 HD
ATOM     17  H   UNL     1       0.365   6.385  21.790  0.00  0.00    +0.000 HD
ENDROOT
BRANCH   1  23
ATOM     18  C   UNL     1       5.855   3.766  14.133  0.00  0.00    +0.000 C 
ATOM     19  C   UNL     1       5.994   4.422  15.489  0.00  0.00    +0.000 A 
ATOM     20  C   UNL     1       7.203   4.464  16.164  0.00  0.00    +0.000 A 
ATOM     21  C   UNL     1       7.238   4.958  17.468  0.00  0.00    +0.000 A 
ATOM     22  C   UNL     1       6.058   5.363  18.120  0.00  0.00    +0.000 A 
ATOM     23  C   UNL     1       4.792   5.335  17.470  0.00  0.00    +0.000 A 
ATOM     24  C   UNL     1       4.849   4.908  16.115  0.00  0.00    +0.000 A 
ENDBRANCH   1  23
TORSDOF 1
ENDMDL
MODEL 2
REMARK VINA RESULT:      -7.2      1.933      4.875
REMARK  Name = 
REMARK  2 active torsions:
REMARK  status: ('A' for Active; 'I' for Inactive)
REMARK    1  A    between atoms: C_1  and  C_2
REMARK    2  A    between atoms: C_6  and  N_7
REMARK                            x       y       z     vdW  Elec       q    Type
REMARK                         _______ _______ _______ _____ _____    ______ ____
ROOT
ATOM      1  N   UNL     1       4.060   5.419  18.053  0.00  0.00    +0.000 N 
ATOM      2  C   UNL     1       5.229   5.983  17.368  0.00  0.00    +0.000 C 
ATOM      3  N   UNL     1       5.700   7.302  17.626  0.00  0.00    +0.000 N 
ATOM      4  N   UNL     1       5.902   5.301  16.508  0.00  0.00    +0.000 NA
ATOM      5  C   UNL     1       5.566   3.986  16.150  0.00  0.00    +0.000 C 
ATOM      6  N   UNL     1       6.361   3.277  15.223  0.00  0.00    +0.000 N 
ATOM      7  N   UNL     1       4.584   3.404  16.722  0.00  0.00    +0.000 NA
ATOM      8  C   UNL     1       3.742   3.951  17.770  0.00  0.00    +0.000 C 
ATOM      9  C   UNL     1       2.287   3.706  17.252  0.00  0.00    +0.000 C 
ATOM     10  C   UNL     1       1.212   3.816  18.331  0.00  0.00    +0.000 C 
ATOM     11  C   UNL     1       1.584   2.981  19.601  0.00  0.00    +0.000 C 
ATOM     12  C   UNL     1       3.078   2.998  20.090  0.00  0.00    +0.000 C 
ATOM     13  C   UNL     1       4.010   2.925  18.916  0.00  0.00    +0.000 C 
ATOM     14  H   UNL     1       5.317   7.889  18.375  0.00  0.00    +0.000 HD
ATOM     15  H   UNL     1       6.493   7.678  17.080  0.00  0.00    +0.000 HD
ATOM     16  H   UNL     1       7.194   3.712  14.801  0.00  0.00    +0.000 HD
ATOM     17  H   UNL     1       6.160   2.287  15.014  0.00  0.00    +0.000 HD
ENDROOT
BRANCH   1  23
ATOM     18  C   UNL     1       1.486   9.759  17.845  0.00  0.00    +0.000 C 
ATOM     19  C   UNL     1       1.808   8.502  18.623  0.00  0.00    +0.000 A 
ATOM     20  C   UNL     1       1.487   8.368  19.965  0.00  0.00    +0.000 A 
ATOM     21  C   UNL     1       1.932   7.245  20.661  0.00  0.00    +0.000 A 
ATOM     22  C   UNL     1       2.741   6.279  20.035  0.00  0.00    +0.000 A 
ATOM     23  C   UNL     1       3.100   6.375  18.661  0.00  0.00    +0.000 A 
ATOM     24  C   UNL     1       2.534   7.495  17.994  0.00  0.00    +0.000 A 
ENDBRANCH   1  23
TORSDOF 1
ENDMDL
MODEL 3
REMARK VINA RESULT:      -7.1      2.093      3.821
REMARK  Name = 
REMARK  2 active torsions:
REMARK  status: ('A' for Active; 'I' for Inactive)
REMARK    1  A    between atoms: C_1  and  C_2
REMARK    2  A    between atoms: C_6  and  N_7
REMARK                            x       y       z     vdW  Elec       q    Type
REMARK                         _______ _______ _______ _____ _____    ______ ____
ROOT
ATOM      1  N   UNL     1       3.670   3.817  19.637  0.00  0.00    +0.000 N 
ATOM      2  C   UNL     1       3.937   2.654  20.490  0.00  0.00    +0.000 C 
ATOM      3  N   UNL     1       5.192   1.982  20.491  0.00  0.00    +0.000 N 
ATOM      4  N   UNL     1       3.049   2.194  21.301  0.00  0.00    +0.000 NA
ATOM      5  C   UNL     1       1.766   2.752  21.420  0.00  0.00    +0.000 C 
ATOM      6  N   UNL     1       0.845   2.222  22.350  0.00  0.00    +0.000 N 
ATOM      7  N   UNL     1       1.459   3.787  20.740  0.00  0.00    +0.000 NA
ATOM      8  C   UNL     1       2.324   4.515  19.830  0.00  0.00    +0.000 C 
ATOM      9  C   UNL     1       1.478   4.635  18.520  0.00  0.00    +0.000 C 
ATOM     10  C   UNL     1       1.982   5.697  17.545  0.00  0.00    +0.000 C 
ATOM     11  C   UNL     1       2.237   7.064  18.264  0.00  0.00    +0.000 C 
ATOM     12  C   UNL     1       2.905   7.040  19.688  0.00  0.00    +0.000 C 
ATOM     13  C   UNL     1       2.336   5.921  20.510  0.00  0.00    +0.000 C 
ATOM     14  H   UNL     1       6.007   2.333  19.977  0.00  0.00    +0.000 HD
ATOM     15  H   UNL     1       5.318   1.133  21.067  0.00  0.00    +0.000 HD
ATOM     16  H   UNL     1       1.101   1.426  22.952  0.00  0.00    +0.000 HD
ATOM     17  H   UNL     1      -0.071   2.675  22.492  0.00  0.00    +0.000 HD
ENDROOT
BRANCH   1  23
ATOM     18  C   UNL     1       7.197   6.453  17.161  0.00  0.00    +0.000 C 
ATOM     19  C   UNL     1       6.269   5.257  17.171  0.00  0.00    +0.000 A 
ATOM     20  C   UNL     1       5.992   4.534  16.022  0.00  0.00    +0.000 A 
ATOM     21  C   UNL     1       5.024   3.531  16.066  0.00  0.00    +0.000 A 
ATOM     22  C   UNL     1       4.293   3.283  17.242  0.00  0.00    +0.000 A 
ATOM     23  C   UNL     1       4.538   4.001  18.446  0.00  0.00    +0.000 A 
ATOM     24  C   UNL     1       5.601   4.941  18.351  0.00  0.00    +0.000 A 
ENDBRANCH   1  23
TORSDOF 1
ENDMDL
MODEL 4
REMARK VINA RESULT:      -7.1      1.990      5.248
REMARK  Name = 
REMARK  2 active torsions:
REMARK  status: ('A' for Active; 'I' for Inactive)
REMARK    1  A    between atoms: C_1  and  C_2
REMARK    2  A    between atoms: C_6  and  N_7
REMARK                            x       y       z     vdW  Elec       q    Type
REMARK                         _______ _______ _______ _____ _____    ______ ____
ROOT
ATOM      1  N   UNL     1       3.343   4.876  18.984  0.00  0.00    +0.000 N 
ATOM      2  C   UNL     1       2.610   3.872  19.764  0.00  0.00    +0.000 C 
ATOM      3  N   UNL     1       1.247   4.045  20.137  0.00  0.00    +0.000 N 
ATOM      4  N   UNL     1       3.161   2.770  20.135  0.00  0.00    +0.000 NA
ATOM      5  C   UNL     1       4.496   2.451  19.839  0.00  0.00    +0.000 C 
ATOM      6  N   UNL     1       5.037   1.211  20.246  0.00  0.00    +0.000 N 
ATOM      7  N   UNL     1       5.199   3.251  19.135  0.00  0.00    +0.000 NA
ATOM      8  C   UNL     1       4.760   4.504  18.549  0.00  0.00    +0.000 C 
ATOM      9  C   UNL     1       5.852   5.532  18.995  0.00  0.00    +0.000 C 
ATOM     10  C   UNL     1       5.856   6.829  18.188  0.00  0.00    +0.000 C 
ATOM     11  C   UNL     1       5.838   6.549  16.648  0.00  0.00    +0.000 C 
ATOM     12  C   UNL     1       4.918   5.390  16.115  0.00  0.00    +0.000 C 
ATOM     13  C   UNL     1       4.990   4.205  17.033  0.00  0.00    +0.000 C 
ATOM     14  H   UNL     1       0.675   4.825  19.796  0.00  0.00    +0.000 HD
ATOM     15  H   UNL     1       0.786   3.339  20.734  0.00  0.00    +0.000 HD
ATOM     16  H   UNL     1       4.462   0.528  20.760  0.00  0.00    +0.000 HD
ATOM     17  H   UNL     1       5.993   0.944  19.968  0.00  0.00    +0.000 HD
ENDROOT
BRANCH   1  23
ATOM     18  C   UNL     1       1.212   8.737  21.446  0.00  0.00    +0.000 C 
ATOM     19  C   UNL     1       1.758   8.201  20.140  0.00  0.00    +0.000 A 
ATOM     20  C   UNL     1       1.506   8.825  18.929  0.00  0.00    +0.000 A 
ATOM     21  C   UNL     1       1.918   8.208  17.748  0.00  0.00    +0.000 A 
ATOM     22  C   UNL     1       2.536   6.944  17.769  0.00  0.00    +0.000 A 
ATOM     23  C   UNL     1       2.812   6.262  18.987  0.00  0.00    +0.000 A 
ATOM     24  C   UNL     1       2.449   6.992  20.152  0.00  0.00    +0.000 A 
ENDBRANCH   1  23
TORSDOF 1
ENDMDL
MODEL 5
REMARK VINA RESULT:      -7.1      1.274      1.939
REMARK  Name = 
REMARK  2 active torsions:
REMARK  status: ('A' for Active; 'I' for Inactive)
REMARK    1  A    between atoms: C_1  and  C_2
REMARK    2  A    between atoms: C_6  and  N_7
REMARK                            x       y       z     vdW  Elec       q    Type
REMARK                         _______ _______ _______ _____ _____    ______ ____
ROOT
ATOM      1  N   UNL     1       2.817   5.717  18.885  0.00  0.00    +0.000 N 
ATOM      2  C   UNL     1       2.692   7.174  18.755  0.00  0.00    +0.000 C 
ATOM      3  N   UNL     1       3.279   7.895  17.677  0.00  0.00    +0.000 N 
ATOM      4  N   UNL     1       2.024   7.873  19.605  0.00  0.00    +0.000 NA
ATOM      5  C   UNL     1       1.383   7.306  20.718  0.00  0.00    +0.000 C 
ATOM      6  N   UNL     1       0.638   8.121  21.599  0.00  0.00    +0.000 N 
ATOM      7  N   UNL     1       1.411   6.042  20.891  0.00  0.00    +0.000 NA
ATOM      8  C   UNL     1       2.034   5.061  20.021  0.00  0.00    +0.000 C 
ATOM      9  C   UNL     1       2.915   4.204  20.988  0.00  0.00    +0.000 C 
ATOM     10  C   UNL     1       3.358   2.863  20.408  0.00  0.00    +0.000 C 
ATOM     11  C   UNL     1       2.154   2.081  19.784  0.00  0.00    +0.000 C 
ATOM     12  C   UNL     1       1.091   2.890  18.955  0.00  0.00    +0.000 C 
ATOM     13  C   UNL     1       0.793   4.197  19.630  0.00  0.00    +0.000 C 
ATOM     14  H   UNL     1       3.729   7.430  16.881  0.00  0.00    +0.000 HD
ATOM     15  H   UNL     1       3.213   8.926  17.654  0.00  0.00    +0.000 HD
ATOM     16  H   UNL     1       0.553   9.134  21.436  0.00  0.00    +0.000 HD
ATOM     17  H   UNL     1       0.106   7.698  22.375  0.00  0.00    +0.000 HD
ENDROOT
BRANCH   1  23
ATOM     18  C   UNL     1       7.774   5.085  18.150  0.00  0.00    +0.000 C 
ATOM     19  C   UNL     1       6.365   4.709  17.745  0.00  0.00    +0.000 A 
ATOM     20  C   UNL     1       6.097   4.036  16.564  0.00  0.00    +0.000 A 
ATOM     21  C   UNL     1       4.771   3.840  16.179  0.00  0.00    +0.000 A 
ATOM     22  C   UNL     1       3.711   4.361  16.944  0.00  0.00    +0.000 A 
ATOM     23  C   UNL     1       3.937   5.063  18.161  0.00  0.00    +0.000 A 
ATOM     24  C   UNL     1       5.306   5.142  18.537  0.00  0.00    +0.000 A 
ENDBRANCH   1  23
TORSDOF 1
ENDMDL
MODEL 6
REMARK VINA RESULT:      -7.0      2.082      5.100
REMARK  Name = 
REMARK  2 active torsions:
REMARK  status: ('A' for Active; 'I' for Inactive)
REMARK    1  A    between atoms: C_1  and  C_2
REMARK    2  A    between atoms: C_6  and  N_7
REMARK                            x       y       z     vdW  Elec       q    Type
REMARK                         _______ _______ _______ _____ _____    ______ ____
ROOT
ATOM      1  N   UNL     1       2.812   4.405  18.566  0.00  0.00    +0.000 N 
ATOM      2  C   UNL     1       1.932   3.257  18.814  0.00  0.00    +0.000 C 
ATOM      3  N   UNL     1       0.535   3.405  19.045  0.00  0.00    +0.000 N 
ATOM      4  N   UNL     1       2.379   2.050  18.814  0.00  0.00    +0.000 NA
ATOM      5  C   UNL     1       3.731   1.741  18.595  0.00  0.00    +0.000 C 
ATOM      6  N   UNL     1       4.158   0.395  18.576  0.00  0.00    +0.000 N 
ATOM      7  N   UNL     1       4.563   2.675  18.338  0.00  0.00    +0.000 NA
ATOM      8  C   UNL     1       4.264   4.090  18.210  0.00  0.00    +0.000 C 
ATOM      9  C   UNL     1       5.311   4.782  19.144  0.00  0.00    +0.000 C 
ATOM     10  C   UNL     1       5.486   6.277  18.889  0.00  0.00    +0.000 C 
ATOM     11  C   UNL     1       5.694   6.580  17.367  0.00  0.00    +0.000 C 
ATOM     12  C   UNL     1       4.825   5.784  16.326  0.00  0.00    +0.000 C 
ATOM     13  C   UNL     1       4.713   4.344  16.736  0.00  0.00    +0.000 C 
ATOM     14  H   UNL     1       0.050   4.304  18.949  0.00  0.00    +0.000 HD
ATOM     15  H   UNL     1      -0.038   2.574  19.270  0.00  0.00    +0.000 HD
ATOM     16  H   UNL     1       3.487  -0.374  18.718  0.00  0.00    +0.000 HD
ATOM     17  H   UNL     1       5.135   0.162  18.343  0.00  0.00    +0.000 HD
ENDROOT
BRANCH   1  23
ATOM     18  C   UNL     1       2.141   9.335  17.698  0.00  0.00    +0.000 C 
ATOM     19  C   UNL     1       1.984   8.175  18.657  0.00  0.00    +0.000 A 
ATOM     20  C   UNL     1       1.707   8.366  20.001  0.00  0.00    +0.000 A 
ATOM     21  C   UNL     1       1.711   7.267  20.859  0.00  0.00    +0.000 A 
ATOM     22  C   UNL     1       2.042   5.983  20.389  0.00  0.00    +0.000 A 
ATOM     23  C   UNL     1       2.337   5.737  19.019  0.00  0.00    +0.000 A 
ATOM     24  C   UNL     1       2.223   6.885  18.189  0.00  0.00    +0.000 A 
ENDBRANCH   1  23
TORSDOF 1
ENDMDL
MODEL 7
REMARK VINA RESULT:      -7.0      1.966      5.234
REMARK  Name = 
REMARK  2 active torsions:
REMARK  status: ('A' for Active; 'I' for Inactive)
REMARK    1  A    between atoms: C_1  and  C_2
REMARK    2  A    between atoms: C_6  and  N_7
REMARK                            x       y       z     vdW  Elec       q    Type
REMARK                         _______ _______ _______ _____ _____    ______ ____
ROOT
ATOM      1  N   UNL     1       3.088   4.752  18.123  0.00  0.00    +0.000 N 
ATOM      2  C   UNL     1       2.105   3.707  18.430  0.00  0.00    +0.000 C 
ATOM      3  N   UNL     1       0.723   3.992  18.618  0.00  0.00    +0.000 N 
ATOM      4  N   UNL     1       2.445   2.468  18.525  0.00  0.00    +0.000 NA
ATOM      5  C   UNL     1       3.768   2.028  18.360  0.00  0.00    +0.000 C 
ATOM      6  N   UNL     1       4.074   0.652  18.446  0.00  0.00    +0.000 N 
ATOM      7  N   UNL     1       4.683   2.865  18.058  0.00  0.00    +0.000 NA
ATOM      8  C   UNL     1       4.513   4.288  17.825  0.00  0.00    +0.000 C 
ATOM      9  C   UNL     1       5.600   4.951  18.732  0.00  0.00    +0.000 C 
ATOM     10  C   UNL     1       5.911   6.404  18.376  0.00  0.00    +0.000 C 
ATOM     11  C   UNL     1       6.171   6.577  16.842  0.00  0.00    +0.000 C 
ATOM     12  C   UNL     1       5.254   5.786  15.839  0.00  0.00    +0.000 C 
ATOM     13  C   UNL     1       5.008   4.395  16.347  0.00  0.00    +0.000 C 
ATOM     14  H   UNL     1       0.322   4.920  18.447  0.00  0.00    +0.000 HD
ATOM     15  H   UNL     1       0.076   3.232  18.887  0.00  0.00    +0.000 HD
ATOM     16  H   UNL     1       3.335  -0.043  18.626  0.00  0.00    +0.000 HD
ATOM     17  H   UNL     1       5.030   0.319  18.253  0.00  0.00    +0.000 HD
ENDROOT
BRANCH   1  23
ATOM     18  C   UNL     1       1.327   8.116  21.455  0.00  0.00    +0.000 C 
ATOM     19  C   UNL     1       1.860   7.857  20.062  0.00  0.00    +0.000 A 
ATOM     20  C   UNL     1       1.735   8.789  19.044  0.00  0.00    +0.000 A 
ATOM     21  C   UNL     1       2.121   8.439  17.750  0.00  0.00    +0.000 A 
ATOM     22  C   UNL     1       2.584   7.142  17.459  0.00  0.00    +0.000 A 
ATOM     23  C   UNL     1       2.725   6.150  18.470  0.00  0.00    +0.000 A 
ATOM     24  C   UNL     1       2.402   6.607  19.777  0.00  0.00    +0.000 A 
ENDBRANCH   1  23
TORSDOF 1
ENDMDL
MODEL 8
REMARK VINA RESULT:      -7.0      2.021      3.759
REMARK  Name = 
REMARK  2 active torsions:
REMARK  status: ('A' for Active; 'I' for Inactive)
REMARK    1  A    between atoms: C_1  and  C_2
REMARK    2  A    between atoms: C_6  and  N_7
REMARK                            x       y       z     vdW  Elec       q    Type
REMARK                         _______ _______ _______ _____ _____    ______ ____
ROOT
ATOM      1  N   UNL     1       3.713   3.950  18.984  0.00  0.00    +0.000 N 
ATOM      2  C   UNL     1       3.764   2.496  19.170  0.00  0.00    +0.000 C 
ATOM      3  N   UNL     1       4.985   1.799  19.397  0.00  0.00    +0.000 N 
ATOM      4  N   UNL     1       2.697   1.776  19.156  0.00  0.00    +0.000 NA
ATOM      5  C   UNL     1       1.418   2.316  18.950  0.00  0.00    +0.000 C 
ATOM      6  N   UNL     1       0.281   1.479  18.976  0.00  0.00    +0.000 N 
ATOM      7  N   UNL     1       1.276   3.577  18.813  0.00  0.00    +0.000 NA
ATOM      8  C   UNL     1       2.325   4.579  18.874  0.00  0.00    +0.000 C 
ATOM      9  C   UNL     1       2.113   5.426  17.576  0.00  0.00    +0.000 C 
ATOM     10  C   UNL     1       2.816   6.782  17.592  0.00  0.00    +0.000 C 
ATOM     11  C   UNL     1       2.526   7.564  18.917  0.00  0.00    +0.000 C 
ATOM     12  C   UNL     1       2.515   6.760  20.268  0.00  0.00    +0.000 C 
ATOM     13  C   UNL     1       1.829   5.439  20.080  0.00  0.00    +0.000 C 
ATOM     14  H   UNL     1       5.878   2.282  19.547  0.00  0.00    +0.000 HD
ATOM     15  H   UNL     1       4.981   0.768  19.467  0.00  0.00    +0.000 HD
ATOM     16  H   UNL     1       0.374   0.468  19.149  0.00  0.00    +0.000 HD
ATOM     17  H   UNL     1      -0.665   1.883  18.898  0.00  0.00    +0.000 HD
ENDROOT
BRANCH   1  23
ATOM     18  C   UNL     1       7.249   4.847  15.490  0.00  0.00    +0.000 C 
ATOM     19  C   UNL     1       6.746   5.108  16.894  0.00  0.00    +0.000 A 
ATOM     20  C   UNL     1       7.548   5.688  17.864  0.00  0.00    +0.000 A 
ATOM     21  C   UNL     1       7.075   5.775  19.173  0.00  0.00    +0.000 A 
ATOM     22  C   UNL     1       5.824   5.237  19.528  0.00  0.00    +0.000 A 
ATOM     23  C   UNL     1       4.968   4.628  18.569  0.00  0.00    +0.000 A 
ATOM     24  C   UNL     1       5.475   4.659  17.241  0.00  0.00    +0.000 A 
ENDBRANCH   1  23
TORSDOF 1
ENDMDL
MODEL 9
REMARK VINA RESULT:      -6.9      9.541     11.620
REMARK  Name = 
REMARK  2 active torsions:
REMARK  status: ('A' for Active; 'I' for Inactive)
REMARK    1  A    between atoms: C_1  and  C_2
REMARK    2  A    between atoms: C_6  and  N_7
REMARK                            x       y       z     vdW  Elec       q    Type
REMARK                         _______ _______ _______ _____ _____    ______ ____
ROOT
ATOM      1  N   UNL     1      10.094  14.593  17.867  0.00  0.00    +0.000 N 
ATOM      2  C   UNL     1      11.235  15.009  17.044  0.00  0.00    +0.000 C 
ATOM      3  N   UNL     1      12.146  14.074  16.476  0.00  0.00    +0.000 N 
ATOM      4  N   UNL     1      11.457  16.248  16.775  0.00  0.00    +0.000 NA
ATOM      5  C   UNL     1      10.645  17.288  17.256  0.00  0.00    +0.000 C 
ATOM      6  N   UNL     1      10.922  18.627  16.902  0.00  0.00    +0.000 N 
ATOM      7  N   UNL     1       9.611  17.015  17.953  0.00  0.00    +0.000 NA
ATOM      8  C   UNL     1       9.129  15.693  18.307  0.00  0.00    +0.000 C 
ATOM      9  C   UNL     1       8.917  15.770  19.855  0.00  0.00    +0.000 C 
ATOM     10  C   UNL     1       8.039  14.657  20.423  0.00  0.00    +0.000 C 
ATOM     11  C   UNL     1       6.712  14.499  19.607  0.00  0.00    +0.000 C 
ATOM     12  C   UNL     1       6.786  14.609  18.040  0.00  0.00    +0.000 C 
ATOM     13  C   UNL     1       7.717  15.716  17.640  0.00  0.00    +0.000 C 
ATOM     14  H   UNL     1      11.998  13.060  16.523  0.00  0.00    +0.000 HD
ATOM     15  H   UNL     1      12.967  14.414  15.949  0.00  0.00    +0.000 HD
ATOM     16  H   UNL     1      11.716  18.857  16.288  0.00  0.00    +0.000 HD
ATOM     17  H   UNL     1      10.286  19.384  17.194  0.00  0.00    +0.000 HD
ENDROOT
BRANCH   1  23
ATOM     18  C   UNL     1       8.402   9.847  18.217  0.00  0.00    +0.000 C 
ATOM     19  C   UNL     1       9.369  10.897  18.718  0.00  0.00    +0.000 A 
ATOM     20  C   UNL     1      10.073  10.741  19.901  0.00  0.00    +0.000 A 
ATOM     21  C   UNL     1      10.842  11.801  20.380  0.00  0.00    +0.000 A 
ATOM     22  C   UNL     1      10.870  13.037  19.707  0.00  0.00    +0.000 A 
ATOM     23  C   UNL     1      10.160  13.247  18.492  0.00  0.00    +0.000 A 
ATOM     24  C   UNL     1       9.475  12.095  18.017  0.00  0.00    +0.000 A 
ENDBRANCH   1  23
TORSDOF 1
ENDMDL
