MODEL 1
REMARK VINA RESULT:      -6.9      0.000      0.000
REMARK  Name = 
REMARK  8 active torsions:
REMARK  status: ('A' for Active; 'I' for Inactive)
REMARK    1  A    between atoms: C_1  and  O_2
REMARK    2  A    between atoms: O_2  and  C_3
REMARK    3  A    between atoms: C_5  and  O_6
REMARK    4  A    between atoms: O_6  and  C_7
REMARK    5  A    between atoms: C_9  and  C_10
REMARK    6  A    between atoms: N_12  and  C_13
REMARK    7  A    between atoms: C_13  and  C_14
REMARK    8  A    between atoms: C_13  and  C_15
REMARK                            x       y       z     vdW  Elec       q    Type
REMARK                         _______ _______ _______ _____ _____    ______ ____
ROOT
ATOM      1  C   UNL     1       1.988   8.375  18.272  0.00  0.00    +0.000 C 
ATOM      2  O   UNL     1       2.393   8.719  17.171  0.00  0.00    +0.000 OA
ATOM      3  N   UNL     1       2.227   7.128  18.816  0.00  0.00    +0.000 N 
ATOM      4  H   UNL     1       1.743   6.840  19.650  0.00  0.00    +0.000 HD
ENDROOT
BRANCH   1   9
ATOM      5  C   UNL     1       0.437  10.305  21.159  0.00  0.00    +0.000 A 
ATOM      6  C   UNL     1      -0.498  11.072  20.454  0.00  0.00    +0.000 A 
ATOM      7  C   UNL     1      -0.608  10.980  19.064  0.00  0.00    +0.000 A 
ATOM      8  C   UNL     1       0.234  10.112  18.376  0.00  0.00    +0.000 A 
ATOM      9  C   UNL     1       1.153   9.314  19.072  0.00  0.00    +0.000 A 
ATOM     10  C   UNL     1       1.270   9.428  20.463  0.00  0.00    +0.000 A 
BRANCH   5  12
ATOM     11  C   UNL     1      -0.317   9.563  23.294  0.00  0.00    +0.000 C 
ATOM     12  O   UNL     1       0.425  10.493  22.515  0.00  0.00    +0.000 OA
ENDBRANCH   5  12
BRANCH   7  13
ATOM     13  O   UNL     1      -1.578  11.764  18.503  0.00  0.00    +0.000 OA
ATOM     14  C   UNL     1      -2.186  11.278  17.309  0.00  0.00    +0.000 C 
ENDBRANCH   7  13
ENDBRANCH   1   9
BRANCH   3  15
ATOM     15  C   UNL     1       2.954   6.101  18.080  0.00  0.00    +0.000 C 
ATOM     16  C   UNL     1       4.450   6.234  18.372  0.00  0.00    +0.000 C 
BRANCH  15  17
ATOM     17  C   UNL     1       2.379   4.726  18.393  0.00  0.00    +0.000 A 
ATOM     18  C   UNL     1       1.567   4.556  19.529  0.00  0.00    +0.000 A 
ATOM     19  C   UNL     1       1.033   3.304  19.851  0.00  0.00    +0.000 A 
ATOM     20  C   UNL     1       1.307   2.201  19.046  0.00  0.00    +0.000 A 
ATOM     21  C   UNL     1       2.113   2.349  17.922  0.00  0.00    +0.000 A 
ATOM     22  C   UNL     1       2.650   3.599  17.601  0.00  0.00    +0.000 A 
ENDBRANCH  15  17
ENDBRANCH   3  15
TORSDOF 5
ENDMDL
MODEL 2
REMARK VINA RESULT:      -6.8      0.097      1.055
REMARK  Name = 
REMARK  8 active torsions:
REMARK  status: ('A' for Active; 'I' for Inactive)
REMARK    1  A    between atoms: C_1  and  O_2
REMARK    2  A    between atoms: O_2  and  C_3
REMARK    3  A    between atoms: C_5  and  O_6
REMARK    4  A    between atoms: O_6  and  C_7
REMARK    5  A    between atoms: C_9  and  C_10
REMARK    6  A    between atoms: N_12  and  C_13
REMARK    7  A    between atoms: C_13  and  C_14
REMARK    8  A    between atoms: C_13  and  C_15
REMARK                            x       y       z     vdW  Elec       q    Type
REMARK                         _______ _______ _______ _____ _____    ______ ____
ROOT
ATOM      1  C   UNL     1       2.031   8.360  18.284  0.00  0.00    +0.000 C 
ATOM      2  O   UNL     1       2.456   8.693  17.186  0.00  0.00    +0.000 OA
ATOM      3  N   UNL     1       2.244   7.113  18.837  0.00  0.00    +0.000 N 
ATOM      4  H   UNL     1       1.745   6.837  19.666  0.00  0.00    +0.000 HD
ENDROOT
BRANCH   1   9
ATOM      5  C   UNL     1       0.465  10.322  21.141  0.00  0.00    +0.000 A 
ATOM      6  C   UNL     1      -0.442  11.106  20.418  0.00  0.00    +0.000 A 
ATOM      7  C   UNL     1      -0.529  11.016  19.027  0.00  0.00    +0.000 A 
ATOM      8  C   UNL     1       0.310  10.130  18.355  0.00  0.00    +0.000 A 
ATOM      9  C   UNL     1       1.200   9.316  19.068  0.00  0.00    +0.000 A 
ATOM     10  C   UNL     1       1.293   9.429  20.461  0.00  0.00    +0.000 A 
BRANCH   5  12
ATOM     11  C   UNL     1      -0.540   9.778  23.232  0.00  0.00    +0.000 C 
ATOM     12  O   UNL     1       0.431  10.511  22.497  0.00  0.00    +0.000 OA
ENDBRANCH   5  12
BRANCH   7  13
ATOM     13  O   UNL     1      -1.473  11.817  18.447  0.00  0.00    +0.000 OA
ATOM     14  C   UNL     1      -2.185  11.274  17.339  0.00  0.00    +0.000 C 
ENDBRANCH   7  13
ENDBRANCH   1   9
BRANCH   3  15
ATOM     15  C   UNL     1       2.966   6.071  18.116  0.00  0.00    +0.000 C 
ATOM     16  C   UNL     1       4.461   6.193  18.415  0.00  0.00    +0.000 C 
BRANCH  15  17
ATOM     17  C   UNL     1       2.376   4.705  18.440  0.00  0.00    +0.000 A 
ATOM     18  C   UNL     1       2.699   3.600  17.633  0.00  0.00    +0.000 A 
ATOM     19  C   UNL     1       2.166   2.335  17.899  0.00  0.00    +0.000 A 
ATOM     20  C   UNL     1       1.295   2.156  18.971  0.00  0.00    +0.000 A 
ATOM     21  C   UNL     1       0.959   3.239  19.777  0.00  0.00    +0.000 A 
ATOM     22  C   UNL     1       1.490   4.504  19.510  0.00  0.00    +0.000 A 
ENDBRANCH  15  17
ENDBRANCH   3  15
TORSDOF 5
ENDMDL
MODEL 3
REMARK VINA RESULT:      -6.8      1.283      2.770
REMARK  Name = 
REMARK  8 active torsions:
REMARK  status: ('A' for Active; 'I' for Inactive)
REMARK    1  A    between atoms: C_1  and  O_2
REMARK    2  A    between atoms: O_2  and  C_3
REMARK    3  A    between atoms: C_5  and  O_6
REMARK    4  A    between atoms: O_6  and  C_7
REMARK    5  A    between atoms: C_9  and  C_10
REMARK    6  A    between atoms: N_12  and  C_13
REMARK    7  A    between atoms: C_13  and  C_14
REMARK    8  A    between atoms: C_13  and  C_15
REMARK                            x       y       z     vdW  Elec       q    Type
REMARK                         _______ _______ _______ _____ _____    ______ ____
ROOT
ATOM      1  C   UNL     1       1.925   8.690  18.359  0.00  0.00    +0.000 C 
ATOM      2  O   UNL     1       2.112   8.884  17.166  0.00  0.00    +0.000 OA
ATOM      3  N   UNL     1       2.171   7.482  18.981  0.00  0.00    +0.000 N 
ATOM      4  H   UNL     1       1.856   7.326  19.925  0.00  0.00    +0.000 HD
ENDROOT
BRANCH   1   9
ATOM      5  C   UNL     1       0.659  12.068  19.563  0.00  0.00    +0.000 A 
ATOM      6  C   UNL     1       0.348  11.744  20.888  0.00  0.00    +0.000 A 
ATOM      7  C   UNL     1       0.526  10.448  21.377  0.00  0.00    +0.000 A 
ATOM      8  C   UNL     1       1.016   9.465  20.521  0.00  0.00    +0.000 A 
ATOM      9  C   UNL     1       1.362   9.783  19.200  0.00  0.00    +0.000 A 
ATOM     10  C   UNL     1       1.161  11.081  18.714  0.00  0.00    +0.000 A 
BRANCH   5  12
ATOM     11  C   UNL     1      -0.502  14.101  20.008  0.00  0.00    +0.000 C 
ATOM     12  O   UNL     1       0.442  13.378  19.228  0.00  0.00    +0.000 OA
ENDBRANCH   5  12
BRANCH   7  13
ATOM     13  O   UNL     1       0.208  10.271  22.695  0.00  0.00    +0.000 OA
ATOM     14  C   UNL     1      -1.076  10.730  23.114  0.00  0.00    +0.000 C 
ENDBRANCH   7  13
ENDBRANCH   1   9
BRANCH   3  15
ATOM     15  C   UNL     1       2.636   6.319  18.234  0.00  0.00    +0.000 C 
ATOM     16  C   UNL     1       4.165   6.329  18.185  0.00  0.00    +0.000 C 
BRANCH  15  17
ATOM     17  C   UNL     1       2.041   5.047  18.824  0.00  0.00    +0.000 A 
ATOM     18  C   UNL     1       1.729   3.969  17.975  0.00  0.00    +0.000 A 
ATOM     19  C   UNL     1       1.172   2.792  18.484  0.00  0.00    +0.000 A 
ATOM     20  C   UNL     1       0.912   2.675  19.847  0.00  0.00    +0.000 A 
ATOM     21  C   UNL     1       1.209   3.732  20.700  0.00  0.00    +0.000 A 
ATOM     22  C   UNL     1       1.763   4.911  20.193  0.00  0.00    +0.000 A 
ENDBRANCH  15  17
ENDBRANCH   3  15
TORSDOF 5
ENDMDL
MODEL 4
REMARK VINA RESULT:      -6.8      2.033      3.272
REMARK  Name = 
REMARK  8 active torsions:
REMARK  status: ('A' for Active; 'I' for Inactive)
REMARK    1  A    between atoms: C_1  and  O_2
REMARK    2  A    between atoms: O_2  and  C_3
REMARK    3  A    between atoms: C_5  and  O_6
REMARK    4  A    between atoms: O_6  and  C_7
REMARK    5  A    between atoms: C_9  and  C_10
REMARK    6  A    between atoms: N_12  and  C_13
REMARK    7  A    between atoms: C_13  and  C_14
REMARK    8  A    between atoms: C_13  and  C_15
REMARK                            x       y       z     vdW  Elec       q    Type
REMARK                         _______ _______ _______ _____ _____    ______ ____
ROOT
ATOM      1  C   UNL     1       1.917   6.593  20.050  0.00  0.00    +0.000 C 
ATOM      2  O   UNL     1       1.982   5.775  20.957  0.00  0.00    +0.000 OA
ATOM      3  N   UNL     1       2.258   6.307  18.743  0.00  0.00    +0.000 N 
ATOM      4  H   UNL     1       2.336   7.050  18.068  0.00  0.00    +0.000 HD
ENDROOT
BRANCH   1   9
ATOM      5  C   UNL     1       0.697   9.716  21.844  0.00  0.00    +0.000 A 
ATOM      6  C   UNL     1       0.671  10.611  20.768  0.00  0.00    +0.000 A 
ATOM      7  C   UNL     1       1.063  10.213  19.487  0.00  0.00    +0.000 A 
ATOM      8  C   UNL     1       1.491   8.903  19.288  0.00  0.00    +0.000 A 
ATOM      9  C   UNL     1       1.491   7.988  20.350  0.00  0.00    +0.000 A 
ATOM     10  C   UNL     1       1.115   8.402  21.635  0.00  0.00    +0.000 A 
BRANCH   5  12
ATOM     11  C   UNL     1      -1.054  10.740  23.094  0.00  0.00    +0.000 C 
ATOM     12  O   UNL     1       0.277  10.244  23.036  0.00  0.00    +0.000 OA
ENDBRANCH   5  12
BRANCH   7  13
ATOM     13  O   UNL     1       0.967  11.177  18.521  0.00  0.00    +0.000 OA
ATOM     14  C   UNL     1       0.335  12.399  18.893  0.00  0.00    +0.000 C 
ENDBRANCH   7  13
ENDBRANCH   1   9
BRANCH   3  15
ATOM     15  C   UNL     1       2.774   5.000  18.356  0.00  0.00    +0.000 C 
ATOM     16  C   UNL     1       1.614   4.119  17.886  0.00  0.00    +0.000 C 
BRANCH  15  17
ATOM     17  C   UNL     1       3.889   5.159  17.331  0.00  0.00    +0.000 A 
ATOM     18  C   UNL     1       4.406   4.022  16.685  0.00  0.00    +0.000 A 
ATOM     19  C   UNL     1       5.437   4.134  15.747  0.00  0.00    +0.000 A 
ATOM     20  C   UNL     1       5.972   5.383  15.444  0.00  0.00    +0.000 A 
ATOM     21  C   UNL     1       5.477   6.519  16.077  0.00  0.00    +0.000 A 
ATOM     22  C   UNL     1       4.448   6.408  17.018  0.00  0.00    +0.000 A 
ENDBRANCH  15  17
ENDBRANCH   3  15
TORSDOF 5
ENDMDL
MODEL 5
REMARK VINA RESULT:      -6.8      1.238      2.690
REMARK  Name = 
REMARK  8 active torsions:
REMARK  status: ('A' for Active; 'I' for Inactive)
REMARK    1  A    between atoms: C_1  and  O_2
REMARK    2  A    between atoms: O_2  and  C_3
REMARK    3  A    between atoms: C_5  and  O_6
REMARK    4  A    between atoms: O_6  and  C_7
REMARK    5  A    between atoms: C_9  and  C_10
REMARK    6  A    between atoms: N_12  and  C_13
REMARK    7  A    between atoms: C_13  and  C_14
REMARK    8  A    between atoms: C_13  and  C_15
REMARK                            x       y       z     vdW  Elec       q    Type
REMARK                         _______ _______ _______ _____ _____    ______ ____
ROOT
ATOM      1  C   UNL     1       1.932   8.685  18.385  0.00  0.00    +0.000 C 
ATOM      2  O   UNL     1       2.102   8.892  17.192  0.00  0.00    +0.000 OA
ATOM      3  N   UNL     1       2.183   7.469  18.990  0.00  0.00    +0.000 N 
ATOM      4  H   UNL     1       1.881   7.304  19.936  0.00  0.00    +0.000 HD
ENDROOT
BRANCH   1   9
ATOM      5  C   UNL     1       0.599  12.027  19.617  0.00  0.00    +0.000 A 
ATOM      6  C   UNL     1       0.417  11.723  20.971  0.00  0.00    +0.000 A 
ATOM      7  C   UNL     1       0.703  10.451  21.471  0.00  0.00    +0.000 A 
ATOM      8  C   UNL     1       1.170   9.471  20.599  0.00  0.00    +0.000 A 
ATOM      9  C   UNL     1       1.387   9.770  19.246  0.00  0.00    +0.000 A 
ATOM     10  C   UNL     1       1.078  11.044  18.751  0.00  0.00    +0.000 A 
BRANCH   5  12
ATOM     11  C   UNL     1       1.051  14.352  19.874  0.00  0.00    +0.000 C 
ATOM     12  O   UNL     1       0.287  13.315  19.273  0.00  0.00    +0.000 OA
ENDBRANCH   5  12
BRANCH   7  13
ATOM     13  O   UNL     1       0.507  10.294  22.816  0.00  0.00    +0.000 OA
ATOM     14  C   UNL     1      -0.839  10.122  23.253  0.00  0.00    +0.000 C 
ENDBRANCH   7  13
ENDBRANCH   1   9
BRANCH   3  15
ATOM     15  C   UNL     1       2.632   6.313  18.223  0.00  0.00    +0.000 C 
ATOM     16  C   UNL     1       4.161   6.306  18.169  0.00  0.00    +0.000 C 
BRANCH  15  17
ATOM     17  C   UNL     1       2.024   5.038  18.794  0.00  0.00    +0.000 A 
ATOM     18  C   UNL     1       1.812   4.931  20.180  0.00  0.00    +0.000 A 
ATOM     19  C   UNL     1       1.266   3.770  20.736  0.00  0.00    +0.000 A 
ATOM     20  C   UNL     1       0.930   2.695  19.916  0.00  0.00    +0.000 A 
ATOM     21  C   UNL     1       1.137   2.782  18.543  0.00  0.00    +0.000 A 
ATOM     22  C   UNL     1       1.686   3.941  17.987  0.00  0.00    +0.000 A 
ENDBRANCH  15  17
ENDBRANCH   3  15
TORSDOF 5
ENDMDL
MODEL 6
REMARK VINA RESULT:      -6.8      0.172      2.866
REMARK  Name = 
REMARK  8 active torsions:
REMARK  status: ('A' for Active; 'I' for Inactive)
REMARK    1  A    between atoms: C_1  and  O_2
REMARK    2  A    between atoms: O_2  and  C_3
REMARK    3  A    between atoms: C_5  and  O_6
REMARK    4  A    between atoms: O_6  and  C_7
REMARK    5  A    between atoms: C_9  and  C_10
REMARK    6  A    between atoms: N_12  and  C_13
REMARK    7  A    between atoms: C_13  and  C_14
REMARK    8  A    between atoms: C_13  and  C_15
REMARK                            x       y       z     vdW  Elec       q    Type
REMARK                         _______ _______ _______ _____ _____    ______ ____
ROOT
ATOM      1  C   UNL     1       2.041   8.364  18.237  0.00  0.00    +0.000 C 
ATOM      2  O   UNL     1       2.536   8.674  17.163  0.00  0.00    +0.000 OA
ATOM      3  N   UNL     1       2.207   7.124  18.822  0.00  0.00    +0.000 N 
ATOM      4  H   UNL     1       1.656   6.866  19.624  0.00  0.00    +0.000 HD
ENDROOT
BRANCH   1   9
ATOM      5  C   UNL     1      -0.477  11.107  19.011  0.00  0.00    +0.000 A 
ATOM      6  C   UNL     1      -0.357  11.150  20.405  0.00  0.00    +0.000 A 
ATOM      7  C   UNL     1       0.509  10.289  21.083  0.00  0.00    +0.000 A 
ATOM      8  C   UNL     1       1.259   9.372  20.352  0.00  0.00    +0.000 A 
ATOM      9  C   UNL     1       1.173   9.340  18.953  0.00  0.00    +0.000 A 
ATOM     10  C   UNL     1       0.287  10.194  18.284  0.00  0.00    +0.000 A 
BRANCH   5  12
ATOM     11  C   UNL     1      -2.406  11.507  17.671  0.00  0.00    +0.000 C 
ATOM     12  O   UNL     1      -1.356  12.015  18.484  0.00  0.00    +0.000 OA
ENDBRANCH   5  12
BRANCH   7  13
ATOM     13  O   UNL     1       0.549  10.451  22.441  0.00  0.00    +0.000 OA
ATOM     14  C   UNL     1      -0.172   9.503  23.223  0.00  0.00    +0.000 C 
ENDBRANCH   7  13
ENDBRANCH   1   9
BRANCH   3  15
ATOM     15  C   UNL     1       2.961   6.064  18.164  0.00  0.00    +0.000 C 
ATOM     16  C   UNL     1       4.442   6.199  18.524  0.00  0.00    +0.000 C 
BRANCH  15  17
ATOM     17  C   UNL     1       2.360   4.706  18.503  0.00  0.00    +0.000 A 
ATOM     18  C   UNL     1       2.631   3.601  17.677  0.00  0.00    +0.000 A 
ATOM     19  C   UNL     1       2.086   2.344  17.955  0.00  0.00    +0.000 A 
ATOM     20  C   UNL     1       1.256   2.172  19.060  0.00  0.00    +0.000 A 
ATOM     21  C   UNL     1       0.972   3.255  19.886  0.00  0.00    +0.000 A 
ATOM     22  C   UNL     1       1.514   4.513  19.607  0.00  0.00    +0.000 A 
ENDBRANCH  15  17
ENDBRANCH   3  15
TORSDOF 5
ENDMDL
MODEL 7
REMARK VINA RESULT:      -6.8      1.351      1.699
REMARK  Name = 
REMARK  8 active torsions:
REMARK  status: ('A' for Active; 'I' for Inactive)
REMARK    1  A    between atoms: C_1  and  O_2
REMARK    2  A    between atoms: O_2  and  C_3
REMARK    3  A    between atoms: C_5  and  O_6
REMARK    4  A    between atoms: O_6  and  C_7
REMARK    5  A    between atoms: C_9  and  C_10
REMARK    6  A    between atoms: N_12  and  C_13
REMARK    7  A    between atoms: C_13  and  C_14
REMARK    8  A    between atoms: C_13  and  C_15
REMARK                            x       y       z     vdW  Elec       q    Type
REMARK                         _______ _______ _______ _____ _____    ______ ____
ROOT
ATOM      1  C   UNL     1       1.965   8.748  18.365  0.00  0.00    +0.000 C 
ATOM      2  O   UNL     1       2.055   8.924  17.159  0.00  0.00    +0.000 OA
ATOM      3  N   UNL     1       2.250   7.545  18.982  0.00  0.00    +0.000 N 
ATOM      4  H   UNL     1       2.012   7.406  19.951  0.00  0.00    +0.000 HD
ENDROOT
BRANCH   1   9
ATOM      5  C   UNL     1       0.559  10.726  21.293  0.00  0.00    +0.000 A 
ATOM      6  C   UNL     1       0.569  12.010  20.736  0.00  0.00    +0.000 A 
ATOM      7  C   UNL     1       1.042  12.233  19.441  0.00  0.00    +0.000 A 
ATOM      8  C   UNL     1       1.517  11.154  18.700  0.00  0.00    +0.000 A 
ATOM      9  C   UNL     1       1.484   9.858  19.234  0.00  0.00    +0.000 A 
ATOM     10  C   UNL     1       1.026   9.648  20.541  0.00  0.00    +0.000 A 
BRANCH   5  12
ATOM     11  C   UNL     1      -0.101   9.365  23.134  0.00  0.00    +0.000 C 
ATOM     12  O   UNL     1       0.059  10.659  22.566  0.00  0.00    +0.000 OA
ENDBRANCH   5  12
BRANCH   7  13
ATOM     13  O   UNL     1       0.972  13.528  19.008  0.00  0.00    +0.000 OA
ATOM     14  C   UNL     1      -0.315  14.010  18.627  0.00  0.00    +0.000 C 
ENDBRANCH   7  13
ENDBRANCH   1   9
BRANCH   3  15
ATOM     15  C   UNL     1       2.641   6.368  18.217  0.00  0.00    +0.000 C 
ATOM     16  C   UNL     1       4.164   6.339  18.078  0.00  0.00    +0.000 C 
BRANCH  15  17
ATOM     17  C   UNL     1       2.050   5.114  18.847  0.00  0.00    +0.000 A 
ATOM     18  C   UNL     1       1.698   4.025  18.029  0.00  0.00    +0.000 A 
ATOM     19  C   UNL     1       1.143   2.864  18.576  0.00  0.00    +0.000 A 
ATOM     20  C   UNL     1       0.925   2.775  19.948  0.00  0.00    +0.000 A 
ATOM     21  C   UNL     1       1.262   3.844  20.773  0.00  0.00    +0.000 A 
ATOM     22  C   UNL     1       1.813   5.006  20.226  0.00  0.00    +0.000 A 
ENDBRANCH  15  17
ENDBRANCH   3  15
TORSDOF 5
ENDMDL
MODEL 8
REMARK VINA RESULT:      -6.8      2.070      3.975
REMARK  Name = 
REMARK  8 active torsions:
REMARK  status: ('A' for Active; 'I' for Inactive)
REMARK    1  A    between atoms: C_1  and  O_2
REMARK    2  A    between atoms: O_2  and  C_3
REMARK    3  A    between atoms: C_5  and  O_6
REMARK    4  A    between atoms: O_6  and  C_7
REMARK    5  A    between atoms: C_9  and  C_10
REMARK    6  A    between atoms: N_12  and  C_13
REMARK    7  A    between atoms: C_13  and  C_14
REMARK    8  A    between atoms: C_13  and  C_15
REMARK                            x       y       z     vdW  Elec       q    Type
REMARK                         _______ _______ _______ _____ _____    ______ ____
ROOT
ATOM      1  C   UNL     1       1.985   6.642  19.943  0.00  0.00    +0.000 C 
ATOM      2  O   UNL     1       2.030   5.859  20.882  0.00  0.00    +0.000 OA
ATOM      3  N   UNL     1       2.370   6.313  18.658  0.00  0.00    +0.000 N 
ATOM      4  H   UNL     1       2.462   7.032  17.959  0.00  0.00    +0.000 HD
ENDROOT
BRANCH   1   9
ATOM      5  C   UNL     1       1.106  10.309  19.454  0.00  0.00    +0.000 A 
ATOM      6  C   UNL     1       0.720  10.635  20.759  0.00  0.00    +0.000 A 
ATOM      7  C   UNL     1       0.725   9.677  21.775  0.00  0.00    +0.000 A 
ATOM      8  C   UNL     1       1.116   8.375  21.474  0.00  0.00    +0.000 A 
ATOM      9  C   UNL     1       1.536   8.042  20.178  0.00  0.00    +0.000 A 
ATOM     10  C   UNL     1       1.508   9.006  19.162  0.00  0.00    +0.000 A 
BRANCH   5  12
ATOM     11  C   UNL     1       0.489  12.570  19.025  0.00  0.00    +0.000 C 
ATOM     12  O   UNL     1       1.060  11.351  18.566  0.00  0.00    +0.000 OA
ENDBRANCH   5  12
BRANCH   7  13
ATOM     13  O   UNL     1       0.351  10.132  23.009  0.00  0.00    +0.000 OA
ATOM     14  C   UNL     1      -0.922  10.768  23.101  0.00  0.00    +0.000 C 
ENDBRANCH   7  13
ENDBRANCH   1   9
BRANCH   3  15
ATOM     15  C   UNL     1       2.911   4.998  18.337  0.00  0.00    +0.000 C 
ATOM     16  C   UNL     1       1.765   4.060  17.954  0.00  0.00    +0.000 C 
BRANCH  15  17
ATOM     17  C   UNL     1       3.993   5.124  17.272  0.00  0.00    +0.000 A 
ATOM     18  C   UNL     1       4.492   3.965  16.649  0.00  0.00    +0.000 A 
ATOM     19  C   UNL     1       5.493   4.046  15.676  0.00  0.00    +0.000 A 
ATOM     20  C   UNL     1       6.016   5.285  15.315  0.00  0.00    +0.000 A 
ATOM     21  C   UNL     1       5.539   6.441  15.924  0.00  0.00    +0.000 A 
ATOM     22  C   UNL     1       4.541   6.361  16.899  0.00  0.00    +0.000 A 
ENDBRANCH  15  17
ENDBRANCH   3  15
TORSDOF 5
ENDMDL
MODEL 9
REMARK VINA RESULT:      -6.7      2.275      7.101
REMARK  Name = 
REMARK  8 active torsions:
REMARK  status: ('A' for Active; 'I' for Inactive)
REMARK    1  A    between atoms: C_1  and  O_2
REMARK    2  A    between atoms: O_2  and  C_3
REMARK    3  A    between atoms: C_5  and  O_6
REMARK    4  A    between atoms: O_6  and  C_7
REMARK    5  A    between atoms: C_9  and  C_10
REMARK    6  A    between atoms: N_12  and  C_13
REMARK    7  A    between atoms: C_13  and  C_14
REMARK    8  A    between atoms: C_13  and  C_15
REMARK                            x       y       z     vdW  Elec       q    Type
REMARK                         _______ _______ _______ _____ _____    ______ ____
ROOT
ATOM      1  C   UNL     1       2.217   8.571  18.108  0.00  0.00    +0.000 C 
ATOM      2  O   UNL     1       2.414   9.368  17.202  0.00  0.00    +0.000 OA
ATOM      3  N   UNL     1       1.329   8.797  19.142  0.00  0.00    +0.000 N 
ATOM      4  H   UNL     1       1.318   8.184  19.940  0.00  0.00    +0.000 HD
ENDROOT
BRANCH   1   9
ATOM      5  C   UNL     1       4.736   5.823  17.355  0.00  0.00    +0.000 A 
ATOM      6  C   UNL     1       4.328   4.867  18.292  0.00  0.00    +0.000 A 
ATOM      7  C   UNL     1       3.268   5.117  19.167  0.00  0.00    +0.000 A 
ATOM      8  C   UNL     1       2.616   6.345  19.102  0.00  0.00    +0.000 A 
ATOM      9  C   UNL     1       2.993   7.300  18.147  0.00  0.00    +0.000 A 
ATOM     10  C   UNL     1       4.070   7.047  17.288  0.00  0.00    +0.000 A 
BRANCH   5  12
ATOM     11  C   UNL     1       5.774   4.094  16.086  0.00  0.00    +0.000 C 
ATOM     12  O   UNL     1       5.781   5.435  16.559  0.00  0.00    +0.000 OA
ENDBRANCH   5  12
BRANCH   7  13
ATOM     13  O   UNL     1       2.955   4.090  20.014  0.00  0.00    +0.000 OA
ATOM     14  C   UNL     1       2.119   4.406  21.125  0.00  0.00    +0.000 C 
ENDBRANCH   7  13
ENDBRANCH   1   9
BRANCH   3  15
ATOM     15  C   UNL     1       0.586  10.047  19.250  0.00  0.00    +0.000 C 
ATOM     16  C   UNL     1      -0.474  10.101  18.148  0.00  0.00    +0.000 C 
BRANCH  15  17
ATOM     17  C   UNL     1       0.028  10.203  20.658  0.00  0.00    +0.000 A 
ATOM     18  C   UNL     1      -0.545  11.428  21.046  0.00  0.00    +0.000 A 
ATOM     19  C   UNL     1      -1.057  11.606  22.335  0.00  0.00    +0.000 A 
ATOM     20  C   UNL     1      -0.998  10.566  23.259  0.00  0.00    +0.000 A 
ATOM     21  C   UNL     1      -0.429   9.350  22.896  0.00  0.00    +0.000 A 
ATOM     22  C   UNL     1       0.085   9.171  21.608  0.00  0.00    +0.000 A 
ENDBRANCH  15  17
ENDBRANCH   3  15
TORSDOF 5
ENDMDL
