MODEL 1
REMARK VINA RESULT:      -8.6      0.000      0.000
REMARK  Name = 
REMARK  9 active torsions:
REMARK  status: ('A' for Active; 'I' for Inactive)
REMARK    1  A    between atoms: C_1  and  C_2
REMARK    2  A    between atoms: C_2  and  C_3
REMARK    3  A    between atoms: C_9  and  C_10
REMARK    4  A    between atoms: C_10  and  C_11
REMARK    5  A    between atoms: C_11  and  C_12
REMARK    6  A    between atoms: C_11  and  C_13
REMARK    7  A    between atoms: C_14  and  C_15
REMARK    8  A    between atoms: C_15  and  C_16
REMARK    9  A    between atoms: C_22  and  C_23
REMARK                            x       y       z     vdW  Elec       q    Type
REMARK                         _______ _______ _______ _____ _____    ______ ____
ROOT
ATOM      1  C   UNL     1      -0.157  10.719  21.834  0.00  0.00    +0.000 A 
ATOM      2  C   UNL     1      -0.133   9.480  22.438  0.00  0.00    +0.000 A 
ATOM      3  N   UNL     1       0.431   8.378  21.890  0.00  0.00    +0.000 NA
ATOM      4  C   UNL     1       1.000   8.525  20.673  0.00  0.00    +0.000 A 
ATOM      5  N   UNL     1       1.736   7.421  20.086  0.00  0.00    +0.000 N 
ATOM      6  N   UNL     1       1.865   6.225  20.725  0.00  0.00    +0.000 NA
ATOM      7  C   UNL     1       2.665   5.484  19.954  0.00  0.00    +0.000 A 
ATOM      8  C   UNL     1       3.056   6.180  18.770  0.00  0.00    +0.000 A 
ATOM      9  C   UNL     1       2.408   7.405  18.863  0.00  0.00    +0.000 A 
ATOM     10  C   UNL     1       2.385   8.542  17.903  0.00  0.00    +0.000 C 
ATOM     11  N   UNL     1       0.968   9.686  19.981  0.00  0.00    +0.000 NA
ATOM     12  C   UNL     1       0.396  10.743  20.573  0.00  0.00    +0.000 A 
ENDROOT
BRANCH   1  14
ATOM     13  C   UNL     1      -2.079  11.972  23.002  0.00  0.00    +0.000 C 
ATOM     14  C   UNL     1      -0.675  11.998  22.422  0.00  0.00    +0.000 C 
ENDBRANCH   1  14
BRANCH   7  15
ATOM     15  C   UNL     1       3.039   4.077  20.328  0.00  0.00    +0.000 C 
BRANCH  15  16
ATOM     16  C   UNL     1       1.976   2.963  20.280  0.00  0.00    +0.000 C 
ATOM     17  C   UNL     1       1.353   2.664  21.645  0.00  0.00    +0.000 C 
ATOM     18  C   UNL     1       0.902   3.188  19.215  0.00  0.00    +0.000 C 
ENDBRANCH  15  16
ENDBRANCH   7  15
BRANCH   8  19
ATOM     19  C   UNL     1       3.872   5.667  17.625  0.00  0.00    +0.000 C 
BRANCH  19  20
ATOM     20  C   UNL     1       5.323   6.010  17.868  0.00  0.00    +0.000 A 
ATOM     21  C   UNL     1       5.939   7.039  17.142  0.00  0.00    +0.000 A 
ATOM     22  C   UNL     1       7.254   7.426  17.416  0.00  0.00    +0.000 A 
ATOM     23  C   UNL     1       7.972   6.790  18.426  0.00  0.00    +0.000 A 
ATOM     24  C   UNL     1       7.380   5.764  19.153  0.00  0.00    +0.000 A 
ATOM     25  C   UNL     1       6.066   5.373  18.876  0.00  0.00    +0.000 A 
ENDBRANCH  19  20
ENDBRANCH   8  19
TORSDOF 5
ENDMDL
MODEL 2
REMARK VINA RESULT:      -8.5      0.665      1.378
REMARK  Name = 
REMARK  9 active torsions:
REMARK  status: ('A' for Active; 'I' for Inactive)
REMARK    1  A    between atoms: C_1  and  C_2
REMARK    2  A    between atoms: C_2  and  C_3
REMARK    3  A    between atoms: C_9  and  C_10
REMARK    4  A    between atoms: C_10  and  C_11
REMARK    5  A    between atoms: C_11  and  C_12
REMARK    6  A    between atoms: C_11  and  C_13
REMARK    7  A    between atoms: C_14  and  C_15
REMARK    8  A    between atoms: C_15  and  C_16
REMARK    9  A    between atoms: C_22  and  C_23
REMARK                            x       y       z     vdW  Elec       q    Type
REMARK                         _______ _______ _______ _____ _____    ______ ____
ROOT
ATOM      1  C   UNL     1      -0.048  11.603  21.584  0.00  0.00    +0.000 A 
ATOM      2  C   UNL     1      -0.157  10.416  22.276  0.00  0.00    +0.000 A 
ATOM      3  N   UNL     1       0.294   9.224  21.818  0.00  0.00    +0.000 NA
ATOM      4  C   UNL     1       0.885   9.222  20.602  0.00  0.00    +0.000 A 
ATOM      5  N   UNL     1       1.507   8.007  20.109  0.00  0.00    +0.000 N 
ATOM      6  N   UNL     1       1.505   6.855  20.835  0.00  0.00    +0.000 NA
ATOM      7  C   UNL     1       2.230   5.980  20.132  0.00  0.00    +0.000 A 
ATOM      8  C   UNL     1       2.701   6.544  18.907  0.00  0.00    +0.000 A 
ATOM      9  C   UNL     1       2.183   7.832  18.901  0.00  0.00    +0.000 A 
ATOM     10  C   UNL     1       2.287   8.892  17.860  0.00  0.00    +0.000 C 
ATOM     11  N   UNL     1       0.979  10.325  19.828  0.00  0.00    +0.000 NA
ATOM     12  C   UNL     1       0.515  11.477  20.333  0.00  0.00    +0.000 A 
ENDROOT
BRANCH   1  14
ATOM     13  C   UNL     1      -1.676  13.065  22.939  0.00  0.00    +0.000 C 
ATOM     14  C   UNL     1      -0.434  12.968  22.069  0.00  0.00    +0.000 C 
ENDBRANCH   1  14
BRANCH   7  15
ATOM     15  C   UNL     1       2.452   4.574  20.612  0.00  0.00    +0.000 C 
BRANCH  15  16
ATOM     16  C   UNL     1       1.278   3.579  20.640  0.00  0.00    +0.000 C 
ATOM     17  C   UNL     1       0.957   2.985  19.267  0.00  0.00    +0.000 C 
ATOM     18  C   UNL     1       1.426   2.486  21.698  0.00  0.00    +0.000 C 
ENDBRANCH  15  16
ENDBRANCH   7  15
BRANCH   8  19
ATOM     19  C   UNL     1       3.469   5.866  17.815  0.00  0.00    +0.000 C 
BRANCH  19  20
ATOM     20  C   UNL     1       4.944   6.102  18.036  0.00  0.00    +0.000 A 
ATOM     21  C   UNL     1       5.628   5.413  19.047  0.00  0.00    +0.000 A 
ATOM     22  C   UNL     1       7.009   5.555  19.208  0.00  0.00    +0.000 A 
ATOM     23  C   UNL     1       7.728   6.389  18.354  0.00  0.00    +0.000 A 
ATOM     24  C   UNL     1       7.066   7.086  17.349  0.00  0.00    +0.000 A 
ATOM     25  C   UNL     1       5.684   6.947  17.192  0.00  0.00    +0.000 A 
ENDBRANCH  19  20
ENDBRANCH   8  19
TORSDOF 5
ENDMDL
MODEL 3
REMARK VINA RESULT:      -8.2      0.980      1.378
REMARK  Name = 
REMARK  9 active torsions:
REMARK  status: ('A' for Active; 'I' for Inactive)
REMARK    1  A    between atoms: C_1  and  C_2
REMARK    2  A    between atoms: C_2  and  C_3
REMARK    3  A    between atoms: C_9  and  C_10
REMARK    4  A    between atoms: C_10  and  C_11
REMARK    5  A    between atoms: C_11  and  C_12
REMARK    6  A    between atoms: C_11  and  C_13
REMARK    7  A    between atoms: C_14  and  C_15
REMARK    8  A    between atoms: C_15  and  C_16
REMARK    9  A    between atoms: C_22  and  C_23
REMARK                            x       y       z     vdW  Elec       q    Type
REMARK                         _______ _______ _______ _____ _____    ______ ____
ROOT
ATOM      1  C   UNL     1       0.159  11.842  21.027  0.00  0.00    +0.000 A 
ATOM      2  C   UNL     1       0.008  10.720  21.816  0.00  0.00    +0.000 A 
ATOM      3  N   UNL     1       0.423   9.481  21.462  0.00  0.00    +0.000 NA
ATOM      4  C   UNL     1       1.019   9.358  20.255  0.00  0.00    +0.000 A 
ATOM      5  N   UNL     1       1.604   8.088  19.870  0.00  0.00    +0.000 N 
ATOM      6  N   UNL     1       1.563   7.001  20.689  0.00  0.00    +0.000 NA
ATOM      7  C   UNL     1       2.263   6.048  20.068  0.00  0.00    +0.000 A 
ATOM      8  C   UNL     1       2.756   6.492  18.802  0.00  0.00    +0.000 A 
ATOM      9  C   UNL     1       2.280   7.791  18.685  0.00  0.00    +0.000 A 
ATOM     10  C   UNL     1       2.421   8.756  17.560  0.00  0.00    +0.000 C 
ATOM     11  N   UNL     1       1.152  10.389  19.392  0.00  0.00    +0.000 NA
ATOM     12  C   UNL     1       0.722  11.593  19.795  0.00  0.00    +0.000 A 
ENDROOT
BRANCH   1  14
ATOM     13  C   UNL     1       0.705  14.349  20.832  0.00  0.00    +0.000 C 
ATOM     14  C   UNL     1      -0.186  13.254  21.394  0.00  0.00    +0.000 C 
ENDBRANCH   1  14
BRANCH   7  15
ATOM     15  C   UNL     1       2.438   4.681  20.665  0.00  0.00    +0.000 C 
BRANCH  15  16
ATOM     16  C   UNL     1       1.276   3.672  20.625  0.00  0.00    +0.000 C 
ATOM     17  C   UNL     1       1.047   3.069  19.237  0.00  0.00    +0.000 C 
ATOM     18  C   UNL     1       1.372   2.584  21.695  0.00  0.00    +0.000 C 
ENDBRANCH  15  16
ENDBRANCH   7  15
BRANCH   8  19
ATOM     19  C   UNL     1       3.507   5.701  17.776  0.00  0.00    +0.000 C 
BRANCH  19  20
ATOM     20  C   UNL     1       4.987   5.932  17.969  0.00  0.00    +0.000 A 
ATOM     21  C   UNL     1       5.663   6.882  17.191  0.00  0.00    +0.000 A 
ATOM     22  C   UNL     1       7.012   7.169  17.417  0.00  0.00    +0.000 A 
ATOM     23  C   UNL     1       7.705   6.511  18.431  0.00  0.00    +0.000 A 
ATOM     24  C   UNL     1       7.053   5.561  19.209  0.00  0.00    +0.000 A 
ATOM     25  C   UNL     1       5.705   5.270  18.980  0.00  0.00    +0.000 A 
ENDBRANCH  19  20
ENDBRANCH   8  19
TORSDOF 5
ENDMDL
MODEL 4
REMARK VINA RESULT:      -7.4      1.053      1.422
REMARK  Name = 
REMARK  9 active torsions:
REMARK  status: ('A' for Active; 'I' for Inactive)
REMARK    1  A    between atoms: C_1  and  C_2
REMARK    2  A    between atoms: C_2  and  C_3
REMARK    3  A    between atoms: C_9  and  C_10
REMARK    4  A    between atoms: C_10  and  C_11
REMARK    5  A    between atoms: C_11  and  C_12
REMARK    6  A    between atoms: C_11  and  C_13
REMARK    7  A    between atoms: C_14  and  C_15
REMARK    8  A    between atoms: C_15  and  C_16
REMARK    9  A    between atoms: C_22  and  C_23
REMARK                            x       y       z     vdW  Elec       q    Type
REMARK                         _______ _______ _______ _____ _____    ______ ____
ROOT
ATOM      1  C   UNL     1       0.486  11.250  21.036  0.00  0.00    +0.000 A 
ATOM      2  C   UNL     1       0.357  10.153  21.861  0.00  0.00    +0.000 A 
ATOM      3  N   UNL     1       0.719   8.895  21.514  0.00  0.00    +0.000 NA
ATOM      4  C   UNL     1       1.236   8.727  20.277  0.00  0.00    +0.000 A 
ATOM      5  N   UNL     1       1.765   7.433  19.889  0.00  0.00    +0.000 N 
ATOM      6  N   UNL     1       1.748   6.368  20.737  0.00  0.00    +0.000 NA
ATOM      7  C   UNL     1       2.385   5.383  20.098  0.00  0.00    +0.000 A 
ATOM      8  C   UNL     1       2.810   5.783  18.794  0.00  0.00    +0.000 A 
ATOM      9  C   UNL     1       2.359   7.090  18.673  0.00  0.00    +0.000 A 
ATOM     10  C   UNL     1       2.454   8.024  17.517  0.00  0.00    +0.000 C 
ATOM     11  N   UNL     1       1.341   9.734  19.381  0.00  0.00    +0.000 NA
ATOM     12  C   UNL     1       0.967  10.958  19.779  0.00  0.00    +0.000 A 
ENDROOT
BRANCH   1  14
ATOM     13  C   UNL     1      -0.738  12.927  22.557  0.00  0.00    +0.000 C 
ATOM     14  C   UNL     1       0.199  12.679  21.387  0.00  0.00    +0.000 C 
ENDBRANCH   1  14
BRANCH   7  15
ATOM     15  C   UNL     1       2.563   4.026  20.719  0.00  0.00    +0.000 C 
BRANCH  15  16
ATOM     16  C   UNL     1       1.843   2.806  20.115  0.00  0.00    +0.000 C 
ATOM     17  C   UNL     1       0.501   3.156  19.470  0.00  0.00    +0.000 C 
ATOM     18  C   UNL     1       2.718   1.984  19.169  0.00  0.00    +0.000 C 
ENDBRANCH  15  16
ENDBRANCH   7  15
BRANCH   8  19
ATOM     19  C   UNL     1       3.476   4.949  17.745  0.00  0.00    +0.000 C 
BRANCH  19  20
ATOM     20  C   UNL     1       4.973   5.080  17.894  0.00  0.00    +0.000 A 
ATOM     21  C   UNL     1       5.535   5.413  19.134  0.00  0.00    +0.000 A 
ATOM     22  C   UNL     1       6.921   5.454  19.309  0.00  0.00    +0.000 A 
ATOM     23  C   UNL     1       7.767   5.156  18.243  0.00  0.00    +0.000 A 
ATOM     24  C   UNL     1       7.229   4.829  17.004  0.00  0.00    +0.000 A 
ATOM     25  C   UNL     1       5.842   4.794  16.827  0.00  0.00    +0.000 A 
ENDBRANCH  19  20
ENDBRANCH   8  19
TORSDOF 5
ENDMDL
MODEL 5
REMARK VINA RESULT:      -7.3      1.797      4.531
REMARK  Name = 
REMARK  9 active torsions:
REMARK  status: ('A' for Active; 'I' for Inactive)
REMARK    1  A    between atoms: C_1  and  C_2
REMARK    2  A    between atoms: C_2  and  C_3
REMARK    3  A    between atoms: C_9  and  C_10
REMARK    4  A    between atoms: C_10  and  C_11
REMARK    5  A    between atoms: C_11  and  C_12
REMARK    6  A    between atoms: C_11  and  C_13
REMARK    7  A    between atoms: C_14  and  C_15
REMARK    8  A    between atoms: C_15  and  C_16
REMARK    9  A    between atoms: C_22  and  C_23
REMARK                            x       y       z     vdW  Elec       q    Type
REMARK                         _______ _______ _______ _____ _____    ______ ____
ROOT
ATOM      1  C   UNL     1      -1.113  11.651  19.626  0.00  0.00    +0.000 A 
ATOM      2  C   UNL     1      -0.296  11.648  18.515  0.00  0.00    +0.000 A 
ATOM      3  N   UNL     1       0.679  10.736  18.291  0.00  0.00    +0.000 NA
ATOM      4  C   UNL     1       0.844   9.776  19.229  0.00  0.00    +0.000 A 
ATOM      5  N   UNL     1       1.780   8.693  18.990  0.00  0.00    +0.000 N 
ATOM      6  N   UNL     1       2.511   8.616  17.844  0.00  0.00    +0.000 NA
ATOM      7  C   UNL     1       3.186   7.466  17.918  0.00  0.00    +0.000 A 
ATOM      8  C   UNL     1       2.926   6.776  19.141  0.00  0.00    +0.000 A 
ATOM      9  C   UNL     1       2.053   7.609  19.826  0.00  0.00    +0.000 A 
ATOM     10  C   UNL     1       1.463   7.456  21.185  0.00  0.00    +0.000 C 
ATOM     11  N   UNL     1       0.132   9.738  20.376  0.00  0.00    +0.000 NA
ATOM     12  C   UNL     1      -0.820  10.667  20.545  0.00  0.00    +0.000 A 
ENDROOT
BRANCH   1  14
ATOM     13  C   UNL     1      -3.597  12.205  19.243  0.00  0.00    +0.000 C 
ATOM     14  C   UNL     1      -2.271  12.566  19.890  0.00  0.00    +0.000 C 
ENDBRANCH   1  14
BRANCH   7  15
ATOM     15  C   UNL     1       4.123   7.029  16.827  0.00  0.00    +0.000 C 
BRANCH  15  16
ATOM     16  C   UNL     1       5.414   6.270  17.184  0.00  0.00    +0.000 C 
ATOM     17  C   UNL     1       5.700   5.092  16.251  0.00  0.00    +0.000 C 
ATOM     18  C   UNL     1       6.637   7.177  17.326  0.00  0.00    +0.000 C 
ENDBRANCH  15  16
ENDBRANCH   7  15
BRANCH   8  19
ATOM     19  C   UNL     1       3.548   5.506  19.634  0.00  0.00    +0.000 C 
BRANCH  19  20
ATOM     20  C   UNL     1       2.649   4.349  19.269  0.00  0.00    +0.000 A 
ATOM     21  C   UNL     1       2.958   3.528  18.176  0.00  0.00    +0.000 A 
ATOM     22  C   UNL     1       2.184   2.403  17.878  0.00  0.00    +0.000 A 
ATOM     23  C   UNL     1       1.089   2.079  18.676  0.00  0.00    +0.000 A 
ATOM     24  C   UNL     1       0.764   2.883  19.762  0.00  0.00    +0.000 A 
ATOM     25  C   UNL     1       1.534   4.012  20.057  0.00  0.00    +0.000 A 
ENDBRANCH  19  20
ENDBRANCH   8  19
TORSDOF 5
ENDMDL
MODEL 6
REMARK VINA RESULT:      -7.2      1.717      4.763
REMARK  Name = 
REMARK  9 active torsions:
REMARK  status: ('A' for Active; 'I' for Inactive)
REMARK    1  A    between atoms: C_1  and  C_2
REMARK    2  A    between atoms: C_2  and  C_3
REMARK    3  A    between atoms: C_9  and  C_10
REMARK    4  A    between atoms: C_10  and  C_11
REMARK    5  A    between atoms: C_11  and  C_12
REMARK    6  A    between atoms: C_11  and  C_13
REMARK    7  A    between atoms: C_14  and  C_15
REMARK    8  A    between atoms: C_15  and  C_16
REMARK    9  A    between atoms: C_22  and  C_23
REMARK                            x       y       z     vdW  Elec       q    Type
REMARK                         _______ _______ _______ _____ _____    ______ ____
ROOT
ATOM      1  C   UNL     1      -0.753  11.137  19.477  0.00  0.00    +0.000 A 
ATOM      2  C   UNL     1       0.132  11.228  18.424  0.00  0.00    +0.000 A 
ATOM      3  N   UNL     1       1.132  10.346  18.194  0.00  0.00    +0.000 NA
ATOM      4  C   UNL     1       1.254   9.319  19.065  0.00  0.00    +0.000 A 
ATOM      5  N   UNL     1       2.219   8.267  18.805  0.00  0.00    +0.000 N 
ATOM      6  N   UNL     1       3.022   8.286  17.705  0.00  0.00    +0.000 NA
ATOM      7  C   UNL     1       3.708   7.141  17.735  0.00  0.00    +0.000 A 
ATOM      8  C   UNL     1       3.383   6.357  18.884  0.00  0.00    +0.000 A 
ATOM      9  C   UNL     1       2.456   7.126  19.573  0.00  0.00    +0.000 A 
ATOM     10  C   UNL     1       1.785   6.864  20.876  0.00  0.00    +0.000 C 
ATOM     11  N   UNL     1       0.471   9.187  20.159  0.00  0.00    +0.000 NA
ATOM     12  C   UNL     1      -0.503  10.090  20.336  0.00  0.00    +0.000 A 
ENDROOT
BRANCH   1  14
ATOM     13  C   UNL     1      -3.166  11.794  18.869  0.00  0.00    +0.000 C 
ATOM     14  C   UNL     1      -1.939  12.018  19.736  0.00  0.00    +0.000 C 
ENDBRANCH   1  14
BRANCH   7  15
ATOM     15  C   UNL     1       4.718   6.798  16.676  0.00  0.00    +0.000 C 
BRANCH  15  16
ATOM     16  C   UNL     1       6.130   6.341  17.083  0.00  0.00    +0.000 C 
ATOM     17  C   UNL     1       6.757   5.358  16.091  0.00  0.00    +0.000 C 
ATOM     18  C   UNL     1       7.081   7.496  17.398  0.00  0.00    +0.000 C 
ENDBRANCH  15  16
ENDBRANCH   7  15
BRANCH   8  19
ATOM     19  C   UNL     1       3.992   5.059  19.318  0.00  0.00    +0.000 C 
BRANCH  19  20
ATOM     20  C   UNL     1       2.902   4.019  19.420  0.00  0.00    +0.000 A 
ATOM     21  C   UNL     1       2.612   3.416  20.651  0.00  0.00    +0.000 A 
ATOM     22  C   UNL     1       1.550   2.516  20.780  0.00  0.00    +0.000 A 
ATOM     23  C   UNL     1       0.758   2.210  19.676  0.00  0.00    +0.000 A 
ATOM     24  C   UNL     1       1.034   2.794  18.444  0.00  0.00    +0.000 A 
ATOM     25  C   UNL     1       2.099   3.690  18.315  0.00  0.00    +0.000 A 
ENDBRANCH  19  20
ENDBRANCH   8  19
TORSDOF 5
ENDMDL
MODEL 7
REMARK VINA RESULT:      -7.0      3.448      7.661
REMARK  Name = 
REMARK  9 active torsions:
REMARK  status: ('A' for Active; 'I' for Inactive)
REMARK    1  A    between atoms: C_1  and  C_2
REMARK    2  A    between atoms: C_2  and  C_3
REMARK    3  A    between atoms: C_9  and  C_10
REMARK    4  A    between atoms: C_10  and  C_11
REMARK    5  A    between atoms: C_11  and  C_12
REMARK    6  A    between atoms: C_11  and  C_13
REMARK    7  A    between atoms: C_14  and  C_15
REMARK    8  A    between atoms: C_15  and  C_16
REMARK    9  A    between atoms: C_22  and  C_23
REMARK                            x       y       z     vdW  Elec       q    Type
REMARK                         _______ _______ _______ _____ _____    ______ ____
ROOT
ATOM      1  C   UNL     1       6.953   4.655  13.344  0.00  0.00    +0.000 A 
ATOM      2  C   UNL     1       5.898   3.778  13.482  0.00  0.00    +0.000 A 
ATOM      3  N   UNL     1       5.078   3.737  14.558  0.00  0.00    +0.000 NA
ATOM      4  C   UNL     1       5.328   4.621  15.550  0.00  0.00    +0.000 A 
ATOM      5  N   UNL     1       4.412   4.720  16.670  0.00  0.00    +0.000 N 
ATOM      6  N   UNL     1       3.302   3.937  16.761  0.00  0.00    +0.000 NA
ATOM      7  C   UNL     1       2.652   4.350  17.852  0.00  0.00    +0.000 A 
ATOM      8  C   UNL     1       3.348   5.405  18.518  0.00  0.00    +0.000 A 
ATOM      9  C   UNL     1       4.496   5.590  17.759  0.00  0.00    +0.000 A 
ATOM     10  C   UNL     1       5.640   6.517  17.978  0.00  0.00    +0.000 C 
ATOM     11  N   UNL     1       6.376   5.473  15.528  0.00  0.00    +0.000 NA
ATOM     12  C   UNL     1       7.155   5.469  14.437  0.00  0.00    +0.000 A 
ENDROOT
BRANCH   1  14
ATOM     13  C   UNL     1       8.355   6.221  11.859  0.00  0.00    +0.000 C 
ATOM     14  C   UNL     1       7.836   4.822  12.145  0.00  0.00    +0.000 C 
ENDBRANCH   1  14
BRANCH   7  15
ATOM     15  C   UNL     1       1.365   3.711  18.294  0.00  0.00    +0.000 C 
BRANCH  15  16
ATOM     16  C   UNL     1       1.385   2.621  19.382  0.00  0.00    +0.000 C 
ATOM     17  C   UNL     1       2.706   1.851  19.441  0.00  0.00    +0.000 C 
ATOM     18  C   UNL     1       0.973   3.128  20.764  0.00  0.00    +0.000 C 
ENDBRANCH  15  16
ENDBRANCH   7  15
BRANCH   8  19
ATOM     19  C   UNL     1       2.993   6.074  19.809  0.00  0.00    +0.000 C 
BRANCH  19  20
ATOM     20  C   UNL     1       2.216   7.333  19.507  0.00  0.00    +0.000 A 
ATOM     21  C   UNL     1       1.544   8.014  20.532  0.00  0.00    +0.000 A 
ATOM     22  C   UNL     1       0.893   9.227  20.285  0.00  0.00    +0.000 A 
ATOM     23  C   UNL     1       0.910   9.779  19.007  0.00  0.00    +0.000 A 
ATOM     24  C   UNL     1       1.566   9.116  17.976  0.00  0.00    +0.000 A 
ATOM     25  C   UNL     1       2.212   7.901  18.221  0.00  0.00    +0.000 A 
ENDBRANCH  19  20
ENDBRANCH   8  19
TORSDOF 5
ENDMDL
MODEL 8
REMARK VINA RESULT:      -6.9      1.518      1.853
REMARK  Name = 
REMARK  9 active torsions:
REMARK  status: ('A' for Active; 'I' for Inactive)
REMARK    1  A    between atoms: C_1  and  C_2
REMARK    2  A    between atoms: C_2  and  C_3
REMARK    3  A    between atoms: C_9  and  C_10
REMARK    4  A    between atoms: C_10  and  C_11
REMARK    5  A    between atoms: C_11  and  C_12
REMARK    6  A    between atoms: C_11  and  C_13
REMARK    7  A    between atoms: C_14  and  C_15
REMARK    8  A    between atoms: C_15  and  C_16
REMARK    9  A    between atoms: C_22  and  C_23
REMARK                            x       y       z     vdW  Elec       q    Type
REMARK                         _______ _______ _______ _____ _____    ______ ____
ROOT
ATOM      1  C   UNL     1       1.045  11.958  19.647  0.00  0.00    +0.000 A 
ATOM      2  C   UNL     1       0.738  11.106  20.686  0.00  0.00    +0.000 A 
ATOM      3  N   UNL     1       0.959   9.770  20.665  0.00  0.00    +0.000 NA
ATOM      4  C   UNL     1       1.516   9.261  19.543  0.00  0.00    +0.000 A 
ATOM      5  N   UNL     1       1.900   7.863  19.503  0.00  0.00    +0.000 N 
ATOM      6  N   UNL     1       1.707   7.035  20.567  0.00  0.00    +0.000 NA
ATOM      7  C   UNL     1       2.250   5.865  20.222  0.00  0.00    +0.000 A 
ATOM      8  C   UNL     1       2.789   5.899  18.900  0.00  0.00    +0.000 A 
ATOM      9  C   UNL     1       2.510   7.182  18.449  0.00  0.00    +0.000 A 
ATOM     10  C   UNL     1       2.781   7.802  17.123  0.00  0.00    +0.000 C 
ATOM     11  N   UNL     1       1.791  10.012  18.453  0.00  0.00    +0.000 NA
ATOM     12  C   UNL     1       1.551  11.328  18.531  0.00  0.00    +0.000 A 
ENDROOT
BRANCH   1  14
ATOM     13  C   UNL     1      -0.454  14.027  19.334  0.00  0.00    +0.000 C 
ATOM     14  C   UNL     1       0.919  13.452  19.640  0.00  0.00    +0.000 C 
ENDBRANCH   1  14
BRANCH   7  15
ATOM     15  C   UNL     1       2.226   4.680  21.147  0.00  0.00    +0.000 C 
BRANCH  15  16
ATOM     16  C   UNL     1       1.765   3.308  20.623  0.00  0.00    +0.000 C 
ATOM     17  C   UNL     1       1.680   2.242  21.717  0.00  0.00    +0.000 C 
ATOM     18  C   UNL     1       0.477   3.368  19.802  0.00  0.00    +0.000 C 
ENDBRANCH  15  16
ENDBRANCH   7  15
BRANCH   8  19
ATOM     19  C   UNL     1       3.401   4.774  18.124  0.00  0.00    +0.000 C 
BRANCH  19  20
ATOM     20  C   UNL     1       4.904   4.911  18.169  0.00  0.00    +0.000 A 
ATOM     21  C   UNL     1       5.672   4.690  17.018  0.00  0.00    +0.000 A 
ATOM     22  C   UNL     1       7.054   4.898  17.022  0.00  0.00    +0.000 A 
ATOM     23  C   UNL     1       7.689   5.336  18.181  0.00  0.00    +0.000 A 
ATOM     24  C   UNL     1       6.946   5.556  19.335  0.00  0.00    +0.000 A 
ATOM     25  C   UNL     1       5.565   5.343  19.333  0.00  0.00    +0.000 A 
ENDBRANCH  19  20
ENDBRANCH   8  19
TORSDOF 5
ENDMDL
MODEL 9
REMARK VINA RESULT:      -6.8      1.738      2.398
REMARK  Name = 
REMARK  9 active torsions:
REMARK  status: ('A' for Active; 'I' for Inactive)
REMARK    1  A    between atoms: C_1  and  C_2
REMARK    2  A    between atoms: C_2  and  C_3
REMARK    3  A    between atoms: C_9  and  C_10
REMARK    4  A    between atoms: C_10  and  C_11
REMARK    5  A    between atoms: C_11  and  C_12
REMARK    6  A    between atoms: C_11  and  C_13
REMARK    7  A    between atoms: C_14  and  C_15
REMARK    8  A    between atoms: C_15  and  C_16
REMARK    9  A    between atoms: C_22  and  C_23
REMARK                            x       y       z     vdW  Elec       q    Type
REMARK                         _______ _______ _______ _____ _____    ______ ____
ROOT
ATOM      1  C   UNL     1       1.139  11.619  18.905  0.00  0.00    +0.000 A 
ATOM      2  C   UNL     1       0.722  10.870  19.985  0.00  0.00    +0.000 A 
ATOM      3  N   UNL     1       0.961   9.546  20.130  0.00  0.00    +0.000 NA
ATOM      4  C   UNL     1       1.655   8.939  19.141  0.00  0.00    +0.000 A 
ATOM      5  N   UNL     1       2.060   7.554  19.293  0.00  0.00    +0.000 N 
ATOM      6  N   UNL     1       1.752   6.835  20.408  0.00  0.00    +0.000 NA
ATOM      7  C   UNL     1       2.347   5.650  20.254  0.00  0.00    +0.000 A 
ATOM      8  C   UNL     1       3.040   5.561  19.008  0.00  0.00    +0.000 A 
ATOM      9  C   UNL     1       2.800   6.784  18.395  0.00  0.00    +0.000 A 
ATOM     10  C   UNL     1       3.219   7.271  17.052  0.00  0.00    +0.000 C 
ATOM     11  N   UNL     1       2.048   9.580  18.018  0.00  0.00    +0.000 NA
ATOM     12  C   UNL     1       1.783  10.891  17.929  0.00  0.00    +0.000 A 
ENDROOT
BRANCH   1  14
ATOM     13  C   UNL     1       2.232  13.865  18.285  0.00  0.00    +0.000 C 
ATOM     14  C   UNL     1       0.995  13.100  18.727  0.00  0.00    +0.000 C 
ENDBRANCH   1  14
BRANCH   7  15
ATOM     15  C   UNL     1       2.229   4.566  21.289  0.00  0.00    +0.000 C 
BRANCH  15  16
ATOM     16  C   UNL     1       1.289   3.372  21.044  0.00  0.00    +0.000 C 
ATOM     17  C   UNL     1       0.587   3.424  19.685  0.00  0.00    +0.000 C 
ATOM     18  C   UNL     1       1.953   2.013  21.275  0.00  0.00    +0.000 C 
ENDBRANCH  15  16
ENDBRANCH   7  15
BRANCH   8  19
ATOM     19  C   UNL     1       3.755   4.379  18.431  0.00  0.00    +0.000 C 
BRANCH  19  20
ATOM     20  C   UNL     1       5.232   4.687  18.366  0.00  0.00    +0.000 A 
ATOM     21  C   UNL     1       5.943   4.502  17.173  0.00  0.00    +0.000 A 
ATOM     22  C   UNL     1       7.289   4.864  17.073  0.00  0.00    +0.000 A 
ATOM     23  C   UNL     1       7.944   5.422  18.167  0.00  0.00    +0.000 A 
ATOM     24  C   UNL     1       7.258   5.608  19.362  0.00  0.00    +0.000 A 
ATOM     25  C   UNL     1       5.913   5.241  19.464  0.00  0.00    +0.000 A 
ENDBRANCH  19  20
ENDBRANCH   8  19
TORSDOF 5
ENDMDL
