MODEL 1
REMARK VINA RESULT:      -9.5      0.000      0.000
REMARK  Name = 
REMARK  9 active torsions:
REMARK  status: ('A' for Active; 'I' for Inactive)
REMARK    1  A    between atoms: C_1  and  C_2
REMARK    2  A    between atoms: C_2  and  C_3
REMARK    3  A    between atoms: C_6  and  C_7
REMARK    4  A    between atoms: C_9  and  C_10
REMARK    5  A    between atoms: N_13  and  C_14
REMARK    6  A    between atoms: C_14  and  C_15
REMARK    7  A    between atoms: C_18  and  C_19
REMARK    8  A    between atoms: C_20  and  C_21
REMARK    9  A    between atoms: C_21  and  O_23
REMARK                            x       y       z     vdW  Elec       q    Type
REMARK                         _______ _______ _______ _____ _____    ______ ____
ROOT
ATOM      1  C   UNL     1       1.358  10.440  18.848  0.00  0.00    +0.000 A 
ATOM      2  C   UNL     1       1.044   9.700  19.990  0.00  0.00    +0.000 A 
ATOM      3  C   UNL     1       1.327   8.319  20.046  0.00  0.00    +0.000 A 
ATOM      4  C   UNL     1       1.905   7.603  18.975  0.00  0.00    +0.000 A 
ATOM      5  C   UNL     1       2.344   8.367  17.897  0.00  0.00    +0.000 A 
ATOM      6  C   UNL     1       2.065   9.762  17.836  0.00  0.00    +0.000 A 
ENDROOT
BRANCH   4   7
ATOM      7  C   UNL     1       1.985   6.104  19.070  0.00  0.00    +0.000 C 
ATOM      8  C   UNL     1       2.614   5.470  18.062  0.00  0.00    +0.000 C 
ATOM      9  C   UNL     1       1.797   4.235  17.913  0.00  0.00    +0.000 C 
ATOM     10  O   UNL     1       1.678   3.598  16.888  0.00  0.00    +0.000 OA
ATOM     11  C   UNL     1       1.361   3.869  19.248  0.00  0.00    +0.000 A 
ATOM     12  C   UNL     1       1.387   2.540  19.665  0.00  0.00    +0.000 A 
ATOM     13  C   UNL     1       1.843   2.316  20.951  0.00  0.00    +0.000 A 
ATOM     14  C   UNL     1       2.208   3.410  21.762  0.00  0.00    +0.000 A 
ATOM     15  C   UNL     1       2.090   4.749  21.312  0.00  0.00    +0.000 A 
ATOM     16  C   UNL     1       1.647   5.000  20.022  0.00  0.00    +0.000 A 
BRANCH   8  17
ATOM     17  C   UNL     1       4.063   5.241  18.412  0.00  0.00    +0.000 C 
ATOM     18  O   UNL     1       4.694   5.924  19.207  0.00  0.00    +0.000 OA
BRANCH  17  19
ATOM     19  O   UNL     1       4.595   4.137  17.844  0.00  0.00    +0.000 OA
ATOM     20  H   UNL     1       3.975   3.389  17.714  0.00  0.00    +0.000 HD
ENDBRANCH  17  19
ENDBRANCH   8  17
ENDBRANCH   4   7
BRANCH   1  21
ATOM     21  C   UNL     1       0.761  11.822  18.607  0.00  0.00    +0.000 C 
BRANCH  21  32
ATOM     22  C   UNL     1      -1.187  12.353  20.165  0.00  0.00    +0.000 A 
ATOM     23  N   UNL     1      -2.500  12.233  20.166  0.00  0.00    +0.000 NA
ATOM     24  C   UNL     1      -2.838  11.792  18.919  0.00  0.00    +0.000 A 
ATOM     25  C   UNL     1      -4.102  11.486  18.391  0.00  0.00    +0.000 A 
ATOM     26  C   UNL     1      -5.385  11.650  19.144  0.00  0.00    +0.000 C 
ATOM     27  C   UNL     1      -4.109  11.040  17.063  0.00  0.00    +0.000 A 
ATOM     28  C   UNL     1      -2.911  10.911  16.348  0.00  0.00    +0.000 A 
ATOM     29  C   UNL     1      -2.976  10.432  14.918  0.00  0.00    +0.000 C 
ATOM     30  N   UNL     1      -1.670  11.191  16.848  0.00  0.00    +0.000 NA
ATOM     31  C   UNL     1      -1.707  11.643  18.122  0.00  0.00    +0.000 A 
ATOM     32  N   UNL     1      -0.650  12.043  18.919  0.00  0.00    +0.000 N 
BRANCH  22  34
ATOM     33  C   UNL     1      -0.971  12.138  22.653  0.00  0.00    +0.000 C 
ATOM     34  C   UNL     1      -0.431  12.777  21.381  0.00  0.00    +0.000 C 
ENDBRANCH  22  34
ENDBRANCH  21  32
ENDBRANCH   1  21
TORSDOF 6
ENDMDL
MODEL 2
REMARK VINA RESULT:      -9.4      4.122      9.078
REMARK  Name = 
REMARK  9 active torsions:
REMARK  status: ('A' for Active; 'I' for Inactive)
REMARK    1  A    between atoms: C_1  and  C_2
REMARK    2  A    between atoms: C_2  and  C_3
REMARK    3  A    between atoms: C_6  and  C_7
REMARK    4  A    between atoms: C_9  and  C_10
REMARK    5  A    between atoms: N_13  and  C_14
REMARK    6  A    between atoms: C_14  and  C_15
REMARK    7  A    between atoms: C_18  and  C_19
REMARK    8  A    between atoms: C_20  and  C_21
REMARK    9  A    between atoms: C_21  and  O_23
REMARK                            x       y       z     vdW  Elec       q    Type
REMARK                         _______ _______ _______ _____ _____    ______ ____
ROOT
ATOM      1  C   UNL     1       2.225   6.814  19.699  0.00  0.00    +0.000 A 
ATOM      2  C   UNL     1       1.506   7.102  20.861  0.00  0.00    +0.000 A 
ATOM      3  C   UNL     1       0.912   8.370  21.037  0.00  0.00    +0.000 A 
ATOM      4  C   UNL     1       1.020   9.413  20.092  0.00  0.00    +0.000 A 
ATOM      5  C   UNL     1       1.614   9.078  18.879  0.00  0.00    +0.000 A 
ATOM      6  C   UNL     1       2.213   7.799  18.694  0.00  0.00    +0.000 A 
ENDROOT
BRANCH   4   7
ATOM      7  C   UNL     1       0.514  10.780  20.466  0.00  0.00    +0.000 C 
ATOM      8  C   UNL     1       0.358  11.660  19.458  0.00  0.00    +0.000 C 
ATOM      9  C   UNL     1       0.777  12.938  20.094  0.00  0.00    +0.000 C 
ATOM     10  O   UNL     1       1.238  13.892  19.504  0.00  0.00    +0.000 OA
ATOM     11  C   UNL     1       0.344  12.869  21.478  0.00  0.00    +0.000 A 
ATOM     12  C   UNL     1      -0.240  13.971  22.097  0.00  0.00    +0.000 A 
ATOM     13  C   UNL     1      -1.336  13.708  22.898  0.00  0.00    +0.000 A 
ATOM     14  C   UNL     1      -1.767  12.377  23.074  0.00  0.00    +0.000 A 
ATOM     15  C   UNL     1      -1.087  11.284  22.480  0.00  0.00    +0.000 A 
ATOM     16  C   UNL     1       0.007  11.522  21.662  0.00  0.00    +0.000 A 
BRANCH   8  17
ATOM     17  C   UNL     1      -1.064  11.630  18.955  0.00  0.00    +0.000 C 
ATOM     18  O   UNL     1      -1.738  10.614  18.859  0.00  0.00    +0.000 OA
BRANCH  17  19
ATOM     19  O   UNL     1      -1.581  12.854  18.708  0.00  0.00    +0.000 OA
ATOM     20  H   UNL     1      -1.543  13.148  17.774  0.00  0.00    +0.000 HD
ENDBRANCH  17  19
ENDBRANCH   8  17
ENDBRANCH   4   7
BRANCH   1  21
ATOM     21  C   UNL     1       3.163   5.615  19.622  0.00  0.00    +0.000 C 
BRANCH  21  32
ATOM     22  C   UNL     1       3.106   4.045  17.614  0.00  0.00    +0.000 A 
ATOM     23  N   UNL     1       3.878   3.738  16.590  0.00  0.00    +0.000 NA
ATOM     24  C   UNL     1       4.923   4.614  16.631  0.00  0.00    +0.000 A 
ATOM     25  C   UNL     1       6.038   4.717  15.784  0.00  0.00    +0.000 A 
ATOM     26  C   UNL     1       6.257   3.853  14.581  0.00  0.00    +0.000 C 
ATOM     27  C   UNL     1       6.951   5.728  16.108  0.00  0.00    +0.000 A 
ATOM     28  C   UNL     1       6.735   6.555  17.219  0.00  0.00    +0.000 A 
ATOM     29  C   UNL     1       7.746   7.634  17.519  0.00  0.00    +0.000 C 
ATOM     30  N   UNL     1       5.664   6.462  18.063  0.00  0.00    +0.000 NA
ATOM     31  C   UNL     1       4.793   5.493  17.702  0.00  0.00    +0.000 A 
ATOM     32  N   UNL     1       3.600   5.146  18.309  0.00  0.00    +0.000 N 
BRANCH  22  34
ATOM     33  C   UNL     1       2.119   2.162  18.941  0.00  0.00    +0.000 C 
ATOM     34  C   UNL     1       1.868   3.272  17.931  0.00  0.00    +0.000 C 
ENDBRANCH  22  34
ENDBRANCH  21  32
ENDBRANCH   1  21
TORSDOF 6
ENDMDL
MODEL 3
REMARK VINA RESULT:      -9.3      1.149      2.938
REMARK  Name = 
REMARK  9 active torsions:
REMARK  status: ('A' for Active; 'I' for Inactive)
REMARK    1  A    between atoms: C_1  and  C_2
REMARK    2  A    between atoms: C_2  and  C_3
REMARK    3  A    between atoms: C_6  and  C_7
REMARK    4  A    between atoms: C_9  and  C_10
REMARK    5  A    between atoms: N_13  and  C_14
REMARK    6  A    between atoms: C_14  and  C_15
REMARK    7  A    between atoms: C_18  and  C_19
REMARK    8  A    between atoms: C_20  and  C_21
REMARK    9  A    between atoms: C_21  and  O_23
REMARK                            x       y       z     vdW  Elec       q    Type
REMARK                         _______ _______ _______ _____ _____    ______ ____
ROOT
ATOM      1  C   UNL     1       1.428  10.047  18.930  0.00  0.00    +0.000 A 
ATOM      2  C   UNL     1       1.283   9.294  20.096  0.00  0.00    +0.000 A 
ATOM      3  C   UNL     1       1.613   7.922  20.105  0.00  0.00    +0.000 A 
ATOM      4  C   UNL     1       2.073   7.229  18.965  0.00  0.00    +0.000 A 
ATOM      5  C   UNL     1       2.349   8.010  17.846  0.00  0.00    +0.000 A 
ATOM      6  C   UNL     1       2.021   9.396  17.832  0.00  0.00    +0.000 A 
ENDROOT
BRANCH   4   7
ATOM      7  C   UNL     1       2.211   5.733  19.037  0.00  0.00    +0.000 C 
ATOM      8  C   UNL     1       2.978   5.152  18.094  0.00  0.00    +0.000 C 
ATOM      9  C   UNL     1       2.240   3.888  17.828  0.00  0.00    +0.000 C 
ATOM     10  O   UNL     1       2.266   3.272  16.784  0.00  0.00    +0.000 OA
ATOM     11  C   UNL     1       1.675   3.468  19.098  0.00  0.00    +0.000 A 
ATOM     12  C   UNL     1       1.714   2.132  19.487  0.00  0.00    +0.000 A 
ATOM     13  C   UNL     1       2.033   1.895  20.812  0.00  0.00    +0.000 A 
ATOM     14  C   UNL     1       2.254   2.982  21.681  0.00  0.00    +0.000 A 
ATOM     15  C   UNL     1       2.126   4.326  21.248  0.00  0.00    +0.000 A 
ATOM     16  C   UNL     1       1.820   4.591  19.922  0.00  0.00    +0.000 A 
BRANCH   8  17
ATOM     17  C   UNL     1       4.387   4.978  18.602  0.00  0.00    +0.000 C 
ATOM     18  O   UNL     1       4.921   5.718  19.416  0.00  0.00    +0.000 OA
BRANCH  17  19
ATOM     19  O   UNL     1       4.994   3.857  18.153  0.00  0.00    +0.000 OA
ATOM     20  H   UNL     1       4.944   3.082  18.749  0.00  0.00    +0.000 HD
ENDBRANCH  17  19
ENDBRANCH   8  17
ENDBRANCH   4   7
BRANCH   1  21
ATOM     21  C   UNL     1       0.762  11.410  18.777  0.00  0.00    +0.000 C 
BRANCH  21  32
ATOM     22  C   UNL     1      -1.736  11.089  18.380  0.00  0.00    +0.000 A 
ATOM     23  N   UNL     1      -2.870  11.593  18.826  0.00  0.00    +0.000 NA
ATOM     24  C   UNL     1      -2.533  12.433  19.847  0.00  0.00    +0.000 A 
ATOM     25  C   UNL     1      -3.355  13.234  20.655  0.00  0.00    +0.000 A 
ATOM     26  C   UNL     1      -4.849  13.267  20.556  0.00  0.00    +0.000 C 
ATOM     27  C   UNL     1      -2.690  14.002  21.619  0.00  0.00    +0.000 A 
ATOM     28  C   UNL     1      -1.294  13.954  21.730  0.00  0.00    +0.000 A 
ATOM     29  C   UNL     1      -0.628  14.796  22.790  0.00  0.00    +0.000 C 
ATOM     30  N   UNL     1      -0.476  13.191  20.945  0.00  0.00    +0.000 NA
ATOM     31  C   UNL     1      -1.156  12.445  20.046  0.00  0.00    +0.000 A 
ATOM     32  N   UNL     1      -0.651  11.547  19.122  0.00  0.00    +0.000 N 
BRANCH  22  34
ATOM     33  C   UNL     1      -3.063   9.919  16.605  0.00  0.00    +0.000 C 
ATOM     34  C   UNL     1      -1.690  10.146  17.223  0.00  0.00    +0.000 C 
ENDBRANCH  22  34
ENDBRANCH  21  32
ENDBRANCH   1  21
TORSDOF 6
ENDMDL
MODEL 4
REMARK VINA RESULT:      -9.2      4.153      9.075
REMARK  Name = 
REMARK  9 active torsions:
REMARK  status: ('A' for Active; 'I' for Inactive)
REMARK    1  A    between atoms: C_1  and  C_2
REMARK    2  A    between atoms: C_2  and  C_3
REMARK    3  A    between atoms: C_6  and  C_7
REMARK    4  A    between atoms: C_9  and  C_10
REMARK    5  A    between atoms: N_13  and  C_14
REMARK    6  A    between atoms: C_14  and  C_15
REMARK    7  A    between atoms: C_18  and  C_19
REMARK    8  A    between atoms: C_20  and  C_21
REMARK    9  A    between atoms: C_21  and  O_23
REMARK                            x       y       z     vdW  Elec       q    Type
REMARK                         _______ _______ _______ _____ _____    ______ ____
ROOT
ATOM      1  C   UNL     1       2.306   7.493  19.483  0.00  0.00    +0.000 A 
ATOM      2  C   UNL     1       2.125   8.170  18.276  0.00  0.00    +0.000 A 
ATOM      3  C   UNL     1       1.112   9.144  18.149  0.00  0.00    +0.000 A 
ATOM      4  C   UNL     1       0.220   9.474  19.192  0.00  0.00    +0.000 A 
ATOM      5  C   UNL     1       0.492   8.901  20.431  0.00  0.00    +0.000 A 
ATOM      6  C   UNL     1       1.515   7.919  20.567  0.00  0.00    +0.000 A 
ENDROOT
BRANCH   4   7
ATOM      7  C   UNL     1      -0.939  10.383  18.888  0.00  0.00    +0.000 C 
ATOM      8  C   UNL     1      -0.909  11.606  19.453  0.00  0.00    +0.000 C 
ATOM      9  C   UNL     1      -2.342  11.834  19.778  0.00  0.00    +0.000 C 
ATOM     10  O   UNL     1      -2.749  12.547  20.671  0.00  0.00    +0.000 OA
ATOM     11  C   UNL     1      -3.109  11.209  18.715  0.00  0.00    +0.000 A 
ATOM     12  C   UNL     1      -4.217  11.849  18.166  0.00  0.00    +0.000 A 
ATOM     13  C   UNL     1      -4.341  11.777  16.791  0.00  0.00    +0.000 A 
ATOM     14  C   UNL     1      -3.392  11.050  16.043  0.00  0.00    +0.000 A 
ATOM     15  C   UNL     1      -2.324  10.353  16.662  0.00  0.00    +0.000 A 
ATOM     16  C   UNL     1      -2.170  10.420  18.038  0.00  0.00    +0.000 A 
BRANCH   8  17
ATOM     17  C   UNL     1      -0.300  12.605  18.500  0.00  0.00    +0.000 C 
ATOM     18  O   UNL     1       0.847  12.545  18.082  0.00  0.00    +0.000 OA
BRANCH  17  19
ATOM     19  O   UNL     1      -1.172  13.537  18.057  0.00  0.00    +0.000 OA
ATOM     20  H   UNL     1      -2.063  13.205  17.823  0.00  0.00    +0.000 HD
ENDBRANCH  17  19
ENDBRANCH   8  17
ENDBRANCH   4   7
BRANCH   1  21
ATOM     21  C   UNL     1       3.129   6.211  19.559  0.00  0.00    +0.000 C 
BRANCH  21  32
ATOM     22  C   UNL     1       3.020   4.462  17.707  0.00  0.00    +0.000 A 
ATOM     23  N   UNL     1       3.802   4.000  16.751  0.00  0.00    +0.000 NA
ATOM     24  C   UNL     1       4.911   4.795  16.755  0.00  0.00    +0.000 A 
ATOM     25  C   UNL     1       6.060   4.731  15.952  0.00  0.00    +0.000 A 
ATOM     26  C   UNL     1       6.253   3.740  14.845  0.00  0.00    +0.000 C 
ATOM     27  C   UNL     1       7.038   5.698  16.217  0.00  0.00    +0.000 A 
ATOM     28  C   UNL     1       6.848   6.643  17.235  0.00  0.00    +0.000 A 
ATOM     29  C   UNL     1       7.929   7.667  17.476  0.00  0.00    +0.000 C 
ATOM     30  N   UNL     1       5.743   6.713  18.037  0.00  0.00    +0.000 NA
ATOM     31  C   UNL     1       4.812   5.781  17.732  0.00  0.00    +0.000 A 
ATOM     32  N   UNL     1       3.574   5.585  18.317  0.00  0.00    +0.000 N 
BRANCH  22  34
ATOM     33  C   UNL     1       1.860   2.336  18.351  0.00  0.00    +0.000 C 
ATOM     34  C   UNL     1       1.715   3.819  18.042  0.00  0.00    +0.000 C 
ENDBRANCH  22  34
ENDBRANCH  21  32
ENDBRANCH   1  21
TORSDOF 6
ENDMDL
MODEL 5
REMARK VINA RESULT:      -9.2      1.836      4.333
REMARK  Name = 
REMARK  9 active torsions:
REMARK  status: ('A' for Active; 'I' for Inactive)
REMARK    1  A    between atoms: C_1  and  C_2
REMARK    2  A    between atoms: C_2  and  C_3
REMARK    3  A    between atoms: C_6  and  C_7
REMARK    4  A    between atoms: C_9  and  C_10
REMARK    5  A    between atoms: N_13  and  C_14
REMARK    6  A    between atoms: C_14  and  C_15
REMARK    7  A    between atoms: C_18  and  C_19
REMARK    8  A    between atoms: C_20  and  C_21
REMARK    9  A    between atoms: C_21  and  O_23
REMARK                            x       y       z     vdW  Elec       q    Type
REMARK                         _______ _______ _______ _____ _____    ______ ____
ROOT
ATOM      1  C   UNL     1       1.217   9.635  19.119  0.00  0.00    +0.000 A 
ATOM      2  C   UNL     1       1.758   9.489  17.841  0.00  0.00    +0.000 A 
ATOM      3  C   UNL     1       2.548   8.365  17.524  0.00  0.00    +0.000 A 
ATOM      4  C   UNL     1       2.859   7.350  18.455  0.00  0.00    +0.000 A 
ATOM      5  C   UNL     1       2.204   7.426  19.681  0.00  0.00    +0.000 A 
ATOM      6  C   UNL     1       1.403   8.558  20.006  0.00  0.00    +0.000 A 
ENDROOT
BRANCH   4   7
ATOM      7  C   UNL     1       3.863   6.299  18.068  0.00  0.00    +0.000 C 
ATOM      8  C   UNL     1       3.739   5.099  18.667  0.00  0.00    +0.000 C 
ATOM      9  C   UNL     1       5.160   4.700  18.860  0.00  0.00    +0.000 C 
ATOM     10  O   UNL     1       5.563   3.957  19.729  0.00  0.00    +0.000 OA
ATOM     11  C   UNL     1       5.888   5.208  17.711  0.00  0.00    +0.000 A 
ATOM     12  C   UNL     1       6.850   4.426  17.077  0.00  0.00    +0.000 A 
ATOM     13  C   UNL     1       6.846   4.460  15.695  0.00  0.00    +0.000 A 
ATOM     14  C   UNL     1       5.924   5.286  15.021  0.00  0.00    +0.000 A 
ATOM     15  C   UNL     1       5.014   6.120  15.719  0.00  0.00    +0.000 A 
ATOM     16  C   UNL     1       4.990   6.096  17.105  0.00  0.00    +0.000 A 
BRANCH   8  17
ATOM     17  C   UNL     1       2.923   4.168  17.807  0.00  0.00    +0.000 C 
ATOM     18  O   UNL     1       1.801   4.423  17.390  0.00  0.00    +0.000 OA
BRANCH  17  19
ATOM     19  O   UNL     1       3.581   3.046  17.439  0.00  0.00    +0.000 OA
ATOM     20  H   UNL     1       3.363   2.241  17.954  0.00  0.00    +0.000 HD
ENDBRANCH  17  19
ENDBRANCH   8  17
ENDBRANCH   4   7
BRANCH   1  21
ATOM     21  C   UNL     1       0.671  10.974  19.603  0.00  0.00    +0.000 C 
BRANCH  21  32
ATOM     22  C   UNL     1      -1.669  10.894  18.594  0.00  0.00    +0.000 A 
ATOM     23  N   UNL     1      -2.852  11.431  18.823  0.00  0.00    +0.000 NA
ATOM     24  C   UNL     1      -2.731  12.122  19.993  0.00  0.00    +0.000 A 
ATOM     25  C   UNL     1      -3.684  12.889  20.682  0.00  0.00    +0.000 A 
ATOM     26  C   UNL     1      -5.107  13.047  20.241  0.00  0.00    +0.000 C 
ATOM     27  C   UNL     1      -3.237  13.490  21.865  0.00  0.00    +0.000 A 
ATOM     28  C   UNL     1      -1.913  13.321  22.293  0.00  0.00    +0.000 A 
ATOM     29  C   UNL     1      -1.483  13.984  23.578  0.00  0.00    +0.000 C 
ATOM     30  N   UNL     1      -0.967  12.590  21.630  0.00  0.00    +0.000 NA
ATOM     31  C   UNL     1      -1.444  12.005  20.509  0.00  0.00    +0.000 A 
ATOM     32  N   UNL     1      -0.775  11.180  19.622  0.00  0.00    +0.000 N 
BRANCH  22  34
ATOM     33  C   UNL     1      -2.604   9.979  16.457  0.00  0.00    +0.000 C 
ATOM     34  C   UNL     1      -1.390  10.087  17.369  0.00  0.00    +0.000 C 
ENDBRANCH  22  34
ENDBRANCH  21  32
ENDBRANCH   1  21
TORSDOF 6
ENDMDL
MODEL 6
REMARK VINA RESULT:      -9.0      2.795      4.871
REMARK  Name = 
REMARK  9 active torsions:
REMARK  status: ('A' for Active; 'I' for Inactive)
REMARK    1  A    between atoms: C_1  and  C_2
REMARK    2  A    between atoms: C_2  and  C_3
REMARK    3  A    between atoms: C_6  and  C_7
REMARK    4  A    between atoms: C_9  and  C_10
REMARK    5  A    between atoms: N_13  and  C_14
REMARK    6  A    between atoms: C_14  and  C_15
REMARK    7  A    between atoms: C_18  and  C_19
REMARK    8  A    between atoms: C_20  and  C_21
REMARK    9  A    between atoms: C_21  and  O_23
REMARK                            x       y       z     vdW  Elec       q    Type
REMARK                         _______ _______ _______ _____ _____    ______ ____
ROOT
ATOM      1  C   UNL     1       0.946   9.237  18.824  0.00  0.00    +0.000 A 
ATOM      2  C   UNL     1       1.456   8.957  17.556  0.00  0.00    +0.000 A 
ATOM      3  C   UNL     1       2.455   7.976  17.388  0.00  0.00    +0.000 A 
ATOM      4  C   UNL     1       3.012   7.247  18.461  0.00  0.00    +0.000 A 
ATOM      5  C   UNL     1       2.404   7.426  19.700  0.00  0.00    +0.000 A 
ATOM      6  C   UNL     1       1.393   8.414  19.875  0.00  0.00    +0.000 A 
ENDROOT
BRANCH   4   7
ATOM      7  C   UNL     1       4.202   6.366  18.194  0.00  0.00    +0.000 C 
ATOM      8  C   UNL     1       4.523   5.481  19.157  0.00  0.00    +0.000 C 
ATOM      9  C   UNL     1       6.010   5.493  19.107  0.00  0.00    +0.000 C 
ATOM     10  O   UNL     1       6.741   5.234  20.039  0.00  0.00    +0.000 OA
ATOM     11  C   UNL     1       6.372   5.676  17.713  0.00  0.00    +0.000 A 
ATOM     12  C   UNL     1       7.407   4.937  17.144  0.00  0.00    +0.000 A 
ATOM     13  C   UNL     1       7.175   4.449  15.871  0.00  0.00    +0.000 A 
ATOM     14  C   UNL     1       5.961   4.747  15.220  0.00  0.00    +0.000 A 
ATOM     15  C   UNL     1       4.972   5.569  15.818  0.00  0.00    +0.000 A 
ATOM     16  C   UNL     1       5.174   6.061  17.098  0.00  0.00    +0.000 A 
BRANCH   8  17
ATOM     17  C   UNL     1       3.884   4.145  18.873  0.00  0.00    +0.000 C 
ATOM     18  O   UNL     1       2.723   4.000  18.515  0.00  0.00    +0.000 OA
BRANCH  17  19
ATOM     19  O   UNL     1       4.741   3.102  18.948  0.00  0.00    +0.000 OA
ATOM     20  H   UNL     1       5.224   3.014  19.796  0.00  0.00    +0.000 HD
ENDBRANCH  17  19
ENDBRANCH   8  17
ENDBRANCH   4   7
BRANCH   1  21
ATOM     21  C   UNL     1       0.146  10.506  19.098  0.00  0.00    +0.000 C 
BRANCH  21  32
ATOM     22  C   UNL     1       0.144  11.618  21.392  0.00  0.00    +0.000 A 
ATOM     23  N   UNL     1       0.628  12.711  21.950  0.00  0.00    +0.000 NA
ATOM     24  C   UNL     1       1.417  13.298  21.004  0.00  0.00    +0.000 A 
ATOM     25  C   UNL     1       2.156  14.490  21.070  0.00  0.00    +0.000 A 
ATOM     26  C   UNL     1       2.246  15.352  22.292  0.00  0.00    +0.000 C 
ATOM     27  C   UNL     1       2.861  14.829  19.909  0.00  0.00    +0.000 A 
ATOM     28  C   UNL     1       2.798  14.010  18.773  0.00  0.00    +0.000 A 
ATOM     29  C   UNL     1       3.582  14.417  17.549  0.00  0.00    +0.000 C 
ATOM     30  N   UNL     1       2.075  12.854  18.684  0.00  0.00    +0.000 NA
ATOM     31  C   UNL     1       1.431  12.548  19.833  0.00  0.00    +0.000 A 
ATOM     32  N   UNL     1       0.639  11.446  20.102  0.00  0.00    +0.000 N 
BRANCH  22  34
ATOM     33  C   UNL     1      -0.095   9.733  23.026  0.00  0.00    +0.000 C 
ATOM     34  C   UNL     1      -0.807  10.718  22.110  0.00  0.00    +0.000 C 
ENDBRANCH  22  34
ENDBRANCH  21  32
ENDBRANCH   1  21
TORSDOF 6
ENDMDL
MODEL 7
REMARK VINA RESULT:      -9.0      1.400      2.824
REMARK  Name = 
REMARK  9 active torsions:
REMARK  status: ('A' for Active; 'I' for Inactive)
REMARK    1  A    between atoms: C_1  and  C_2
REMARK    2  A    between atoms: C_2  and  C_3
REMARK    3  A    between atoms: C_6  and  C_7
REMARK    4  A    between atoms: C_9  and  C_10
REMARK    5  A    between atoms: N_13  and  C_14
REMARK    6  A    between atoms: C_14  and  C_15
REMARK    7  A    between atoms: C_18  and  C_19
REMARK    8  A    between atoms: C_20  and  C_21
REMARK    9  A    between atoms: C_21  and  O_23
REMARK                            x       y       z     vdW  Elec       q    Type
REMARK                         _______ _______ _______ _____ _____    ______ ____
ROOT
ATOM      1  C   UNL     1       0.756  10.233  19.176  0.00  0.00    +0.000 A 
ATOM      2  C   UNL     1       1.176   9.813  17.913  0.00  0.00    +0.000 A 
ATOM      3  C   UNL     1       1.867   8.593  17.759  0.00  0.00    +0.000 A 
ATOM      4  C   UNL     1       2.196   7.747  18.841  0.00  0.00    +0.000 A 
ATOM      5  C   UNL     1       1.655   8.098  20.075  0.00  0.00    +0.000 A 
ATOM      6  C   UNL     1       0.954   9.327  20.236  0.00  0.00    +0.000 A 
ENDROOT
BRANCH   4   7
ATOM      7  C   UNL     1       3.098   6.571  18.589  0.00  0.00    +0.000 C 
ATOM      8  C   UNL     1       2.675   5.378  19.050  0.00  0.00    +0.000 C 
ATOM      9  C   UNL     1       3.946   4.751  19.501  0.00  0.00    +0.000 C 
ATOM     10  O   UNL     1       4.039   3.913  20.373  0.00  0.00    +0.000 OA
ATOM     11  C   UNL     1       4.973   5.192  18.575  0.00  0.00    +0.000 A 
ATOM     12  C   UNL     1       5.929   4.299  18.095  0.00  0.00    +0.000 A 
ATOM     13  C   UNL     1       6.231   4.399  16.749  0.00  0.00    +0.000 A 
ATOM     14  C   UNL     1       5.607   5.393  15.967  0.00  0.00    +0.000 A 
ATOM     15  C   UNL     1       4.697   6.325  16.525  0.00  0.00    +0.000 A 
ATOM     16  C   UNL     1       4.368   6.238  17.869  0.00  0.00    +0.000 A 
BRANCH   8  17
ATOM     17  C   UNL     1       1.941   4.630  17.965  0.00  0.00    +0.000 C 
ATOM     18  O   UNL     1       1.106   5.133  17.227  0.00  0.00    +0.000 OA
BRANCH  17  19
ATOM     19  O   UNL     1       2.360   3.355  17.802  0.00  0.00    +0.000 OA
ATOM     20  H   UNL     1       2.874   2.981  18.547  0.00  0.00    +0.000 HD
ENDBRANCH  17  19
ENDBRANCH   8  17
ENDBRANCH   4   7
BRANCH   1  21
ATOM     21  C   UNL     1       0.336  11.675  19.435  0.00  0.00    +0.000 C 
BRANCH  21  32
ATOM     22  C   UNL     1      -1.765  12.260  20.756  0.00  0.00    +0.000 A 
ATOM     23  N   UNL     1      -3.072  12.235  20.578  0.00  0.00    +0.000 NA
ATOM     24  C   UNL     1      -3.266  11.887  19.272  0.00  0.00    +0.000 A 
ATOM     25  C   UNL     1      -4.464  11.701  18.566  0.00  0.00    +0.000 A 
ATOM     26  C   UNL     1      -5.825  11.915  19.154  0.00  0.00    +0.000 C 
ATOM     27  C   UNL     1      -4.322  11.328  17.223  0.00  0.00    +0.000 A 
ATOM     28  C   UNL     1      -3.049  11.152  16.663  0.00  0.00    +0.000 A 
ATOM     29  C   UNL     1      -2.952  10.756  15.210  0.00  0.00    +0.000 C 
ATOM     30  N   UNL     1      -1.872  11.315  17.338  0.00  0.00    +0.000 NA
ATOM     31  C   UNL     1      -2.051  11.700  18.621  0.00  0.00    +0.000 A 
ATOM     32  N   UNL     1      -1.086  11.980  19.573  0.00  0.00    +0.000 N 
BRANCH  22  34
ATOM     33  C   UNL     1      -1.165  11.360  23.017  0.00  0.00    +0.000 C 
ATOM     34  C   UNL     1      -1.154  12.564  22.084  0.00  0.00    +0.000 C 
ENDBRANCH  22  34
ENDBRANCH  21  32
ENDBRANCH   1  21
TORSDOF 6
ENDMDL
MODEL 8
REMARK VINA RESULT:      -9.0      2.609      3.981
REMARK  Name = 
REMARK  9 active torsions:
REMARK  status: ('A' for Active; 'I' for Inactive)
REMARK    1  A    between atoms: C_1  and  C_2
REMARK    2  A    between atoms: C_2  and  C_3
REMARK    3  A    between atoms: C_6  and  C_7
REMARK    4  A    between atoms: C_9  and  C_10
REMARK    5  A    between atoms: N_13  and  C_14
REMARK    6  A    between atoms: C_14  and  C_15
REMARK    7  A    between atoms: C_18  and  C_19
REMARK    8  A    between atoms: C_20  and  C_21
REMARK    9  A    between atoms: C_21  and  O_23
REMARK                            x       y       z     vdW  Elec       q    Type
REMARK                         _______ _______ _______ _____ _____    ______ ____
ROOT
ATOM      1  C   UNL     1       1.419   9.536  19.089  0.00  0.00    +0.000 A 
ATOM      2  C   UNL     1       1.531   8.547  20.069  0.00  0.00    +0.000 A 
ATOM      3  C   UNL     1       2.147   7.314  19.772  0.00  0.00    +0.000 A 
ATOM      4  C   UNL     1       2.655   6.990  18.495  0.00  0.00    +0.000 A 
ATOM      5  C   UNL     1       2.669   8.025  17.564  0.00  0.00    +0.000 A 
ATOM      6  C   UNL     1       2.052   9.274  17.859  0.00  0.00    +0.000 A 
ENDROOT
BRANCH   4   7
ATOM      7  C   UNL     1       3.116   5.581  18.238  0.00  0.00    +0.000 C 
ATOM      8  C   UNL     1       4.340   5.438  17.695  0.00  0.00    +0.000 C 
ATOM      9  C   UNL     1       4.141   4.282  16.779  0.00  0.00    +0.000 C 
ATOM     10  O   UNL     1       4.782   4.073  15.771  0.00  0.00    +0.000 OA
ATOM     11  C   UNL     1       3.194   3.398  17.435  0.00  0.00    +0.000 A 
ATOM     12  C   UNL     1       3.390   2.019  17.431  0.00  0.00    +0.000 A 
ATOM     13  C   UNL     1       3.134   1.367  18.623  0.00  0.00    +0.000 A 
ATOM     14  C   UNL     1       2.665   2.100  19.733  0.00  0.00    +0.000 A 
ATOM     15  C   UNL     1       2.411   3.493  19.657  0.00  0.00    +0.000 A 
ATOM     16  C   UNL     1       2.671   4.173  18.478  0.00  0.00    +0.000 A 
BRANCH   8  17
ATOM     17  C   UNL     1       5.370   5.228  18.777  0.00  0.00    +0.000 C 
ATOM     18  O   UNL     1       5.311   5.733  19.889  0.00  0.00    +0.000 OA
BRANCH  17  19
ATOM     19  O   UNL     1       6.333   4.338  18.449  0.00  0.00    +0.000 OA
ATOM     20  H   UNL     1       7.188   4.726  18.169  0.00  0.00    +0.000 HD
ENDBRANCH  17  19
ENDBRANCH   8  17
ENDBRANCH   4   7
BRANCH   1  21
ATOM     21  C   UNL     1       0.467  10.715  19.255  0.00  0.00    +0.000 C 
BRANCH  21  32
ATOM     22  C   UNL     1       0.056  12.028  21.401  0.00  0.00    +0.000 A 
ATOM     23  N   UNL     1       0.449  13.165  21.944  0.00  0.00    +0.000 NA
ATOM     24  C   UNL     1       1.413  13.662  21.117  0.00  0.00    +0.000 A 
ATOM     25  C   UNL     1       2.151  14.852  21.216  0.00  0.00    +0.000 A 
ATOM     26  C   UNL     1       2.027  15.819  22.353  0.00  0.00    +0.000 C 
ATOM     27  C   UNL     1       3.069  15.083  20.184  0.00  0.00    +0.000 A 
ATOM     28  C   UNL     1       3.204  14.166  19.133  0.00  0.00    +0.000 A 
ATOM     29  C   UNL     1       4.213  14.459  18.050  0.00  0.00    +0.000 C 
ATOM     30  N   UNL     1       2.487  13.009  19.011  0.00  0.00    +0.000 NA
ATOM     31  C   UNL     1       1.632  12.810  20.039  0.00  0.00    +0.000 A 
ATOM     32  N   UNL     1       0.781  11.739  20.249  0.00  0.00    +0.000 N 
BRANCH  22  34
ATOM     33  C   UNL     1      -0.502  10.184  23.004  0.00  0.00    +0.000 C 
ATOM     34  C   UNL     1      -1.032  11.200  22.002  0.00  0.00    +0.000 C 
ENDBRANCH  22  34
ENDBRANCH  21  32
ENDBRANCH   1  21
TORSDOF 6
ENDMDL
MODEL 9
REMARK VINA RESULT:      -8.9      2.280      4.888
REMARK  Name = 
REMARK  9 active torsions:
REMARK  status: ('A' for Active; 'I' for Inactive)
REMARK    1  A    between atoms: C_1  and  C_2
REMARK    2  A    between atoms: C_2  and  C_3
REMARK    3  A    between atoms: C_6  and  C_7
REMARK    4  A    between atoms: C_9  and  C_10
REMARK    5  A    between atoms: N_13  and  C_14
REMARK    6  A    between atoms: C_14  and  C_15
REMARK    7  A    between atoms: C_18  and  C_19
REMARK    8  A    between atoms: C_20  and  C_21
REMARK    9  A    between atoms: C_21  and  O_23
REMARK                            x       y       z     vdW  Elec       q    Type
REMARK                         _______ _______ _______ _____ _____    ______ ____
ROOT
ATOM      1  C   UNL     1       0.935   9.183  20.374  0.00  0.00    +0.000 A 
ATOM      2  C   UNL     1       1.456   9.325  19.087  0.00  0.00    +0.000 A 
ATOM      3  C   UNL     1       2.220   8.291  18.507  0.00  0.00    +0.000 A 
ATOM      4  C   UNL     1       2.525   7.086  19.176  0.00  0.00    +0.000 A 
ATOM      5  C   UNL     1       1.889   6.889  20.398  0.00  0.00    +0.000 A 
ATOM      6  C   UNL     1       1.113   7.928  20.988  0.00  0.00    +0.000 A 
ENDROOT
BRANCH   4   7
ATOM      7  C   UNL     1       3.504   6.137  18.541  0.00  0.00    +0.000 C 
ATOM      8  C   UNL     1       3.354   4.831  18.836  0.00  0.00    +0.000 C 
ATOM      9  C   UNL     1       4.765   4.366  18.917  0.00  0.00    +0.000 C 
ATOM     10  O   UNL     1       5.153   3.428  19.580  0.00  0.00    +0.000 OA
ATOM     11  C   UNL     1       5.503   5.119  17.918  0.00  0.00    +0.000 A 
ATOM     12  C   UNL     1       6.446   4.492  17.108  0.00  0.00    +0.000 A 
ATOM     13  C   UNL     1       6.439   4.856  15.774  0.00  0.00    +0.000 A 
ATOM     14  C   UNL     1       5.535   5.840  15.325  0.00  0.00    +0.000 A 
ATOM     15  C   UNL     1       4.646   6.501  16.209  0.00  0.00    +0.000 A 
ATOM     16  C   UNL     1       4.625   6.146  17.549  0.00  0.00    +0.000 A 
BRANCH   8  17
ATOM     17  C   UNL     1       2.515   4.151  17.783  0.00  0.00    +0.000 C 
ATOM     18  O   UNL     1       1.428   4.561  17.401  0.00  0.00    +0.000 OA
BRANCH  17  19
ATOM     19  O   UNL     1       3.116   3.085  17.210  0.00  0.00    +0.000 OA
ATOM     20  H   UNL     1       2.530   2.502  16.684  0.00  0.00    +0.000 HD
ENDBRANCH  17  19
ENDBRANCH   8  17
ENDBRANCH   4   7
BRANCH   1  21
ATOM     21  C   UNL     1       0.421  10.383  21.161  0.00  0.00    +0.000 C 
BRANCH  21  32
ATOM     22  C   UNL     1      -0.646  11.953  19.459  0.00  0.00    +0.000 A 
ATOM     23  N   UNL     1      -0.363  13.101  18.875  0.00  0.00    +0.000 NA
ATOM     24  C   UNL     1       0.775  13.557  19.473  0.00  0.00    +0.000 A 
ATOM     25  C   UNL     1       1.513  14.724  19.220  0.00  0.00    +0.000 A 
ATOM     26  C   UNL     1       1.119  15.761  18.214  0.00  0.00    +0.000 C 
ATOM     27  C   UNL     1       2.657  14.898  20.010  0.00  0.00    +0.000 A 
ATOM     28  C   UNL     1       3.013  13.942  20.970  0.00  0.00    +0.000 A 
ATOM     29  C   UNL     1       4.251  14.181  21.799  0.00  0.00    +0.000 C 
ATOM     30  N   UNL     1       2.315  12.793  21.222  0.00  0.00    +0.000 NA
ATOM     31  C   UNL     1       1.205  12.675  20.460  0.00  0.00    +0.000 A 
ATOM     32  N   UNL     1       0.263  11.662  20.472  0.00  0.00    +0.000 N 
BRANCH  22  34
ATOM     33  C   UNL     1      -1.608  10.472  17.681  0.00  0.00    +0.000 C 
ATOM     34  C   UNL     1      -1.814  11.120  19.043  0.00  0.00    +0.000 C 
ENDBRANCH  22  34
ENDBRANCH  21  32
ENDBRANCH   1  21
TORSDOF 6
ENDMDL
