MODEL 1
REMARK VINA RESULT:      -7.6      0.000      0.000
REMARK  Name = 
REMARK  7 active torsions:
REMARK  status: ('A' for Active; 'I' for Inactive)
REMARK    1  A    between atoms: C_1  and  C_2
REMARK    2  A    between atoms: C_4  and  C_5
REMARK    3  A    between atoms: C_5  and  C_7
REMARK    4  A    between atoms: C_7  and  S_8
REMARK    5  A    between atoms: S_8  and  C_9
REMARK    6  A    between atoms: C_15  and  C_16
REMARK    7  A    between atoms: N_17  and  C_18
REMARK                            x       y       z     vdW  Elec       q    Type
REMARK                         _______ _______ _______ _____ _____    ______ ____
ROOT
ATOM      1  C   UNL     1       2.071   4.663  21.189  0.00  0.00    +0.000 C 
ATOM      2  C   UNL     1       1.965   5.959  20.448  0.00  0.00    +0.000 A 
ATOM      3  C   UNL     1       1.293   7.081  20.898  0.00  0.00    +0.000 A 
ATOM      4  C   UNL     1       1.499   8.142  19.995  0.00  0.00    +0.000 A 
ATOM      5  C   UNL     1       2.312   7.637  18.977  0.00  0.00    +0.000 A 
ATOM      6  C   UNL     1       2.765   8.358  17.742  0.00  0.00    +0.000 C 
ATOM      7  N   UNL     1       2.597   6.276  19.239  0.00  0.00    +0.000 N 
ENDROOT
BRANCH   7   8
ATOM      8  C   UNL     1       3.415   5.401  18.436  0.00  0.00    +0.000 A 
ATOM      9  C   UNL     1       4.813   5.464  18.503  0.00  0.00    +0.000 A 
ATOM     10  C   UNL     1       5.610   4.626  17.714  0.00  0.00    +0.000 A 
ATOM     11  F   UNL     1       6.943   4.753  17.762  0.00  0.00    +0.000 F 
ATOM     12  C   UNL     1       5.047   3.662  16.895  0.00  0.00    +0.000 A 
ATOM     13  C   UNL     1       3.661   3.570  16.831  0.00  0.00    +0.000 A 
ATOM     14  C   UNL     1       2.862   4.453  17.565  0.00  0.00    +0.000 A 
ATOM     15  F   UNL     1       1.554   4.416  17.301  0.00  0.00    +0.000 F 
ENDBRANCH   7   8
BRANCH   4  16
ATOM     16  C   UNL     1       0.953   9.518  20.076  0.00  0.00    +0.000 C 
ATOM     17  O   UNL     1       1.068  10.188  21.109  0.00  0.00    +0.000 OA
BRANCH  16  18
ATOM     18  C   UNL     1       0.141  10.055  18.902  0.00  0.00    +0.000 C 
BRANCH  18  19
ATOM     19  S   UNL     1      -1.355  10.941  19.427  0.00  0.00    +0.000 S 
BRANCH  19  20
ATOM     20  C   UNL     1      -2.220  11.008  17.915  0.00  0.00    +0.000 A 
ATOM     21  N   UNL     1      -3.303  11.776  17.761  0.00  0.00    +0.000 NA
ATOM     22  N   UNL     1      -3.630  11.510  16.486  0.00  0.00    +0.000 N 
ATOM     23  C   UNL     1      -2.775  10.595  15.936  0.00  0.00    +0.000 A 
ATOM     24  N   UNL     1      -2.895  10.138  14.686  0.00  0.00    +0.000 N 
ATOM     25  N   UNL     1      -1.879  10.256  16.825  0.00  0.00    +0.000 NA
ATOM     26  H   UNL     1      -4.431  11.962  16.067  0.00  0.00    +0.000 HD
ATOM     27  H   UNL     1      -3.533  10.507  13.993  0.00  0.00    +0.000 HD
ATOM     28  H   UNL     1      -2.142   9.564  14.316  0.00  0.00    +0.000 HD
ENDBRANCH  19  20
ENDBRANCH  18  19
ENDBRANCH  16  18
ENDBRANCH   4  16
TORSDOF 5
ENDMDL
MODEL 2
REMARK VINA RESULT:      -7.5      4.098      7.633
REMARK  Name = 
REMARK  7 active torsions:
REMARK  status: ('A' for Active; 'I' for Inactive)
REMARK    1  A    between atoms: C_1  and  C_2
REMARK    2  A    between atoms: C_4  and  C_5
REMARK    3  A    between atoms: C_5  and  C_7
REMARK    4  A    between atoms: C_7  and  S_8
REMARK    5  A    between atoms: S_8  and  C_9
REMARK    6  A    between atoms: C_15  and  C_16
REMARK    7  A    between atoms: N_17  and  C_18
REMARK                            x       y       z     vdW  Elec       q    Type
REMARK                         _______ _______ _______ _____ _____    ______ ____
ROOT
ATOM      1  C   UNL     1      -0.169   8.979  22.147  0.00  0.00    +0.000 C 
ATOM      2  C   UNL     1       0.735   8.528  21.045  0.00  0.00    +0.000 A 
ATOM      3  C   UNL     1       1.378   7.304  20.992  0.00  0.00    +0.000 A 
ATOM      4  C   UNL     1       2.052   7.182  19.762  0.00  0.00    +0.000 A 
ATOM      5  C   UNL     1       1.809   8.368  19.064  0.00  0.00    +0.000 A 
ATOM      6  C   UNL     1       2.362   8.757  17.724  0.00  0.00    +0.000 C 
ATOM      7  N   UNL     1       1.004   9.220  19.857  0.00  0.00    +0.000 N 
ENDROOT
BRANCH   7   8
ATOM      8  C   UNL     1       0.521  10.528  19.492  0.00  0.00    +0.000 A 
ATOM      9  C   UNL     1       1.235  11.681  19.846  0.00  0.00    +0.000 A 
ATOM     10  C   UNL     1       0.763  12.953  19.505  0.00  0.00    +0.000 A 
ATOM     11  F   UNL     1       1.442  14.035  19.909  0.00  0.00    +0.000 F 
ATOM     12  C   UNL     1      -0.386  13.114  18.749  0.00  0.00    +0.000 A 
ATOM     13  C   UNL     1      -1.097  11.981  18.369  0.00  0.00    +0.000 A 
ATOM     14  C   UNL     1      -0.665  10.712  18.768  0.00  0.00    +0.000 A 
ATOM     15  F   UNL     1      -1.504   9.703  18.521  0.00  0.00    +0.000 F 
ENDBRANCH   7   8
BRANCH   4  16
ATOM     16  C   UNL     1       2.878   6.045  19.291  0.00  0.00    +0.000 C 
ATOM     17  O   UNL     1       3.941   5.755  19.855  0.00  0.00    +0.000 OA
BRANCH  16  18
ATOM     18  C   UNL     1       2.458   5.307  18.025  0.00  0.00    +0.000 C 
BRANCH  18  19
ATOM     19  S   UNL     1       3.599   3.965  17.580  0.00  0.00    +0.000 S 
BRANCH  19  20
ATOM     20  C   UNL     1       4.775   4.854  16.651  0.00  0.00    +0.000 A 
ATOM     21  N   UNL     1       4.666   6.173  16.460  0.00  0.00    +0.000 NA
ATOM     22  N   UNL     1       5.749   6.416  15.705  0.00  0.00    +0.000 N 
ATOM     23  C   UNL     1       6.443   5.265  15.449  0.00  0.00    +0.000 A 
ATOM     24  N   UNL     1       7.548   5.227  14.697  0.00  0.00    +0.000 N 
ATOM     25  N   UNL     1       5.840   4.262  16.031  0.00  0.00    +0.000 NA
ATOM     26  H   UNL     1       5.945   7.359  15.396  0.00  0.00    +0.000 HD
ATOM     27  H   UNL     1       8.045   6.040  14.358  0.00  0.00    +0.000 HD
ATOM     28  H   UNL     1       8.072   4.357  14.669  0.00  0.00    +0.000 HD
ENDBRANCH  19  20
ENDBRANCH  18  19
ENDBRANCH  16  18
ENDBRANCH   4  16
TORSDOF 5
ENDMDL
MODEL 3
REMARK VINA RESULT:      -7.5      5.308      7.846
REMARK  Name = 
REMARK  7 active torsions:
REMARK  status: ('A' for Active; 'I' for Inactive)
REMARK    1  A    between atoms: C_1  and  C_2
REMARK    2  A    between atoms: C_4  and  C_5
REMARK    3  A    between atoms: C_5  and  C_7
REMARK    4  A    between atoms: C_7  and  S_8
REMARK    5  A    between atoms: S_8  and  C_9
REMARK    6  A    between atoms: C_15  and  C_16
REMARK    7  A    between atoms: N_17  and  C_18
REMARK                            x       y       z     vdW  Elec       q    Type
REMARK                         _______ _______ _______ _____ _____    ______ ____
ROOT
ATOM      1  C   UNL     1       2.521   7.621  18.818  0.00  0.00    +0.000 C 
ATOM      2  C   UNL     1       3.387   6.651  18.079  0.00  0.00    +0.000 A 
ATOM      3  C   UNL     1       4.366   6.995  17.164  0.00  0.00    +0.000 A 
ATOM      4  C   UNL     1       5.051   5.835  16.754  0.00  0.00    +0.000 A 
ATOM      5  C   UNL     1       4.461   4.770  17.440  0.00  0.00    +0.000 A 
ATOM      6  C   UNL     1       4.791   3.313  17.301  0.00  0.00    +0.000 C 
ATOM      7  N   UNL     1       3.414   5.262  18.256  0.00  0.00    +0.000 N 
ENDROOT
BRANCH   7   8
ATOM      8  C   UNL     1       2.571   4.486  19.129  0.00  0.00    +0.000 A 
ATOM      9  C   UNL     1       2.900   4.317  20.481  0.00  0.00    +0.000 A 
ATOM     10  C   UNL     1       2.091   3.552  21.329  0.00  0.00    +0.000 A 
ATOM     11  F   UNL     1       2.466   3.366  22.601  0.00  0.00    +0.000 F 
ATOM     12  C   UNL     1       0.905   2.995  20.880  0.00  0.00    +0.000 A 
ATOM     13  C   UNL     1       0.550   3.169  19.547  0.00  0.00    +0.000 A 
ATOM     14  C   UNL     1       1.392   3.874  18.681  0.00  0.00    +0.000 A 
ATOM     15  F   UNL     1       1.069   3.831  17.386  0.00  0.00    +0.000 F 
ENDBRANCH   7   8
BRANCH   4  16
ATOM     16  C   UNL     1       6.160   5.737  15.776  0.00  0.00    +0.000 C 
ATOM     17  O   UNL     1       7.324   5.999  16.105  0.00  0.00    +0.000 OA
BRANCH  16  18
ATOM     18  C   UNL     1       5.830   5.419  14.322  0.00  0.00    +0.000 C 
BRANCH  18  19
ATOM     19  S   UNL     1       7.023   4.278  13.562  0.00  0.00    +0.000 S 
BRANCH  19  20
ATOM     20  C   UNL     1       5.974   3.425  12.461  0.00  0.00    +0.000 A 
ATOM     21  N   UNL     1       6.302   2.226  11.968  0.00  0.00    +0.000 NA
ATOM     22  N   UNL     1       5.242   1.969  11.186  0.00  0.00    +0.000 N 
ATOM     23  C   UNL     1       4.346   3.003  11.210  0.00  0.00    +0.000 A 
ATOM     24  N   UNL     1       3.216   3.010  10.496  0.00  0.00    +0.000 N 
ATOM     25  N   UNL     1       4.793   3.940  12.004  0.00  0.00    +0.000 NA
ATOM     26  H   UNL     1       5.197   1.102  10.668  0.00  0.00    +0.000 HD
ATOM     27  H   UNL     1       2.851   2.220   9.981  0.00  0.00    +0.000 HD
ATOM     28  H   UNL     1       2.547   3.755  10.675  0.00  0.00    +0.000 HD
ENDBRANCH  19  20
ENDBRANCH  18  19
ENDBRANCH  16  18
ENDBRANCH   4  16
TORSDOF 5
ENDMDL
MODEL 4
REMARK VINA RESULT:      -7.5      4.265      8.038
REMARK  Name = 
REMARK  7 active torsions:
REMARK  status: ('A' for Active; 'I' for Inactive)
REMARK    1  A    between atoms: C_1  and  C_2
REMARK    2  A    between atoms: C_4  and  C_5
REMARK    3  A    between atoms: C_5  and  C_7
REMARK    4  A    between atoms: C_7  and  S_8
REMARK    5  A    between atoms: S_8  and  C_9
REMARK    6  A    between atoms: C_15  and  C_16
REMARK    7  A    between atoms: N_17  and  C_18
REMARK                            x       y       z     vdW  Elec       q    Type
REMARK                         _______ _______ _______ _____ _____    ______ ____
ROOT
ATOM      1  C   UNL     1       0.038   9.436  22.264  0.00  0.00    +0.000 C 
ATOM      2  C   UNL     1       0.806   8.935  21.081  0.00  0.00    +0.000 A 
ATOM      3  C   UNL     1       1.359   7.672  20.968  0.00  0.00    +0.000 A 
ATOM      4  C   UNL     1       1.907   7.516  19.681  0.00  0.00    +0.000 A 
ATOM      5  C   UNL     1       1.680   8.721  19.010  0.00  0.00    +0.000 A 
ATOM      6  C   UNL     1       2.132   9.083  17.626  0.00  0.00    +0.000 C 
ATOM      7  N   UNL     1       1.008   9.617  19.875  0.00  0.00    +0.000 N 
ENDROOT
BRANCH   7   8
ATOM      8  C   UNL     1       0.581  10.957  19.558  0.00  0.00    +0.000 A 
ATOM      9  C   UNL     1       1.390  12.060  19.865  0.00  0.00    +0.000 A 
ATOM     10  C   UNL     1       0.972  13.362  19.571  0.00  0.00    +0.000 A 
ATOM     11  F   UNL     1       1.745  14.396  19.930  0.00  0.00    +0.000 F 
ATOM     12  C   UNL     1      -0.218  13.602  18.906  0.00  0.00    +0.000 A 
ATOM     13  C   UNL     1      -1.025  12.519  18.573  0.00  0.00    +0.000 A 
ATOM     14  C   UNL     1      -0.643  11.222  18.928  0.00  0.00    +0.000 A 
ATOM     15  F   UNL     1      -1.559  10.269  18.739  0.00  0.00    +0.000 F 
ENDBRANCH   7   8
BRANCH   4  16
ATOM     16  C   UNL     1       2.611   6.331  19.134  0.00  0.00    +0.000 C 
ATOM     17  O   UNL     1       2.444   5.978  17.960  0.00  0.00    +0.000 OA
BRANCH  16  18
ATOM     18  C   UNL     1       3.457   5.481  20.076  0.00  0.00    +0.000 C 
BRANCH  18  19
ATOM     19  S   UNL     1       4.460   4.246  19.200  0.00  0.00    +0.000 S 
BRANCH  19  20
ATOM     20  C   UNL     1       5.864   5.205  18.815  0.00  0.00    +0.000 A 
ATOM     21  N   UNL     1       6.886   5.325  19.667  0.00  0.00    +0.000 NA
ATOM     22  N   UNL     1       7.704   6.135  18.978  0.00  0.00    +0.000 N 
ATOM     23  C   UNL     1       7.154   6.491  17.777  0.00  0.00    +0.000 A 
ATOM     24  N   UNL     1       7.753   7.314  16.911  0.00  0.00    +0.000 N 
ATOM     25  N   UNL     1       5.984   5.921  17.656  0.00  0.00    +0.000 NA
ATOM     26  H   UNL     1       8.592   6.411  19.376  0.00  0.00    +0.000 HD
ATOM     27  H   UNL     1       8.705   7.645  16.991  0.00  0.00    +0.000 HD
ATOM     28  H   UNL     1       7.336   7.418  15.989  0.00  0.00    +0.000 HD
ENDBRANCH  19  20
ENDBRANCH  18  19
ENDBRANCH  16  18
ENDBRANCH   4  16
TORSDOF 5
ENDMDL
MODEL 5
REMARK VINA RESULT:      -7.5      4.181      8.209
REMARK  Name = 
REMARK  7 active torsions:
REMARK  status: ('A' for Active; 'I' for Inactive)
REMARK    1  A    between atoms: C_1  and  C_2
REMARK    2  A    between atoms: C_4  and  C_5
REMARK    3  A    between atoms: C_5  and  C_7
REMARK    4  A    between atoms: C_7  and  S_8
REMARK    5  A    between atoms: S_8  and  C_9
REMARK    6  A    between atoms: C_15  and  C_16
REMARK    7  A    between atoms: N_17  and  C_18
REMARK                            x       y       z     vdW  Elec       q    Type
REMARK                         _______ _______ _______ _____ _____    ______ ____
ROOT
ATOM      1  C   UNL     1       0.052   9.209  22.502  0.00  0.00    +0.000 C 
ATOM      2  C   UNL     1       0.806   8.893  21.249  0.00  0.00    +0.000 A 
ATOM      3  C   UNL     1       1.502   7.721  21.013  0.00  0.00    +0.000 A 
ATOM      4  C   UNL     1       1.990   7.726  19.692  0.00  0.00    +0.000 A 
ATOM      5  C   UNL     1       1.578   8.935  19.127  0.00  0.00    +0.000 A 
ATOM      6  C   UNL     1       1.902   9.447  17.754  0.00  0.00    +0.000 C 
ATOM      7  N   UNL     1       0.853   9.677  20.090  0.00  0.00    +0.000 N 
ENDROOT
BRANCH   7   8
ATOM      8  C   UNL     1       0.248  10.971  19.896  0.00  0.00    +0.000 A 
ATOM      9  C   UNL     1       0.887  12.136  20.342  0.00  0.00    +0.000 A 
ATOM     10  C   UNL     1       0.295  13.392  20.169  0.00  0.00    +0.000 A 
ATOM     11  F   UNL     1       0.907  14.479  20.657  0.00  0.00    +0.000 F 
ATOM     12  C   UNL     1      -0.905  13.534  19.492  0.00  0.00    +0.000 A 
ATOM     13  C   UNL     1      -1.543  12.392  19.023  0.00  0.00    +0.000 A 
ATOM     14  C   UNL     1      -0.990  11.129  19.257  0.00  0.00    +0.000 A 
ATOM     15  F   UNL     1      -1.758  10.084  18.940  0.00  0.00    +0.000 F 
ENDBRANCH   7   8
BRANCH   4  16
ATOM     16  C   UNL     1       2.801   6.680  19.023  0.00  0.00    +0.000 C 
ATOM     17  O   UNL     1       3.080   6.764  17.821  0.00  0.00    +0.000 OA
BRANCH  16  18
ATOM     18  C   UNL     1       3.190   5.435  19.813  0.00  0.00    +0.000 C 
BRANCH  18  19
ATOM     19  S   UNL     1       3.389   3.967  18.762  0.00  0.00    +0.000 S 
BRANCH  19  20
ATOM     20  C   UNL     1       5.040   4.180  18.245  0.00  0.00    +0.000 A 
ATOM     21  N   UNL     1       6.050   4.210  19.120  0.00  0.00    +0.000 NA
ATOM     22  N   UNL     1       7.097   4.397  18.301  0.00  0.00    +0.000 N 
ATOM     23  C   UNL     1       6.694   4.500  16.998  0.00  0.00    +0.000 A 
ATOM     24  N   UNL     1       7.539   4.717  15.984  0.00  0.00    +0.000 N 
ATOM     25  N   UNL     1       5.395   4.374  16.939  0.00  0.00    +0.000 NA
ATOM     26  H   UNL     1       8.031   4.458  18.684  0.00  0.00    +0.000 HD
ATOM     27  H   UNL     1       8.547   4.697  16.057  0.00  0.00    +0.000 HD
ATOM     28  H   UNL     1       7.173   4.646  15.038  0.00  0.00    +0.000 HD
ENDBRANCH  19  20
ENDBRANCH  18  19
ENDBRANCH  16  18
ENDBRANCH   4  16
TORSDOF 5
ENDMDL
MODEL 6
REMARK VINA RESULT:      -7.4      1.764      2.607
REMARK  Name = 
REMARK  7 active torsions:
REMARK  status: ('A' for Active; 'I' for Inactive)
REMARK    1  A    between atoms: C_1  and  C_2
REMARK    2  A    between atoms: C_4  and  C_5
REMARK    3  A    between atoms: C_5  and  C_7
REMARK    4  A    between atoms: C_7  and  S_8
REMARK    5  A    between atoms: S_8  and  C_9
REMARK    6  A    between atoms: C_15  and  C_16
REMARK    7  A    between atoms: N_17  and  C_18
REMARK                            x       y       z     vdW  Elec       q    Type
REMARK                         _______ _______ _______ _____ _____    ______ ____
ROOT
ATOM      1  C   UNL     1       4.870   6.021  16.600  0.00  0.00    +0.000 C 
ATOM      2  C   UNL     1       3.870   6.396  17.648  0.00  0.00    +0.000 A 
ATOM      3  C   UNL     1       3.362   7.667  17.846  0.00  0.00    +0.000 A 
ATOM      4  C   UNL     1       2.366   7.623  18.840  0.00  0.00    +0.000 A 
ATOM      5  C   UNL     1       2.281   6.290  19.249  0.00  0.00    +0.000 A 
ATOM      6  C   UNL     1       1.410   5.733  20.337  0.00  0.00    +0.000 C 
ATOM      7  N   UNL     1       3.221   5.518  18.526  0.00  0.00    +0.000 N 
ENDROOT
BRANCH   7   8
ATOM      8  C   UNL     1       3.437   4.098  18.644  0.00  0.00    +0.000 A 
ATOM      9  C   UNL     1       4.169   3.570  19.717  0.00  0.00    +0.000 A 
ATOM     10  C   UNL     1       4.392   2.193  19.827  0.00  0.00    +0.000 A 
ATOM     11  F   UNL     1       5.144   1.730  20.835  0.00  0.00    +0.000 F 
ATOM     12  C   UNL     1       3.842   1.301  18.922  0.00  0.00    +0.000 A 
ATOM     13  C   UNL     1       3.095   1.804  17.863  0.00  0.00    +0.000 A 
ATOM     14  C   UNL     1       2.929   3.184  17.710  0.00  0.00    +0.000 A 
ATOM     15  F   UNL     1       2.361   3.584  16.570  0.00  0.00    +0.000 F 
ENDBRANCH   7   8
BRANCH   4  16
ATOM     16  C   UNL     1       1.572   8.754  19.377  0.00  0.00    +0.000 C 
ATOM     17  O   UNL     1       1.435   8.912  20.597  0.00  0.00    +0.000 OA
BRANCH  16  18
ATOM     18  C   UNL     1       0.828   9.657  18.400  0.00  0.00    +0.000 C 
BRANCH  18  19
ATOM     19  S   UNL     1      -0.274  10.839  19.233  0.00  0.00    +0.000 S 
BRANCH  19  20
ATOM     20  C   UNL     1      -1.607  10.860  18.110  0.00  0.00    +0.000 A 
ATOM     21  N   UNL     1      -1.629  10.071  17.032  0.00  0.00    +0.000 NA
ATOM     22  N   UNL     1      -2.798  10.424  16.476  0.00  0.00    +0.000 N 
ATOM     23  C   UNL     1      -3.415  11.407  17.200  0.00  0.00    +0.000 A 
ATOM     24  N   UNL     1      -4.582  11.956  16.847  0.00  0.00    +0.000 N 
ATOM     25  N   UNL     1      -2.675  11.705  18.235  0.00  0.00    +0.000 NA
ATOM     26  H   UNL     1      -3.103   9.979  15.620  0.00  0.00    +0.000 HD
ATOM     27  H   UNL     1      -5.177  11.620  16.102  0.00  0.00    +0.000 HD
ATOM     28  H   UNL     1      -5.031  12.581  17.510  0.00  0.00    +0.000 HD
ENDBRANCH  19  20
ENDBRANCH  18  19
ENDBRANCH  16  18
ENDBRANCH   4  16
TORSDOF 5
ENDMDL
MODEL 7
REMARK VINA RESULT:      -7.4      5.119      8.102
REMARK  Name = 
REMARK  7 active torsions:
REMARK  status: ('A' for Active; 'I' for Inactive)
REMARK    1  A    between atoms: C_1  and  C_2
REMARK    2  A    between atoms: C_4  and  C_5
REMARK    3  A    between atoms: C_5  and  C_7
REMARK    4  A    between atoms: C_7  and  S_8
REMARK    5  A    between atoms: S_8  and  C_9
REMARK    6  A    between atoms: C_15  and  C_16
REMARK    7  A    between atoms: N_17  and  C_18
REMARK                            x       y       z     vdW  Elec       q    Type
REMARK                         _______ _______ _______ _____ _____    ______ ____
ROOT
ATOM      1  C   UNL     1       2.356   7.688  18.351  0.00  0.00    +0.000 C 
ATOM      2  C   UNL     1       3.467   6.772  17.945  0.00  0.00    +0.000 A 
ATOM      3  C   UNL     1       4.577   7.145  17.208  0.00  0.00    +0.000 A 
ATOM      4  C   UNL     1       5.462   6.054  17.112  0.00  0.00    +0.000 A 
ATOM      5  C   UNL     1       4.861   5.001  17.806  0.00  0.00    +0.000 A 
ATOM      6  C   UNL     1       5.377   3.598  17.942  0.00  0.00    +0.000 C 
ATOM      7  N   UNL     1       3.613   5.430  18.317  0.00  0.00    +0.000 N 
ENDROOT
BRANCH   7   8
ATOM      8  C   UNL     1       2.693   4.646  19.102  0.00  0.00    +0.000 A 
ATOM      9  C   UNL     1       2.882   4.487  20.482  0.00  0.00    +0.000 A 
ATOM     10  C   UNL     1       1.998   3.714  21.244  0.00  0.00    +0.000 A 
ATOM     11  F   UNL     1       2.241   3.538  22.550  0.00  0.00    +0.000 F 
ATOM     12  C   UNL     1       0.873   3.141  20.678  0.00  0.00    +0.000 A 
ATOM     13  C   UNL     1       0.656   3.305  19.315  0.00  0.00    +0.000 A 
ATOM     14  C   UNL     1       1.575   4.017  18.536  0.00  0.00    +0.000 A 
ATOM     15  F   UNL     1       1.388   3.966  17.215  0.00  0.00    +0.000 F 
ENDBRANCH   7   8
BRANCH   4  16
ATOM     16  C   UNL     1       6.762   6.003  16.401  0.00  0.00    +0.000 C 
ATOM     17  O   UNL     1       7.643   6.843  16.626  0.00  0.00    +0.000 OA
BRANCH  16  18
ATOM     18  C   UNL     1       6.957   4.966  15.301  0.00  0.00    +0.000 C 
BRANCH  18  19
ATOM     19  S   UNL     1       5.493   4.780  14.241  0.00  0.00    +0.000 S 
BRANCH  19  20
ATOM     20  C   UNL     1       6.147   3.759  12.988  0.00  0.00    +0.000 A 
ATOM     21  N   UNL     1       7.182   4.148  12.237  0.00  0.00    +0.000 NA
ATOM     22  N   UNL     1       7.328   3.087  11.428  0.00  0.00    +0.000 N 
ATOM     23  C   UNL     1       6.386   2.130  11.691  0.00  0.00    +0.000 A 
ATOM     24  N   UNL     1       6.294   0.984  11.008  0.00  0.00    +0.000 N 
ATOM     25  N   UNL     1       5.621   2.538  12.670  0.00  0.00    +0.000 NA
ATOM     26  H   UNL     1       8.059   3.083  10.730  0.00  0.00    +0.000 HD
ATOM     27  H   UNL     1       6.972   0.657  10.334  0.00  0.00    +0.000 HD
ATOM     28  H   UNL     1       5.653   0.275  11.356  0.00  0.00    +0.000 HD
ENDBRANCH  19  20
ENDBRANCH  18  19
ENDBRANCH  16  18
ENDBRANCH   4  16
TORSDOF 5
ENDMDL
MODEL 8
REMARK VINA RESULT:      -7.3      0.792      1.071
REMARK  Name = 
REMARK  7 active torsions:
REMARK  status: ('A' for Active; 'I' for Inactive)
REMARK    1  A    between atoms: C_1  and  C_2
REMARK    2  A    between atoms: C_4  and  C_5
REMARK    3  A    between atoms: C_5  and  C_7
REMARK    4  A    between atoms: C_7  and  S_8
REMARK    5  A    between atoms: S_8  and  C_9
REMARK    6  A    between atoms: C_15  and  C_16
REMARK    7  A    between atoms: N_17  and  C_18
REMARK                            x       y       z     vdW  Elec       q    Type
REMARK                         _______ _______ _______ _____ _____    ______ ____
ROOT
ATOM      1  C   UNL     1       2.140   4.654  21.117  0.00  0.00    +0.000 C 
ATOM      2  C   UNL     1       1.979   5.980  20.442  0.00  0.00    +0.000 A 
ATOM      3  C   UNL     1       1.292   7.061  20.964  0.00  0.00    +0.000 A 
ATOM      4  C   UNL     1       1.444   8.168  20.108  0.00  0.00    +0.000 A 
ATOM      5  C   UNL     1       2.239   7.734  19.044  0.00  0.00    +0.000 A 
ATOM      6  C   UNL     1       2.636   8.525  17.832  0.00  0.00    +0.000 C 
ATOM      7  N   UNL     1       2.567   6.370  19.232  0.00  0.00    +0.000 N 
ENDROOT
BRANCH   7   8
ATOM      8  C   UNL     1       3.381   5.557  18.365  0.00  0.00    +0.000 A 
ATOM      9  C   UNL     1       4.775   5.702  18.346  0.00  0.00    +0.000 A 
ATOM     10  C   UNL     1       5.568   4.924  17.494  0.00  0.00    +0.000 A 
ATOM     11  F   UNL     1       6.891   5.129  17.461  0.00  0.00    +0.000 F 
ATOM     12  C   UNL     1       5.012   3.939  16.695  0.00  0.00    +0.000 A 
ATOM     13  C   UNL     1       3.632   3.765  16.716  0.00  0.00    +0.000 A 
ATOM     14  C   UNL     1       2.831   4.589  17.513  0.00  0.00    +0.000 A 
ATOM     15  F   UNL     1       1.513   4.478  17.331  0.00  0.00    +0.000 F 
ENDBRANCH   7   8
BRANCH   4  16
ATOM     16  C   UNL     1       0.866   9.524  20.270  0.00  0.00    +0.000 C 
ATOM     17  O   UNL     1       1.023  10.161  21.320  0.00  0.00    +0.000 OA
BRANCH  16  18
ATOM     18  C   UNL     1      -0.027  10.077  19.166  0.00  0.00    +0.000 C 
BRANCH  18  19
ATOM     19  S   UNL     1      -1.134  11.395  19.748  0.00  0.00    +0.000 S 
BRANCH  19  20
ATOM     20  C   UNL     1      -2.257  11.466  18.417  0.00  0.00    +0.000 A 
ATOM     21  N   UNL     1      -1.853  11.744  17.174  0.00  0.00    +0.000 NA
ATOM     22  N   UNL     1      -3.018  11.703  16.508  0.00  0.00    +0.000 N 
ATOM     23  C   UNL     1      -4.062  11.436  17.350  0.00  0.00    +0.000 A 
ATOM     24  N   UNL     1      -5.333  11.366  16.944  0.00  0.00    +0.000 N 
ATOM     25  N   UNL     1      -3.605  11.290  18.566  0.00  0.00    +0.000 NA
ATOM     26  H   UNL     1      -3.034  11.874  15.511  0.00  0.00    +0.000 HD
ATOM     27  H   UNL     1      -5.633  11.374  15.978  0.00  0.00    +0.000 HD
ATOM     28  H   UNL     1      -6.026  11.033  17.609  0.00  0.00    +0.000 HD
ENDBRANCH  19  20
ENDBRANCH  18  19
ENDBRANCH  16  18
ENDBRANCH   4  16
TORSDOF 5
ENDMDL
MODEL 9
REMARK VINA RESULT:      -7.3      4.136      7.925
REMARK  Name = 
REMARK  7 active torsions:
REMARK  status: ('A' for Active; 'I' for Inactive)
REMARK    1  A    between atoms: C_1  and  C_2
REMARK    2  A    between atoms: C_4  and  C_5
REMARK    3  A    between atoms: C_5  and  C_7
REMARK    4  A    between atoms: C_7  and  S_8
REMARK    5  A    between atoms: S_8  and  C_9
REMARK    6  A    between atoms: C_15  and  C_16
REMARK    7  A    between atoms: N_17  and  C_18
REMARK                            x       y       z     vdW  Elec       q    Type
REMARK                         _______ _______ _______ _____ _____    ______ ____
ROOT
ATOM      1  C   UNL     1      -0.220   8.849  22.220  0.00  0.00    +0.000 C 
ATOM      2  C   UNL     1       0.694   8.519  21.083  0.00  0.00    +0.000 A 
ATOM      3  C   UNL     1       1.377   7.325  20.931  0.00  0.00    +0.000 A 
ATOM      4  C   UNL     1       2.049   7.326  19.693  0.00  0.00    +0.000 A 
ATOM      5  C   UNL     1       1.762   8.555  19.093  0.00  0.00    +0.000 A 
ATOM      6  C   UNL     1       2.295   9.069  17.788  0.00  0.00    +0.000 C 
ATOM      7  N   UNL     1       0.933   9.312  19.954  0.00  0.00    +0.000 N 
ENDROOT
BRANCH   7   8
ATOM      8  C   UNL     1       0.404  10.629  19.696  0.00  0.00    +0.000 A 
ATOM      9  C   UNL     1       1.065  11.772  20.164  0.00  0.00    +0.000 A 
ATOM     10  C   UNL     1       0.547  13.050  19.928  0.00  0.00    +0.000 A 
ATOM     11  F   UNL     1       1.176  14.117  20.439  0.00  0.00    +0.000 F 
ATOM     12  C   UNL     1      -0.594  13.233  19.166  0.00  0.00    +0.000 A 
ATOM     13  C   UNL     1      -1.253  12.112  18.674  0.00  0.00    +0.000 A 
ATOM     14  C   UNL     1      -0.777  10.830  18.968  0.00  0.00    +0.000 A 
ATOM     15  F   UNL     1      -1.570   9.815  18.617  0.00  0.00    +0.000 F 
ENDBRANCH   7   8
BRANCH   4  16
ATOM     16  C   UNL     1       2.912   6.260  19.131  0.00  0.00    +0.000 C 
ATOM     17  O   UNL     1       4.030   6.029  19.607  0.00  0.00    +0.000 OA
BRANCH  16  18
ATOM     18  C   UNL     1       2.448   5.525  17.878  0.00  0.00    +0.000 C 
BRANCH  18  19
ATOM     19  S   UNL     1       1.429   4.068  18.251  0.00  0.00    +0.000 S 
BRANCH  19  20
ATOM     20  C   UNL     1       2.452   3.266  19.412  0.00  0.00    +0.000 A 
ATOM     21  N   UNL     1       2.120   3.192  20.705  0.00  0.00    +0.000 NA
ATOM     22  N   UNL     1       3.170   2.519  21.203  0.00  0.00    +0.000 N 
ATOM     23  C   UNL     1       4.089   2.242  20.228  0.00  0.00    +0.000 A 
ATOM     24  N   UNL     1       5.239   1.603  20.465  0.00  0.00    +0.000 N 
ATOM     25  N   UNL     1       3.659   2.712  19.087  0.00  0.00    +0.000 NA
ATOM     26  H   UNL     1       3.205   2.300  22.190  0.00  0.00    +0.000 HD
ATOM     27  H   UNL     1       5.484   1.157  21.339  0.00  0.00    +0.000 HD
ATOM     28  H   UNL     1       5.799   1.321  19.665  0.00  0.00    +0.000 HD
ENDBRANCH  19  20
ENDBRANCH  18  19
ENDBRANCH  16  18
ENDBRANCH   4  16
TORSDOF 5
ENDMDL
