MODEL 1
REMARK VINA RESULT:      -7.9      0.000      0.000
REMARK  Name = 
REMARK  9 active torsions:
REMARK  status: ('A' for Active; 'I' for Inactive)
REMARK    1  A    between atoms: C_1  and  C_2
REMARK    2  A    between atoms: C_2  and  O_3
REMARK    3  A    between atoms: O_3  and  C_4
REMARK    4  A    between atoms: C_4  and  C_5
REMARK    5  A    between atoms: C_4  and  C_23
REMARK    6  A    between atoms: C_5  and  C_6
REMARK    7  A    between atoms: C_10  and  C_11
REMARK    8  A    between atoms: C_14  and  C_15
REMARK    9  A    between atoms: C_23  and  O_25
REMARK                            x       y       z     vdW  Elec       q    Type
REMARK                         _______ _______ _______ _____ _____    ______ ____
ROOT
ATOM      1  C   UNL     1       2.475   5.837  19.691  0.00  0.00    +0.000 A 
ATOM      2  C   UNL     1       1.952   7.090  19.344  0.00  0.00    +0.000 A 
ATOM      3  C   UNL     1       2.567   7.884  18.380  0.00  0.00    +0.000 A 
ATOM      4  C   UNL     1       3.687   7.422  17.708  0.00  0.00    +0.000 A 
ATOM      5  C   UNL     1       4.183   6.144  17.976  0.00  0.00    +0.000 A 
ATOM      6  C   UNL     1       3.580   5.360  18.969  0.00  0.00    +0.000 A 
ENDROOT
BRANCH   5   7
ATOM      7  C   UNL     1       5.313   5.603  17.192  0.00  0.00    +0.000 C 
ATOM      8  N   UNL     1       6.056   4.624  17.586  0.00  0.00    +0.000 NA
ATOM      9  O   UNL     1       6.973   4.335  16.551  0.00  0.00    +0.000 OA
ATOM     10  C   UNL     1       6.865   5.339  15.527  0.00  0.00    +0.000 C 
ATOM     11  C   UNL     1       5.625   6.140  15.842  0.00  0.00    +0.000 C 
BRANCH  10  12
ATOM     12  C   UNL     1       6.793   4.724  14.146  0.00  0.00    +0.000 A 
ATOM     13  C   UNL     1       5.823   3.763  13.822  0.00  0.00    +0.000 A 
ATOM     14  C   UNL     1       5.758   3.222  12.538  0.00  0.00    +0.000 A 
ATOM     15  C   UNL     1       6.653   3.644  11.558  0.00  0.00    +0.000 A 
ATOM     16  C   UNL     1       7.606   4.615  11.856  0.00  0.00    +0.000 A 
ATOM     17  C   UNL     1       7.674   5.157  13.141  0.00  0.00    +0.000 A 
ENDBRANCH  10  12
ENDBRANCH   5   7
BRANCH   1  18
ATOM     18  C   UNL     1       1.877   4.964  20.780  0.00  0.00    +0.000 C 
BRANCH  18  19
ATOM     19  C   UNL     1       1.773   3.451  20.496  0.00  0.00    +0.000 C 
BRANCH  19  20
ATOM     20  C   UNL     1       1.945   2.674  21.810  0.00  0.00    +0.000 C 
ATOM     21  O   UNL     1       1.057   2.481  22.627  0.00  0.00    +0.000 OA
BRANCH  20  22
ATOM     22  O   UNL     1       3.210   2.213  21.969  0.00  0.00    +0.000 OA
ATOM     23  H   UNL     1       3.716   2.438  21.155  0.00  0.00    +0.000 HD
ENDBRANCH  20  22
ENDBRANCH  19  20
BRANCH  19  24
ATOM     24  O   UNL     1       0.539   3.032  19.873  0.00  0.00    +0.000 OA
BRANCH  24  26
ATOM     25  C   UNL     1       2.192   2.092  18.409  0.00  0.00    +0.000 C 
ATOM     26  C   UNL     1       0.720   2.432  18.588  0.00  0.00    +0.000 C 
ENDBRANCH  24  26
ENDBRANCH  19  24
ENDBRANCH  18  19
ENDBRANCH   1  18
TORSDOF 8
ENDMDL
MODEL 2
REMARK VINA RESULT:      -7.8      3.368      7.649
REMARK  Name = 
REMARK  9 active torsions:
REMARK  status: ('A' for Active; 'I' for Inactive)
REMARK    1  A    between atoms: C_1  and  C_2
REMARK    2  A    between atoms: C_2  and  O_3
REMARK    3  A    between atoms: O_3  and  C_4
REMARK    4  A    between atoms: C_4  and  C_5
REMARK    5  A    between atoms: C_4  and  C_23
REMARK    6  A    between atoms: C_5  and  C_6
REMARK    7  A    between atoms: C_10  and  C_11
REMARK    8  A    between atoms: C_14  and  C_15
REMARK    9  A    between atoms: C_23  and  O_25
REMARK                            x       y       z     vdW  Elec       q    Type
REMARK                         _______ _______ _______ _____ _____    ______ ____
ROOT
ATOM      1  C   UNL     1       3.880   4.555  19.389  0.00  0.00    +0.000 A 
ATOM      2  C   UNL     1       3.054   3.988  20.368  0.00  0.00    +0.000 A 
ATOM      3  C   UNL     1       2.006   4.711  20.931  0.00  0.00    +0.000 A 
ATOM      4  C   UNL     1       1.732   5.997  20.493  0.00  0.00    +0.000 A 
ATOM      5  C   UNL     1       2.490   6.558  19.463  0.00  0.00    +0.000 A 
ATOM      6  C   UNL     1       3.563   5.838  18.919  0.00  0.00    +0.000 A 
ENDROOT
BRANCH   5   7
ATOM      7  C   UNL     1       2.140   7.887  18.918  0.00  0.00    +0.000 C 
ATOM      8  N   UNL     1       2.493   8.298  17.746  0.00  0.00    +0.000 NA
ATOM      9  O   UNL     1       1.916   9.572  17.545  0.00  0.00    +0.000 OA
ATOM     10  C   UNL     1       1.306  10.016  18.769  0.00  0.00    +0.000 C 
ATOM     11  C   UNL     1       1.289   8.825  19.695  0.00  0.00    +0.000 C 
BRANCH  10  12
ATOM     12  C   UNL     1      -0.088  10.558  18.535  0.00  0.00    +0.000 A 
ATOM     13  C   UNL     1      -0.519  11.751  19.135  0.00  0.00    +0.000 A 
ATOM     14  C   UNL     1      -1.800  12.248  18.890  0.00  0.00    +0.000 A 
ATOM     15  C   UNL     1      -2.660  11.565  18.034  0.00  0.00    +0.000 A 
ATOM     16  C   UNL     1      -2.239  10.393  17.411  0.00  0.00    +0.000 A 
ATOM     17  C   UNL     1      -0.958   9.893  17.655  0.00  0.00    +0.000 A 
ENDBRANCH  10  12
ENDBRANCH   5   7
BRANCH   1  18
ATOM     18  C   UNL     1       5.073   3.829  18.793  0.00  0.00    +0.000 C 
BRANCH  18  19
ATOM     19  C   UNL     1       5.792   4.504  17.605  0.00  0.00    +0.000 C 
BRANCH  19  20
ATOM     20  C   UNL     1       7.288   4.632  17.923  0.00  0.00    +0.000 C 
ATOM     21  O   UNL     1       8.191   4.241  17.197  0.00  0.00    +0.000 OA
BRANCH  20  22
ATOM     22  O   UNL     1       7.508   5.240  19.115  0.00  0.00    +0.000 OA
ATOM     23  H   UNL     1       8.180   4.710  19.602  0.00  0.00    +0.000 HD
ENDBRANCH  20  22
ENDBRANCH  19  20
BRANCH  19  24
ATOM     24  O   UNL     1       5.646   3.824  16.340  0.00  0.00    +0.000 OA
BRANCH  24  26
ATOM     25  C   UNL     1       6.406   4.355  14.126  0.00  0.00    +0.000 C 
ATOM     26  C   UNL     1       5.427   4.706  15.236  0.00  0.00    +0.000 C 
ENDBRANCH  24  26
ENDBRANCH  19  24
ENDBRANCH  18  19
ENDBRANCH   1  18
TORSDOF 8
ENDMDL
MODEL 3
REMARK VINA RESULT:      -7.7      3.490      7.753
REMARK  Name = 
REMARK  9 active torsions:
REMARK  status: ('A' for Active; 'I' for Inactive)
REMARK    1  A    between atoms: C_1  and  C_2
REMARK    2  A    between atoms: C_2  and  O_3
REMARK    3  A    between atoms: O_3  and  C_4
REMARK    4  A    between atoms: C_4  and  C_5
REMARK    5  A    between atoms: C_4  and  C_23
REMARK    6  A    between atoms: C_5  and  C_6
REMARK    7  A    between atoms: C_10  and  C_11
REMARK    8  A    between atoms: C_14  and  C_15
REMARK    9  A    between atoms: C_23  and  O_25
REMARK                            x       y       z     vdW  Elec       q    Type
REMARK                         _______ _______ _______ _____ _____    ______ ____
ROOT
ATOM      1  C   UNL     1       4.429   4.829  19.236  0.00  0.00    +0.000 A 
ATOM      2  C   UNL     1       3.508   3.996  19.883  0.00  0.00    +0.000 A 
ATOM      3  C   UNL     1       2.240   4.457  20.226  0.00  0.00    +0.000 A 
ATOM      4  C   UNL     1       1.849   5.742  19.887  0.00  0.00    +0.000 A 
ATOM      5  C   UNL     1       2.719   6.568  19.171  0.00  0.00    +0.000 A 
ATOM      6  C   UNL     1       4.006   6.112  18.853  0.00  0.00    +0.000 A 
ENDROOT
BRANCH   5   7
ATOM      7  C   UNL     1       2.274   7.901  18.714  0.00  0.00    +0.000 C 
ATOM      8  N   UNL     1       2.547   8.389  17.550  0.00  0.00    +0.000 NA
ATOM      9  O   UNL     1       1.895   9.638  17.443  0.00  0.00    +0.000 OA
ATOM     10  C   UNL     1       1.326   9.987  18.717  0.00  0.00    +0.000 C 
ATOM     11  C   UNL     1       1.417   8.753  19.579  0.00  0.00    +0.000 C 
BRANCH  10  12
ATOM     12  C   UNL     1      -0.104  10.465  18.578  0.00  0.00    +0.000 A 
ATOM     13  C   UNL     1      -0.983   9.881  17.653  0.00  0.00    +0.000 A 
ATOM     14  C   UNL     1      -2.305  10.319  17.554  0.00  0.00    +0.000 A 
ATOM     15  C   UNL     1      -2.766  11.336  18.385  0.00  0.00    +0.000 A 
ATOM     16  C   UNL     1      -1.912  11.909  19.326  0.00  0.00    +0.000 A 
ATOM     17  C   UNL     1      -0.590  11.473  19.426  0.00  0.00    +0.000 A 
ENDBRANCH  10  12
ENDBRANCH   5   7
BRANCH   1  18
ATOM     18  C   UNL     1       5.844   4.393  18.899  0.00  0.00    +0.000 C 
BRANCH  18  19
ATOM     19  C   UNL     1       6.698   5.355  18.046  0.00  0.00    +0.000 C 
BRANCH  19  20
ATOM     20  C   UNL     1       7.672   6.115  18.958  0.00  0.00    +0.000 C 
ATOM     21  O   UNL     1       8.272   7.132  18.643  0.00  0.00    +0.000 OA
BRANCH  20  22
ATOM     22  O   UNL     1       7.798   5.528  20.174  0.00  0.00    +0.000 OA
ATOM     23  H   UNL     1       8.373   6.105  20.727  0.00  0.00    +0.000 HD
ENDBRANCH  20  22
ENDBRANCH  19  20
BRANCH  19  24
ATOM     24  O   UNL     1       7.453   4.724  16.990  0.00  0.00    +0.000 OA
BRANCH  24  26
ATOM     25  C   UNL     1       6.232   3.853  15.117  0.00  0.00    +0.000 C 
ATOM     26  C   UNL     1       6.987   5.048  15.678  0.00  0.00    +0.000 C 
ENDBRANCH  24  26
ENDBRANCH  19  24
ENDBRANCH  18  19
ENDBRANCH   1  18
TORSDOF 8
ENDMDL
MODEL 4
REMARK VINA RESULT:      -7.7      3.492      8.149
REMARK  Name = 
REMARK  9 active torsions:
REMARK  status: ('A' for Active; 'I' for Inactive)
REMARK    1  A    between atoms: C_1  and  C_2
REMARK    2  A    between atoms: C_2  and  O_3
REMARK    3  A    between atoms: O_3  and  C_4
REMARK    4  A    between atoms: C_4  and  C_5
REMARK    5  A    between atoms: C_4  and  C_23
REMARK    6  A    between atoms: C_5  and  C_6
REMARK    7  A    between atoms: C_10  and  C_11
REMARK    8  A    between atoms: C_14  and  C_15
REMARK    9  A    between atoms: C_23  and  O_25
REMARK                            x       y       z     vdW  Elec       q    Type
REMARK                         _______ _______ _______ _____ _____    ______ ____
ROOT
ATOM      1  C   UNL     1       4.323   5.915  17.015  0.00  0.00    +0.000 A 
ATOM      2  C   UNL     1       3.941   4.658  17.502  0.00  0.00    +0.000 A 
ATOM      3  C   UNL     1       2.981   4.536  18.502  0.00  0.00    +0.000 A 
ATOM      4  C   UNL     1       2.348   5.662  19.003  0.00  0.00    +0.000 A 
ATOM      5  C   UNL     1       2.652   6.922  18.481  0.00  0.00    +0.000 A 
ATOM      6  C   UNL     1       3.641   7.044  17.494  0.00  0.00    +0.000 A 
ENDROOT
BRANCH   5   7
ATOM      7  C   UNL     1       1.909   8.116  18.934  0.00  0.00    +0.000 C 
ATOM      8  N   UNL     1       1.595   8.340  20.167  0.00  0.00    +0.000 NA
ATOM      9  O   UNL     1       0.965   9.604  20.226  0.00  0.00    +0.000 OA
ATOM     10  C   UNL     1       0.746  10.089  18.891  0.00  0.00    +0.000 C 
ATOM     11  C   UNL     1       1.524   9.181  17.972  0.00  0.00    +0.000 C 
BRANCH  10  12
ATOM     12  C   UNL     1       1.178  11.533  18.743  0.00  0.00    +0.000 A 
ATOM     13  C   UNL     1       0.375  12.587  19.203  0.00  0.00    +0.000 A 
ATOM     14  C   UNL     1       0.798  13.911  19.078  0.00  0.00    +0.000 A 
ATOM     15  C   UNL     1       2.034  14.196  18.503  0.00  0.00    +0.000 A 
ATOM     16  C   UNL     1       2.854  13.158  18.063  0.00  0.00    +0.000 A 
ATOM     17  C   UNL     1       2.431  11.834  18.186  0.00  0.00    +0.000 A 
ENDBRANCH  10  12
ENDBRANCH   5   7
BRANCH   1  18
ATOM     18  C   UNL     1       5.410   6.102  15.971  0.00  0.00    +0.000 C 
BRANCH  18  19
ATOM     19  C   UNL     1       6.473   4.990  15.849  0.00  0.00    +0.000 C 
BRANCH  19  20
ATOM     20  C   UNL     1       6.835   4.793  14.370  0.00  0.00    +0.000 C 
ATOM     21  O   UNL     1       6.265   4.026  13.608  0.00  0.00    +0.000 OA
BRANCH  20  22
ATOM     22  O   UNL     1       7.875   5.577  13.990  0.00  0.00    +0.000 OA
ATOM     23  H   UNL     1       8.176   6.079  14.781  0.00  0.00    +0.000 HD
ENDBRANCH  20  22
ENDBRANCH  19  20
BRANCH  19  24
ATOM     24  O   UNL     1       7.687   5.225  16.593  0.00  0.00    +0.000 OA
BRANCH  24  26
ATOM     25  C   UNL     1       7.752   5.821  18.917  0.00  0.00    +0.000 C 
ATOM     26  C   UNL     1       7.666   4.680  17.914  0.00  0.00    +0.000 C 
ENDBRANCH  24  26
ENDBRANCH  19  24
ENDBRANCH  18  19
ENDBRANCH   1  18
TORSDOF 8
ENDMDL
MODEL 5
REMARK VINA RESULT:      -7.7      2.266      3.408
REMARK  Name = 
REMARK  9 active torsions:
REMARK  status: ('A' for Active; 'I' for Inactive)
REMARK    1  A    between atoms: C_1  and  C_2
REMARK    2  A    between atoms: C_2  and  O_3
REMARK    3  A    between atoms: O_3  and  C_4
REMARK    4  A    between atoms: C_4  and  C_5
REMARK    5  A    between atoms: C_4  and  C_23
REMARK    6  A    between atoms: C_5  and  C_6
REMARK    7  A    between atoms: C_10  and  C_11
REMARK    8  A    between atoms: C_14  and  C_15
REMARK    9  A    between atoms: C_23  and  O_25
REMARK                            x       y       z     vdW  Elec       q    Type
REMARK                         _______ _______ _______ _____ _____    ______ ____
ROOT
ATOM      1  C   UNL     1       5.490   4.490  18.809  0.00  0.00    +0.000 A 
ATOM      2  C   UNL     1       6.300   5.388  19.517  0.00  0.00    +0.000 A 
ATOM      3  C   UNL     1       7.307   6.105  18.878  0.00  0.00    +0.000 A 
ATOM      4  C   UNL     1       7.495   5.979  17.511  0.00  0.00    +0.000 A 
ATOM      5  C   UNL     1       6.651   5.151  16.766  0.00  0.00    +0.000 A 
ATOM      6  C   UNL     1       5.656   4.407  17.418  0.00  0.00    +0.000 A 
ENDROOT
BRANCH   5   7
ATOM      7  C   UNL     1       6.775   5.089  15.295  0.00  0.00    +0.000 C 
ATOM      8  N   UNL     1       7.788   5.551  14.641  0.00  0.00    +0.000 NA
ATOM      9  O   UNL     1       7.594   5.246  13.275  0.00  0.00    +0.000 OA
ATOM     10  C   UNL     1       6.275   4.702  13.093  0.00  0.00    +0.000 C 
ATOM     11  C   UNL     1       5.733   4.421  14.473  0.00  0.00    +0.000 C 
BRANCH  10  12
ATOM     12  C   UNL     1       6.299   3.452  12.240  0.00  0.00    +0.000 A 
ATOM     13  C   UNL     1       7.507   2.867  11.832  0.00  0.00    +0.000 A 
ATOM     14  C   UNL     1       7.511   1.702  11.064  0.00  0.00    +0.000 A 
ATOM     15  C   UNL     1       6.307   1.101  10.705  0.00  0.00    +0.000 A 
ATOM     16  C   UNL     1       5.099   1.655  11.122  0.00  0.00    +0.000 A 
ATOM     17  C   UNL     1       5.094   2.821  11.890  0.00  0.00    +0.000 A 
ENDBRANCH  10  12
ENDBRANCH   5   7
BRANCH   1  18
ATOM     18  C   UNL     1       4.422   3.639  19.473  0.00  0.00    +0.000 C 
BRANCH  18  19
ATOM     19  C   UNL     1       3.064   3.518  18.750  0.00  0.00    +0.000 C 
BRANCH  19  20
ATOM     20  C   UNL     1       2.846   2.061  18.318  0.00  0.00    +0.000 C 
ATOM     21  O   UNL     1       3.740   1.280  18.022  0.00  0.00    +0.000 OA
BRANCH  20  22
ATOM     22  O   UNL     1       1.533   1.723  18.301  0.00  0.00    +0.000 OA
ATOM     23  H   UNL     1       1.462   0.816  17.924  0.00  0.00    +0.000 HD
ENDBRANCH  20  22
ENDBRANCH  19  20
BRANCH  19  24
ATOM     24  O   UNL     1       1.922   3.943  19.525  0.00  0.00    +0.000 OA
BRANCH  24  26
ATOM     25  C   UNL     1       1.556   2.865  21.638  0.00  0.00    +0.000 C 
ATOM     26  C   UNL     1       2.188   4.051  20.926  0.00  0.00    +0.000 C 
ENDBRANCH  24  26
ENDBRANCH  19  24
ENDBRANCH  18  19
ENDBRANCH   1  18
TORSDOF 8
ENDMDL
MODEL 6
REMARK VINA RESULT:      -7.7      3.408      7.650
REMARK  Name = 
REMARK  9 active torsions:
REMARK  status: ('A' for Active; 'I' for Inactive)
REMARK    1  A    between atoms: C_1  and  C_2
REMARK    2  A    between atoms: C_2  and  O_3
REMARK    3  A    between atoms: O_3  and  C_4
REMARK    4  A    between atoms: C_4  and  C_5
REMARK    5  A    between atoms: C_4  and  C_23
REMARK    6  A    between atoms: C_5  and  C_6
REMARK    7  A    between atoms: C_10  and  C_11
REMARK    8  A    between atoms: C_14  and  C_15
REMARK    9  A    between atoms: C_23  and  O_25
REMARK                            x       y       z     vdW  Elec       q    Type
REMARK                         _______ _______ _______ _____ _____    ______ ____
ROOT
ATOM      1  C   UNL     1       3.789   4.594  19.096  0.00  0.00    +0.000 A 
ATOM      2  C   UNL     1       3.096   4.069  20.195  0.00  0.00    +0.000 A 
ATOM      3  C   UNL     1       2.175   4.838  20.900  0.00  0.00    +0.000 A 
ATOM      4  C   UNL     1       1.891   6.132  20.493  0.00  0.00    +0.000 A 
ATOM      5  C   UNL     1       2.508   6.655  19.354  0.00  0.00    +0.000 A 
ATOM      6  C   UNL     1       3.457   5.888  18.664  0.00  0.00    +0.000 A 
ENDROOT
BRANCH   5   7
ATOM      7  C   UNL     1       2.135   7.994  18.853  0.00  0.00    +0.000 C 
ATOM      8  N   UNL     1       2.533   8.473  17.721  0.00  0.00    +0.000 NA
ATOM      9  O   UNL     1       1.917   9.733  17.547  0.00  0.00    +0.000 OA
ATOM     10  C   UNL     1       1.227  10.096  18.756  0.00  0.00    +0.000 C 
ATOM     11  C   UNL     1       1.208   8.863  19.625  0.00  0.00    +0.000 C 
BRANCH  10  12
ATOM     12  C   UNL     1      -0.173  10.597  18.471  0.00  0.00    +0.000 A 
ATOM     13  C   UNL     1      -1.069   9.857  17.685  0.00  0.00    +0.000 A 
ATOM     14  C   UNL     1      -2.363  10.323  17.451  0.00  0.00    +0.000 A 
ATOM     15  C   UNL     1      -2.781  11.528  18.010  0.00  0.00    +0.000 A 
ATOM     16  C   UNL     1      -1.911  12.263  18.813  0.00  0.00    +0.000 A 
ATOM     17  C   UNL     1      -0.616  11.798  19.048  0.00  0.00    +0.000 A 
ENDBRANCH  10  12
ENDBRANCH   5   7
BRANCH   1  18
ATOM     18  C   UNL     1       4.847   3.815  18.336  0.00  0.00    +0.000 C 
BRANCH  18  19
ATOM     19  C   UNL     1       5.768   4.612  17.388  0.00  0.00    +0.000 C 
BRANCH  19  20
ATOM     20  C   UNL     1       7.201   4.594  17.937  0.00  0.00    +0.000 C 
ATOM     21  O   UNL     1       8.186   4.238  17.306  0.00  0.00    +0.000 OA
BRANCH  20  22
ATOM     22  O   UNL     1       7.262   5.026  19.221  0.00  0.00    +0.000 OA
ATOM     23  H   UNL     1       6.610   5.756  19.323  0.00  0.00    +0.000 HD
ENDBRANCH  20  22
ENDBRANCH  19  20
BRANCH  19  24
ATOM     24  O   UNL     1       5.792   4.138  16.024  0.00  0.00    +0.000 OA
BRANCH  24  26
ATOM     25  C   UNL     1       5.139   6.424  15.700  0.00  0.00    +0.000 C 
ATOM     26  C   UNL     1       5.736   5.184  15.052  0.00  0.00    +0.000 C 
ENDBRANCH  24  26
ENDBRANCH  19  24
ENDBRANCH  18  19
ENDBRANCH   1  18
TORSDOF 8
ENDMDL
MODEL 7
REMARK VINA RESULT:      -7.6      4.083      8.620
REMARK  Name = 
REMARK  9 active torsions:
REMARK  status: ('A' for Active; 'I' for Inactive)
REMARK    1  A    between atoms: C_1  and  C_2
REMARK    2  A    between atoms: C_2  and  O_3
REMARK    3  A    between atoms: O_3  and  C_4
REMARK    4  A    between atoms: C_4  and  C_5
REMARK    5  A    between atoms: C_4  and  C_23
REMARK    6  A    between atoms: C_5  and  C_6
REMARK    7  A    between atoms: C_10  and  C_11
REMARK    8  A    between atoms: C_14  and  C_15
REMARK    9  A    between atoms: C_23  and  O_25
REMARK                            x       y       z     vdW  Elec       q    Type
REMARK                         _______ _______ _______ _____ _____    ______ ____
ROOT
ATOM      1  C   UNL     1       4.147   6.608  17.326  0.00  0.00    +0.000 A 
ATOM      2  C   UNL     1       3.970   5.608  18.290  0.00  0.00    +0.000 A 
ATOM      3  C   UNL     1       3.139   5.806  19.388  0.00  0.00    +0.000 A 
ATOM      4  C   UNL     1       2.428   6.989  19.520  0.00  0.00    +0.000 A 
ATOM      5  C   UNL     1       2.523   7.972  18.533  0.00  0.00    +0.000 A 
ATOM      6  C   UNL     1       3.385   7.781  17.443  0.00  0.00    +0.000 A 
ENDROOT
BRANCH   5   7
ATOM      7  C   UNL     1       1.691   9.191  18.611  0.00  0.00    +0.000 C 
ATOM      8  N   UNL     1       2.012  10.316  18.064  0.00  0.00    +0.000 NA
ATOM      9  O   UNL     1       0.948  11.219  18.283  0.00  0.00    +0.000 OA
ATOM     10  C   UNL     1      -0.008  10.621  19.175  0.00  0.00    +0.000 C 
ATOM     11  C   UNL     1       0.373   9.167  19.299  0.00  0.00    +0.000 C 
BRANCH  10  12
ATOM     12  C   UNL     1      -1.425  10.782  18.666  0.00  0.00    +0.000 A 
ATOM     13  C   UNL     1      -1.953   9.927  17.687  0.00  0.00    +0.000 A 
ATOM     14  C   UNL     1      -3.268  10.076  17.246  0.00  0.00    +0.000 A 
ATOM     15  C   UNL     1      -4.075  11.074  17.786  0.00  0.00    +0.000 A 
ATOM     16  C   UNL     1      -3.574  11.916  18.776  0.00  0.00    +0.000 A 
ATOM     17  C   UNL     1      -2.258  11.769  19.218  0.00  0.00    +0.000 A 
ENDBRANCH  10  12
ENDBRANCH   5   7
BRANCH   1  18
ATOM     18  C   UNL     1       5.092   6.462  16.146  0.00  0.00    +0.000 C 
BRANCH  18  19
ATOM     19  C   UNL     1       6.440   5.756  16.402  0.00  0.00    +0.000 C 
BRANCH  19  20
ATOM     20  C   UNL     1       6.751   4.814  15.230  0.00  0.00    +0.000 C 
ATOM     21  O   UNL     1       6.243   3.714  15.065  0.00  0.00    +0.000 OA
BRANCH  20  22
ATOM     22  O   UNL     1       7.666   5.341  14.379  0.00  0.00    +0.000 OA
ATOM     23  H   UNL     1       8.544   4.960  14.609  0.00  0.00    +0.000 HD
ENDBRANCH  20  22
ENDBRANCH  19  20
BRANCH  19  24
ATOM     24  O   UNL     1       7.564   6.642  16.592  0.00  0.00    +0.000 OA
BRANCH  24  26
ATOM     25  C   UNL     1       7.719   5.997  18.898  0.00  0.00    +0.000 C 
ATOM     26  C   UNL     1       7.668   7.161  17.919  0.00  0.00    +0.000 C 
ENDBRANCH  24  26
ENDBRANCH  19  24
ENDBRANCH  18  19
ENDBRANCH   1  18
TORSDOF 8
ENDMDL
MODEL 8
REMARK VINA RESULT:      -7.6      3.504      8.100
REMARK  Name = 
REMARK  9 active torsions:
REMARK  status: ('A' for Active; 'I' for Inactive)
REMARK    1  A    between atoms: C_1  and  C_2
REMARK    2  A    between atoms: C_2  and  O_3
REMARK    3  A    between atoms: O_3  and  C_4
REMARK    4  A    between atoms: C_4  and  C_5
REMARK    5  A    between atoms: C_4  and  C_23
REMARK    6  A    between atoms: C_5  and  C_6
REMARK    7  A    between atoms: C_10  and  C_11
REMARK    8  A    between atoms: C_14  and  C_15
REMARK    9  A    between atoms: C_23  and  O_25
REMARK                            x       y       z     vdW  Elec       q    Type
REMARK                         _______ _______ _______ _____ _____    ______ ____
ROOT
ATOM      1  C   UNL     1       3.999   4.988  17.904  0.00  0.00    +0.000 A 
ATOM      2  C   UNL     1       3.488   4.231  18.965  0.00  0.00    +0.000 A 
ATOM      3  C   UNL     1       2.638   4.798  19.910  0.00  0.00    +0.000 A 
ATOM      4  C   UNL     1       2.242   6.121  19.787  0.00  0.00    +0.000 A 
ATOM      5  C   UNL     1       2.673   6.878  18.695  0.00  0.00    +0.000 A 
ATOM      6  C   UNL     1       3.553   6.311  17.761  0.00  0.00    +0.000 A 
ENDROOT
BRANCH   5   7
ATOM      7  C   UNL     1       2.174   8.255  18.499  0.00  0.00    +0.000 C 
ATOM      8  N   UNL     1       2.433   8.970  17.455  0.00  0.00    +0.000 NA
ATOM      9  O   UNL     1       1.729  10.189  17.584  0.00  0.00    +0.000 OA
ATOM     10  C   UNL     1       1.135  10.259  18.891  0.00  0.00    +0.000 C 
ATOM     11  C   UNL     1       1.273   8.885  19.499  0.00  0.00    +0.000 C 
BRANCH  10  12
ATOM     12  C   UNL     1      -0.313  10.695  18.826  0.00  0.00    +0.000 A 
ATOM     13  C   UNL     1      -0.837  11.630  19.731  0.00  0.00    +0.000 A 
ATOM     14  C   UNL     1      -2.169  12.037  19.643  0.00  0.00    +0.000 A 
ATOM     15  C   UNL     1      -2.989  11.524  18.641  0.00  0.00    +0.000 A 
ATOM     16  C   UNL     1      -2.477  10.613  17.719  0.00  0.00    +0.000 A 
ATOM     17  C   UNL     1      -1.145  10.204  17.806  0.00  0.00    +0.000 A 
ENDBRANCH  10  12
ENDBRANCH   5   7
BRANCH   1  18
ATOM     18  C   UNL     1       4.978   4.430  16.886  0.00  0.00    +0.000 C 
BRANCH  18  19
ATOM     19  C   UNL     1       5.813   5.446  16.077  0.00  0.00    +0.000 C 
BRANCH  19  20
ATOM     20  C   UNL     1       7.217   5.552  16.688  0.00  0.00    +0.000 C 
ATOM     21  O   UNL     1       7.838   4.618  17.174  0.00  0.00    +0.000 OA
BRANCH  20  22
ATOM     22  O   UNL     1       7.706   6.815  16.629  0.00  0.00    +0.000 OA
ATOM     23  H   UNL     1       7.185   7.368  17.255  0.00  0.00    +0.000 HD
ENDBRANCH  20  22
ENDBRANCH  19  20
BRANCH  19  24
ATOM     24  O   UNL     1       5.945   5.141  14.671  0.00  0.00    +0.000 OA
BRANCH  24  26
ATOM     25  C   UNL     1       6.062   3.540  12.888  0.00  0.00    +0.000 C 
ATOM     26  C   UNL     1       6.058   3.743  14.395  0.00  0.00    +0.000 C 
ENDBRANCH  24  26
ENDBRANCH  19  24
ENDBRANCH  18  19
ENDBRANCH   1  18
TORSDOF 8
ENDMDL
MODEL 9
REMARK VINA RESULT:      -7.4      1.916      3.354
REMARK  Name = 
REMARK  9 active torsions:
REMARK  status: ('A' for Active; 'I' for Inactive)
REMARK    1  A    between atoms: C_1  and  C_2
REMARK    2  A    between atoms: C_2  and  O_3
REMARK    3  A    between atoms: O_3  and  C_4
REMARK    4  A    between atoms: C_4  and  C_5
REMARK    5  A    between atoms: C_4  and  C_23
REMARK    6  A    between atoms: C_5  and  C_6
REMARK    7  A    between atoms: C_10  and  C_11
REMARK    8  A    between atoms: C_14  and  C_15
REMARK    9  A    between atoms: C_23  and  O_25
REMARK                            x       y       z     vdW  Elec       q    Type
REMARK                         _______ _______ _______ _____ _____    ______ ____
ROOT
ATOM      1  C   UNL     1       5.305   4.424  18.858  0.00  0.00    +0.000 A 
ATOM      2  C   UNL     1       6.196   5.190  19.620  0.00  0.00    +0.000 A 
ATOM      3  C   UNL     1       7.292   5.815  19.033  0.00  0.00    +0.000 A 
ATOM      4  C   UNL     1       7.493   5.729  17.664  0.00  0.00    +0.000 A 
ATOM      5  C   UNL     1       6.577   5.037  16.868  0.00  0.00    +0.000 A 
ATOM      6  C   UNL     1       5.490   4.384  17.467  0.00  0.00    +0.000 A 
ENDROOT
BRANCH   5   7
ATOM      7  C   UNL     1       6.726   5.027  15.398  0.00  0.00    +0.000 C 
ATOM      8  N   UNL     1       7.739   5.530  14.776  0.00  0.00    +0.000 NA
ATOM      9  O   UNL     1       7.572   5.266  13.397  0.00  0.00    +0.000 OA
ATOM     10  C   UNL     1       6.267   4.703  13.176  0.00  0.00    +0.000 C 
ATOM     11  C   UNL     1       5.710   4.366  14.537  0.00  0.00    +0.000 C 
BRANCH  10  12
ATOM     12  C   UNL     1       6.329   3.482  12.283  0.00  0.00    +0.000 A 
ATOM     13  C   UNL     1       7.552   2.985  11.808  0.00  0.00    +0.000 A 
ATOM     14  C   UNL     1       7.593   1.845  11.003  0.00  0.00    +0.000 A 
ATOM     15  C   UNL     1       6.413   1.183  10.674  0.00  0.00    +0.000 A 
ATOM     16  C   UNL     1       5.192   1.651  11.157  0.00  0.00    +0.000 A 
ATOM     17  C   UNL     1       5.150   2.791  11.962  0.00  0.00    +0.000 A 
ENDBRANCH  10  12
ENDBRANCH   5   7
BRANCH   1  18
ATOM     18  C   UNL     1       4.132   3.672  19.464  0.00  0.00    +0.000 C 
BRANCH  18  19
ATOM     19  C   UNL     1       2.739   4.328  19.355  0.00  0.00    +0.000 C 
BRANCH  19  20
ATOM     20  C   UNL     1       1.657   3.246  19.483  0.00  0.00    +0.000 C 
ATOM     21  O   UNL     1       1.646   2.194  18.862  0.00  0.00    +0.000 OA
BRANCH  20  22
ATOM     22  O   UNL     1       0.698   3.587  20.379  0.00  0.00    +0.000 OA
ATOM     23  H   UNL     1       0.304   2.754  20.727  0.00  0.00    +0.000 HD
ENDBRANCH  20  22
ENDBRANCH  19  20
BRANCH  19  24
ATOM     24  O   UNL     1       2.475   5.361  20.328  0.00  0.00    +0.000 OA
BRANCH  24  26
ATOM     25  C   UNL     1       2.410   6.556  18.248  0.00  0.00    +0.000 C 
ATOM     26  C   UNL     1       2.388   6.672  19.765  0.00  0.00    +0.000 C 
ENDBRANCH  24  26
ENDBRANCH  19  24
ENDBRANCH  18  19
ENDBRANCH   1  18
TORSDOF 8
ENDMDL
