MODEL 1
REMARK VINA RESULT:      -7.9      0.000      0.000
REMARK  Name = 
REMARK  7 active torsions:
REMARK  status: ('A' for Active; 'I' for Inactive)
REMARK    1  A    between atoms: C_2  and  O_3
REMARK    2  A    between atoms: C_2  and  C_4
REMARK    3  A    between atoms: C_6  and  O_7
REMARK    4  A    between atoms: C_8  and  O_9
REMARK    5  A    between atoms: C_10  and  O_11
REMARK    6  A    between atoms: O_11  and  C_12
REMARK    7  A    between atoms: C_12  and  C_13
REMARK                            x       y       z     vdW  Elec       q    Type
REMARK                         _______ _______ _______ _____ _____    ______ ____
ROOT
ATOM      1  C   UNL     1       6.986   5.574  17.911  0.00  0.00    +0.000 C 
ATOM      2  C   UNL     1       7.298   6.063  16.701  0.00  0.00    +0.000 C 
ATOM      3  C   UNL     1       6.632   5.660  15.430  0.00  0.00    +0.000 C 
ATOM      4  C   UNL     1       5.579   4.529  15.522  0.00  0.00    +0.000 C 
ATOM      5  C   UNL     1       4.959   4.322  16.926  0.00  0.00    +0.000 C 
ATOM      6  C   UNL     1       5.933   4.514  18.104  0.00  0.00    +0.000 C 
ENDROOT
BRANCH   1   8
ATOM      7  O   UNL     1       7.597   5.349  20.193  0.00  0.00    +0.000 OA
ATOM      8  C   UNL     1       7.707   5.972  19.149  0.00  0.00    +0.000 C 
BRANCH   8   9
ATOM      9  O   UNL     1       8.447   7.092  19.048  0.00  0.00    +0.000 OA
ATOM     10  H   UNL     1       7.956   7.930  19.024  0.00  0.00    +0.000 HD
ENDBRANCH   8   9
ENDBRANCH   1   8
BRANCH   3  11
ATOM     11  O   UNL     1       7.699   5.287  14.556  0.00  0.00    +0.000 OA
ATOM     12  H   UNL     1       7.600   5.858  13.767  0.00  0.00    +0.000 HD
ENDBRANCH   3  11
BRANCH   4  13
ATOM     13  O   UNL     1       6.189   3.317  15.025  0.00  0.00    +0.000 OA
ATOM     14  H   UNL     1       5.598   2.899  14.376  0.00  0.00    +0.000 HD
ENDBRANCH   4  13
BRANCH   5  15
ATOM     15  O   UNL     1       3.721   5.019  17.125  0.00  0.00    +0.000 OA
BRANCH  15  16
ATOM     16  C   UNL     1       3.496   5.581  18.409  0.00  0.00    +0.000 C 
BRANCH  16  17
ATOM     17  C   UNL     1       2.601   4.659  19.189  0.00  0.00    +0.000 A 
ATOM     18  C   UNL     1       2.625   4.653  20.595  0.00  0.00    +0.000 A 
ATOM     19  C   UNL     1       1.830   3.764  21.328  0.00  0.00    +0.000 A 
ATOM     20  C   UNL     1       0.987   2.879  20.653  0.00  0.00    +0.000 A 
ATOM     21  C   UNL     1       0.950   2.897  19.264  0.00  0.00    +0.000 A 
ATOM     22  F   UNL     1       0.144   2.038  18.622  0.00  0.00    +0.000 F 
ATOM     23  C   UNL     1       1.735   3.775  18.529  0.00  0.00    +0.000 A 
ENDBRANCH  16  17
ENDBRANCH  15  16
ENDBRANCH   5  15
TORSDOF 7
ENDMDL
MODEL 2
REMARK VINA RESULT:      -7.6      1.064      1.507
REMARK  Name = 
REMARK  7 active torsions:
REMARK  status: ('A' for Active; 'I' for Inactive)
REMARK    1  A    between atoms: C_2  and  O_3
REMARK    2  A    between atoms: C_2  and  C_4
REMARK    3  A    between atoms: C_6  and  O_7
REMARK    4  A    between atoms: C_8  and  O_9
REMARK    5  A    between atoms: C_10  and  O_11
REMARK    6  A    between atoms: O_11  and  C_12
REMARK    7  A    between atoms: C_12  and  C_13
REMARK                            x       y       z     vdW  Elec       q    Type
REMARK                         _______ _______ _______ _____ _____    ______ ____
ROOT
ATOM      1  C   UNL     1       6.894   5.497  17.804  0.00  0.00    +0.000 C 
ATOM      2  C   UNL     1       7.204   6.063  16.629  0.00  0.00    +0.000 C 
ATOM      3  C   UNL     1       6.603   5.677  15.320  0.00  0.00    +0.000 C 
ATOM      4  C   UNL     1       5.630   4.473  15.327  0.00  0.00    +0.000 C 
ATOM      5  C   UNL     1       4.987   4.157  16.700  0.00  0.00    +0.000 C 
ATOM      6  C   UNL     1       5.913   4.358  17.916  0.00  0.00    +0.000 C 
ENDROOT
BRANCH   1   8
ATOM      7  O   UNL     1       7.298   5.323  20.137  0.00  0.00    +0.000 OA
ATOM      8  C   UNL     1       7.551   5.883  19.081  0.00  0.00    +0.000 C 
BRANCH   8   9
ATOM      9  O   UNL     1       8.403   6.922  18.997  0.00  0.00    +0.000 OA
ATOM     10  H   UNL     1       8.780   7.098  18.119  0.00  0.00    +0.000 HD
ENDBRANCH   8   9
ENDBRANCH   1   8
BRANCH   3  11
ATOM     11  O   UNL     1       7.718   5.420  14.463  0.00  0.00    +0.000 OA
ATOM     12  H   UNL     1       7.915   6.276  14.030  0.00  0.00    +0.000 HD
ENDBRANCH   3  11
BRANCH   4  13
ATOM     13  O   UNL     1       6.337   3.332  14.794  0.00  0.00    +0.000 OA
ATOM     14  H   UNL     1       7.170   3.626  14.389  0.00  0.00    +0.000 HD
ENDBRANCH   4  13
BRANCH   5  15
ATOM     15  O   UNL     1       3.699   4.757  16.893  0.00  0.00    +0.000 OA
BRANCH  15  16
ATOM     16  C   UNL     1       3.464   5.398  18.137  0.00  0.00    +0.000 C 
BRANCH  16  17
ATOM     17  C   UNL     1       2.618   4.498  18.993  0.00  0.00    +0.000 A 
ATOM     18  C   UNL     1       1.569   3.749  18.431  0.00  0.00    +0.000 A 
ATOM     19  C   UNL     1       0.747   2.945  19.230  0.00  0.00    +0.000 A 
ATOM     20  C   UNL     1       0.981   2.874  20.605  0.00  0.00    +0.000 A 
ATOM     21  C   UNL     1       2.028   3.601  21.157  0.00  0.00    +0.000 A 
ATOM     22  F   UNL     1       2.241   3.534  22.480  0.00  0.00    +0.000 F 
ATOM     23  C   UNL     1       2.848   4.400  20.373  0.00  0.00    +0.000 A 
ENDBRANCH  16  17
ENDBRANCH  15  16
ENDBRANCH   5  15
TORSDOF 7
ENDMDL
MODEL 3
REMARK VINA RESULT:      -7.6      1.276      1.615
REMARK  Name = 
REMARK  7 active torsions:
REMARK  status: ('A' for Active; 'I' for Inactive)
REMARK    1  A    between atoms: C_2  and  O_3
REMARK    2  A    between atoms: C_2  and  C_4
REMARK    3  A    between atoms: C_6  and  O_7
REMARK    4  A    between atoms: C_8  and  O_9
REMARK    5  A    between atoms: C_10  and  O_11
REMARK    6  A    between atoms: O_11  and  C_12
REMARK    7  A    between atoms: C_12  and  C_13
REMARK                            x       y       z     vdW  Elec       q    Type
REMARK                         _______ _______ _______ _____ _____    ______ ____
ROOT
ATOM      1  C   UNL     1       6.890   5.433  17.797  0.00  0.00    +0.000 C 
ATOM      2  C   UNL     1       7.141   6.038  16.627  0.00  0.00    +0.000 C 
ATOM      3  C   UNL     1       6.542   5.633  15.323  0.00  0.00    +0.000 C 
ATOM      4  C   UNL     1       5.650   4.368  15.326  0.00  0.00    +0.000 C 
ATOM      5  C   UNL     1       5.055   3.989  16.705  0.00  0.00    +0.000 C 
ATOM      6  C   UNL     1       5.988   4.231  17.907  0.00  0.00    +0.000 C 
ENDROOT
BRANCH   1   8
ATOM      7  O   UNL     1       7.314   5.278  20.128  0.00  0.00    +0.000 OA
ATOM      8  C   UNL     1       7.544   5.842  19.069  0.00  0.00    +0.000 C 
BRANCH   8   9
ATOM      9  O   UNL     1       8.365   6.904  18.977  0.00  0.00    +0.000 OA
ATOM     10  H   UNL     1       9.301   6.741  19.183  0.00  0.00    +0.000 HD
ENDBRANCH   8   9
ENDBRANCH   1   8
BRANCH   3  11
ATOM     11  O   UNL     1       7.655   5.464  14.442  0.00  0.00    +0.000 OA
ATOM     12  H   UNL     1       8.296   6.160  14.696  0.00  0.00    +0.000 HD
ENDBRANCH   3  11
BRANCH   4  13
ATOM     13  O   UNL     1       6.420   3.284  14.761  0.00  0.00    +0.000 OA
ATOM     14  H   UNL     1       6.836   2.774  15.477  0.00  0.00    +0.000 HD
ENDBRANCH   4  13
BRANCH   5  15
ATOM     15  O   UNL     1       3.734   4.499  16.930  0.00  0.00    +0.000 OA
BRANCH  15  16
ATOM     16  C   UNL     1       2.704   3.548  17.157  0.00  0.00    +0.000 C 
BRANCH  16  17
ATOM     17  C   UNL     1       2.306   3.604  18.604  0.00  0.00    +0.000 A 
ATOM     18  C   UNL     1       2.066   2.424  19.331  0.00  0.00    +0.000 A 
ATOM     19  C   UNL     1       1.649   2.469  20.666  0.00  0.00    +0.000 A 
ATOM     20  C   UNL     1       1.481   3.706  21.293  0.00  0.00    +0.000 A 
ATOM     21  C   UNL     1       1.735   4.871  20.580  0.00  0.00    +0.000 A 
ATOM     22  F   UNL     1       1.563   6.056  21.187  0.00  0.00    +0.000 F 
ATOM     23  C   UNL     1       2.150   4.836  19.256  0.00  0.00    +0.000 A 
ENDBRANCH  16  17
ENDBRANCH  15  16
ENDBRANCH   5  15
TORSDOF 7
ENDMDL
MODEL 4
REMARK VINA RESULT:      -7.6      1.081      1.518
REMARK  Name = 
REMARK  7 active torsions:
REMARK  status: ('A' for Active; 'I' for Inactive)
REMARK    1  A    between atoms: C_2  and  O_3
REMARK    2  A    between atoms: C_2  and  C_4
REMARK    3  A    between atoms: C_6  and  O_7
REMARK    4  A    between atoms: C_8  and  O_9
REMARK    5  A    between atoms: C_10  and  O_11
REMARK    6  A    between atoms: O_11  and  C_12
REMARK    7  A    between atoms: C_12  and  C_13
REMARK                            x       y       z     vdW  Elec       q    Type
REMARK                         _______ _______ _______ _____ _____    ______ ____
ROOT
ATOM      1  C   UNL     1       6.609   6.239  17.374  0.00  0.00    +0.000 C 
ATOM      2  C   UNL     1       6.575   5.742  16.129  0.00  0.00    +0.000 C 
ATOM      3  C   UNL     1       5.565   4.762  15.637  0.00  0.00    +0.000 C 
ATOM      4  C   UNL     1       4.553   4.222  16.677  0.00  0.00    +0.000 C 
ATOM      5  C   UNL     1       4.354   5.116  17.925  0.00  0.00    +0.000 C 
ATOM      6  C   UNL     1       5.628   5.815  18.437  0.00  0.00    +0.000 C 
ENDROOT
BRANCH   1   8
ATOM      7  O   UNL     1       7.958   8.184  17.204  0.00  0.00    +0.000 OA
ATOM      8  C   UNL     1       7.663   7.181  17.835  0.00  0.00    +0.000 C 
BRANCH   8   9
ATOM      9  O   UNL     1       8.298   6.824  18.966  0.00  0.00    +0.000 OA
ATOM     10  H   UNL     1       8.941   6.099  18.887  0.00  0.00    +0.000 HD
ENDBRANCH   8   9
ENDBRANCH   1   8
BRANCH   3  11
ATOM     11  O   UNL     1       6.328   3.694  15.073  0.00  0.00    +0.000 OA
ATOM     12  H   UNL     1       7.209   3.752  15.498  0.00  0.00    +0.000 HD
ENDBRANCH   3  11
BRANCH   4  13
ATOM     13  O   UNL     1       4.966   2.885  17.040  0.00  0.00    +0.000 OA
ATOM     14  H   UNL     1       4.415   2.237  16.569  0.00  0.00    +0.000 HD
ENDBRANCH   4  13
BRANCH   5  15
ATOM     15  O   UNL     1       3.242   6.017  17.826  0.00  0.00    +0.000 OA
BRANCH  15  16
ATOM     16  C   UNL     1       2.535   6.304  19.023  0.00  0.00    +0.000 C 
BRANCH  16  17
ATOM     17  C   UNL     1       2.063   5.012  19.627  0.00  0.00    +0.000 A 
ATOM     18  C   UNL     1       2.340   4.702  20.971  0.00  0.00    +0.000 A 
ATOM     19  C   UNL     1       1.945   3.480  21.527  0.00  0.00    +0.000 A 
ATOM     20  C   UNL     1       1.250   2.559  20.740  0.00  0.00    +0.000 A 
ATOM     21  C   UNL     1       0.961   2.872  19.418  0.00  0.00    +0.000 A 
ATOM     22  F   UNL     1       0.300   1.979  18.666  0.00  0.00    +0.000 F 
ATOM     23  C   UNL     1       1.348   4.082  18.858  0.00  0.00    +0.000 A 
ENDBRANCH  16  17
ENDBRANCH  15  16
ENDBRANCH   5  15
TORSDOF 7
ENDMDL
MODEL 5
REMARK VINA RESULT:      -7.5      3.134      6.132
REMARK  Name = 
REMARK  7 active torsions:
REMARK  status: ('A' for Active; 'I' for Inactive)
REMARK    1  A    between atoms: C_2  and  O_3
REMARK    2  A    between atoms: C_2  and  C_4
REMARK    3  A    between atoms: C_6  and  O_7
REMARK    4  A    between atoms: C_8  and  O_9
REMARK    5  A    between atoms: C_10  and  O_11
REMARK    6  A    between atoms: O_11  and  C_12
REMARK    7  A    between atoms: C_12  and  C_13
REMARK                            x       y       z     vdW  Elec       q    Type
REMARK                         _______ _______ _______ _____ _____    ______ ____
ROOT
ATOM      1  C   UNL     1       2.245   5.595  19.579  0.00  0.00    +0.000 C 
ATOM      2  C   UNL     1       2.072   4.766  20.618  0.00  0.00    +0.000 C 
ATOM      3  C   UNL     1       2.031   3.279  20.515  0.00  0.00    +0.000 C 
ATOM      4  C   UNL     1       2.098   2.677  19.090  0.00  0.00    +0.000 C 
ATOM      5  C   UNL     1       2.720   3.601  18.015  0.00  0.00    +0.000 C 
ATOM      6  C   UNL     1       2.378   5.096  18.163  0.00  0.00    +0.000 C 
ENDROOT
BRANCH   1   8
ATOM      7  O   UNL     1       2.500   7.819  18.789  0.00  0.00    +0.000 OA
ATOM      8  C   UNL     1       2.235   7.075  19.721  0.00  0.00    +0.000 C 
BRANCH   8   9
ATOM      9  O   UNL     1       1.963   7.532  20.958  0.00  0.00    +0.000 OA
ATOM     10  H   UNL     1       2.376   7.050  21.694  0.00  0.00    +0.000 HD
ENDBRANCH   8   9
ENDBRANCH   1   8
BRANCH   3  11
ATOM     11  O   UNL     1       0.819   2.896  21.169  0.00  0.00    +0.000 OA
ATOM     12  H   UNL     1       0.187   2.697  20.448  0.00  0.00    +0.000 HD
ENDBRANCH   3  11
BRANCH   4  13
ATOM     13  O   UNL     1       0.764   2.258  18.726  0.00  0.00    +0.000 OA
ATOM     14  H   UNL     1       0.371   2.913  18.124  0.00  0.00    +0.000 HD
ENDBRANCH   4  13
BRANCH   5  15
ATOM     15  O   UNL     1       4.121   3.382  17.799  0.00  0.00    +0.000 OA
BRANCH  15  16
ATOM     16  C   UNL     1       4.714   4.045  16.692  0.00  0.00    +0.000 C 
BRANCH  16  17
ATOM     17  C   UNL     1       5.701   5.054  17.206  0.00  0.00    +0.000 A 
ATOM     18  C   UNL     1       5.706   6.371  16.713  0.00  0.00    +0.000 A 
ATOM     19  C   UNL     1       6.653   7.304  17.152  0.00  0.00    +0.000 A 
ATOM     20  C   UNL     1       7.600   6.926  18.107  0.00  0.00    +0.000 A 
ATOM     21  C   UNL     1       7.584   5.629  18.606  0.00  0.00    +0.000 A 
ATOM     22  F   UNL     1       8.502   5.271  19.516  0.00  0.00    +0.000 F 
ATOM     23  C   UNL     1       6.649   4.699  18.177  0.00  0.00    +0.000 A 
ENDBRANCH  16  17
ENDBRANCH  15  16
ENDBRANCH   5  15
TORSDOF 7
ENDMDL
MODEL 6
REMARK VINA RESULT:      -7.4      3.221      6.157
REMARK  Name = 
REMARK  7 active torsions:
REMARK  status: ('A' for Active; 'I' for Inactive)
REMARK    1  A    between atoms: C_2  and  O_3
REMARK    2  A    between atoms: C_2  and  C_4
REMARK    3  A    between atoms: C_6  and  O_7
REMARK    4  A    between atoms: C_8  and  O_9
REMARK    5  A    between atoms: C_10  and  O_11
REMARK    6  A    between atoms: O_11  and  C_12
REMARK    7  A    between atoms: C_12  and  C_13
REMARK                            x       y       z     vdW  Elec       q    Type
REMARK                         _______ _______ _______ _____ _____    ______ ____
ROOT
ATOM      1  C   UNL     1       2.194   5.809  19.486  0.00  0.00    +0.000 C 
ATOM      2  C   UNL     1       2.024   4.904  20.461  0.00  0.00    +0.000 C 
ATOM      3  C   UNL     1       2.001   3.428  20.249  0.00  0.00    +0.000 C 
ATOM      4  C   UNL     1       2.084   2.932  18.785  0.00  0.00    +0.000 C 
ATOM      5  C   UNL     1       2.702   3.939  17.784  0.00  0.00    +0.000 C 
ATOM      6  C   UNL     1       2.342   5.416  18.038  0.00  0.00    +0.000 C 
ENDROOT
BRANCH   1   8
ATOM      7  O   UNL     1       2.346   8.089  18.844  0.00  0.00    +0.000 OA
ATOM      8  C   UNL     1       2.166   7.274  19.736  0.00  0.00    +0.000 C 
BRANCH   8   9
ATOM      9  O   UNL     1       1.978   7.635  21.019  0.00  0.00    +0.000 OA
ATOM     10  H   UNL     1       2.775   7.691  21.570  0.00  0.00    +0.000 HD
ENDBRANCH   8   9
ENDBRANCH   1   8
BRANCH   3  11
ATOM     11  O   UNL     1       0.790   2.985  20.865  0.00  0.00    +0.000 OA
ATOM     12  H   UNL     1       0.701   2.043  20.613  0.00  0.00    +0.000 HD
ENDBRANCH   3  11
BRANCH   4  13
ATOM     13  O   UNL     1       0.757   2.527  18.381  0.00  0.00    +0.000 OA
ATOM     14  H   UNL     1       0.178   3.306  18.340  0.00  0.00    +0.000 HD
ENDBRANCH   4  13
BRANCH   5  15
ATOM     15  O   UNL     1       4.106   3.752  17.562  0.00  0.00    +0.000 OA
BRANCH  15  16
ATOM     16  C   UNL     1       4.727   4.597  16.604  0.00  0.00    +0.000 C 
BRANCH  16  17
ATOM     17  C   UNL     1       5.868   5.319  17.263  0.00  0.00    +0.000 A 
ATOM     18  C   UNL     1       6.634   4.694  18.263  0.00  0.00    +0.000 A 
ATOM     19  C   UNL     1       7.668   5.377  18.914  0.00  0.00    +0.000 A 
ATOM     20  C   UNL     1       7.953   6.696  18.557  0.00  0.00    +0.000 A 
ATOM     21  C   UNL     1       7.207   7.309  17.557  0.00  0.00    +0.000 A 
ATOM     22  F   UNL     1       7.481   8.579  17.225  0.00  0.00    +0.000 F 
ATOM     23  C   UNL     1       6.181   6.639  16.905  0.00  0.00    +0.000 A 
ENDBRANCH  16  17
ENDBRANCH  15  16
ENDBRANCH   5  15
TORSDOF 7
ENDMDL
MODEL 7
REMARK VINA RESULT:      -7.4      1.195      3.240
REMARK  Name = 
REMARK  7 active torsions:
REMARK  status: ('A' for Active; 'I' for Inactive)
REMARK    1  A    between atoms: C_2  and  O_3
REMARK    2  A    between atoms: C_2  and  C_4
REMARK    3  A    between atoms: C_6  and  O_7
REMARK    4  A    between atoms: C_8  and  O_9
REMARK    5  A    between atoms: C_10  and  O_11
REMARK    6  A    between atoms: O_11  and  C_12
REMARK    7  A    between atoms: C_12  and  C_13
REMARK                            x       y       z     vdW  Elec       q    Type
REMARK                         _______ _______ _______ _____ _____    ______ ____
ROOT
ATOM      1  C   UNL     1       6.468   4.820  15.354  0.00  0.00    +0.000 C 
ATOM      2  C   UNL     1       7.056   4.152  16.357  0.00  0.00    +0.000 C 
ATOM      3  C   UNL     1       6.859   4.455  17.803  0.00  0.00    +0.000 C 
ATOM      4  C   UNL     1       5.989   5.689  18.145  0.00  0.00    +0.000 C 
ATOM      5  C   UNL     1       5.014   6.135  17.027  0.00  0.00    +0.000 C 
ATOM      6  C   UNL     1       5.559   5.997  15.593  0.00  0.00    +0.000 C 
ENDROOT
BRANCH   1   8
ATOM      7  O   UNL     1       7.378   5.257  13.205  0.00  0.00    +0.000 OA
ATOM      8  C   UNL     1       6.728   4.511  13.922  0.00  0.00    +0.000 C 
BRANCH   8   9
ATOM      9  O   UNL     1       6.157   3.382  13.464  0.00  0.00    +0.000 OA
ATOM     10  H   UNL     1       6.568   2.548  13.746  0.00  0.00    +0.000 HD
ENDBRANCH   8   9
ENDBRANCH   1   8
BRANCH   3  11
ATOM     11  O   UNL     1       8.178   4.605  18.333  0.00  0.00    +0.000 OA
ATOM     12  H   UNL     1       8.771   4.191  17.673  0.00  0.00    +0.000 HD
ENDBRANCH   3  11
BRANCH   4  13
ATOM     13  O   UNL     1       6.877   6.760  18.535  0.00  0.00    +0.000 OA
ATOM     14  H   UNL     1       7.190   7.228  17.743  0.00  0.00    +0.000 HD
ENDBRANCH   4  13
BRANCH   5  15
ATOM     15  O   UNL     1       3.691   5.598  17.160  0.00  0.00    +0.000 OA
BRANCH  15  16
ATOM     16  C   UNL     1       2.855   6.178  18.151  0.00  0.00    +0.000 C 
BRANCH  16  17
ATOM     17  C   UNL     1       2.244   5.078  18.972  0.00  0.00    +0.000 A 
ATOM     18  C   UNL     1       2.395   5.054  20.370  0.00  0.00    +0.000 A 
ATOM     19  C   UNL     1       1.868   4.007  21.136  0.00  0.00    +0.000 A 
ATOM     20  C   UNL     1       1.169   2.976  20.504  0.00  0.00    +0.000 A 
ATOM     21  C   UNL     1       1.006   3.009  19.125  0.00  0.00    +0.000 A 
ATOM     22  F   UNL     1       0.340   2.011  18.524  0.00  0.00    +0.000 F 
ATOM     23  C   UNL     1       1.523   4.043  18.358  0.00  0.00    +0.000 A 
ENDBRANCH  16  17
ENDBRANCH  15  16
ENDBRANCH   5  15
TORSDOF 7
ENDMDL
MODEL 8
REMARK VINA RESULT:      -7.4      1.008      1.353
REMARK  Name = 
REMARK  7 active torsions:
REMARK  status: ('A' for Active; 'I' for Inactive)
REMARK    1  A    between atoms: C_2  and  O_3
REMARK    2  A    between atoms: C_2  and  C_4
REMARK    3  A    between atoms: C_6  and  O_7
REMARK    4  A    between atoms: C_8  and  O_9
REMARK    5  A    between atoms: C_10  and  O_11
REMARK    6  A    between atoms: O_11  and  C_12
REMARK    7  A    between atoms: C_12  and  C_13
REMARK                            x       y       z     vdW  Elec       q    Type
REMARK                         _______ _______ _______ _____ _____    ______ ____
ROOT
ATOM      1  C   UNL     1       6.825   5.392  17.687  0.00  0.00    +0.000 C 
ATOM      2  C   UNL     1       7.103   6.023  16.537  0.00  0.00    +0.000 C 
ATOM      3  C   UNL     1       6.554   5.634  15.206  0.00  0.00    +0.000 C 
ATOM      4  C   UNL     1       5.684   4.355  15.157  0.00  0.00    +0.000 C 
ATOM      5  C   UNL     1       5.051   3.939  16.507  0.00  0.00    +0.000 C 
ATOM      6  C   UNL     1       5.940   4.173  17.744  0.00  0.00    +0.000 C 
ENDROOT
BRANCH   1   8
ATOM      7  O   UNL     1       7.130   5.237  20.036  0.00  0.00    +0.000 OA
ATOM      8  C   UNL     1       7.430   5.786  18.987  0.00  0.00    +0.000 C 
BRANCH   8   9
ATOM      9  O   UNL     1       8.291   6.819  18.930  0.00  0.00    +0.000 OA
ATOM     10  H   UNL     1       8.144   7.536  19.569  0.00  0.00    +0.000 HD
ENDBRANCH   8   9
ENDBRANCH   1   8
BRANCH   3  11
ATOM     11  O   UNL     1       7.698   5.500  14.359  0.00  0.00    +0.000 OA
ATOM     12  H   UNL     1       7.349   5.538  13.445  0.00  0.00    +0.000 HD
ENDBRANCH   3  11
BRANCH   4  13
ATOM     13  O   UNL     1       6.490   3.295  14.597  0.00  0.00    +0.000 OA
ATOM     14  H   UNL     1       6.084   2.978  13.773  0.00  0.00    +0.000 HD
ENDBRANCH   4  13
BRANCH   5  15
ATOM     15  O   UNL     1       3.715   4.423  16.699  0.00  0.00    +0.000 OA
BRANCH  15  16
ATOM     16  C   UNL     1       2.761   3.503  17.207  0.00  0.00    +0.000 C 
BRANCH  16  17
ATOM     17  C   UNL     1       2.315   3.969  18.564  0.00  0.00    +0.000 A 
ATOM     18  C   UNL     1       2.456   5.316  18.944  0.00  0.00    +0.000 A 
ATOM     19  C   UNL     1       2.086   5.748  20.224  0.00  0.00    +0.000 A 
ATOM     20  C   UNL     1       1.555   4.832  21.133  0.00  0.00    +0.000 A 
ATOM     21  C   UNL     1       1.399   3.505  20.751  0.00  0.00    +0.000 A 
ATOM     22  F   UNL     1       0.896   2.628  21.633  0.00  0.00    +0.000 F 
ATOM     23  C   UNL     1       1.762   3.067  19.485  0.00  0.00    +0.000 A 
ENDBRANCH  16  17
ENDBRANCH  15  16
ENDBRANCH   5  15
TORSDOF 7
ENDMDL
MODEL 9
REMARK VINA RESULT:      -7.4      1.384      1.735
REMARK  Name = 
REMARK  7 active torsions:
REMARK  status: ('A' for Active; 'I' for Inactive)
REMARK    1  A    between atoms: C_2  and  O_3
REMARK    2  A    between atoms: C_2  and  C_4
REMARK    3  A    between atoms: C_6  and  O_7
REMARK    4  A    between atoms: C_8  and  O_9
REMARK    5  A    between atoms: C_10  and  O_11
REMARK    6  A    between atoms: O_11  and  C_12
REMARK    7  A    between atoms: C_12  and  C_13
REMARK                            x       y       z     vdW  Elec       q    Type
REMARK                         _______ _______ _______ _____ _____    ______ ____
ROOT
ATOM      1  C   UNL     1       6.872   5.524  17.679  0.00  0.00    +0.000 C 
ATOM      2  C   UNL     1       7.038   6.094  16.477  0.00  0.00    +0.000 C 
ATOM      3  C   UNL     1       6.409   5.606  15.217  0.00  0.00    +0.000 C 
ATOM      4  C   UNL     1       5.591   4.295  15.308  0.00  0.00    +0.000 C 
ATOM      5  C   UNL     1       5.078   3.938  16.724  0.00  0.00    +0.000 C 
ATOM      6  C   UNL     1       6.046   4.279  17.874  0.00  0.00    +0.000 C 
ENDROOT
BRANCH   1   8
ATOM      7  O   UNL     1       8.326   6.965  18.881  0.00  0.00    +0.000 OA
ATOM      8  C   UNL     1       7.555   6.018  18.904  0.00  0.00    +0.000 C 
BRANCH   8   9
ATOM      9  O   UNL     1       7.302   5.318  20.026  0.00  0.00    +0.000 OA
ATOM     10  H   UNL     1       6.397   4.977  20.123  0.00  0.00    +0.000 HD
ENDBRANCH   8   9
ENDBRANCH   1   8
BRANCH   3  11
ATOM     11  O   UNL     1       7.491   5.464  14.294  0.00  0.00    +0.000 OA
ATOM     12  H   UNL     1       7.696   4.506  14.281  0.00  0.00    +0.000 HD
ENDBRANCH   3  11
BRANCH   4  13
ATOM     13  O   UNL     1       6.397   3.233  14.749  0.00  0.00    +0.000 OA
ATOM     14  H   UNL     1       5.913   2.392  14.810  0.00  0.00    +0.000 HD
ENDBRANCH   4  13
BRANCH   5  15
ATOM     15  O   UNL     1       3.741   4.383  16.989  0.00  0.00    +0.000 OA
BRANCH  15  16
ATOM     16  C   UNL     1       2.760   3.382  17.219  0.00  0.00    +0.000 C 
BRANCH  16  17
ATOM     17  C   UNL     1       2.397   3.388  18.677  0.00  0.00    +0.000 A 
ATOM     18  C   UNL     1       1.321   4.162  19.147  0.00  0.00    +0.000 A 
ATOM     19  C   UNL     1       1.006   4.209  20.510  0.00  0.00    +0.000 A 
ATOM     20  C   UNL     1       1.762   3.465  21.418  0.00  0.00    +0.000 A 
ATOM     21  C   UNL     1       2.815   2.687  20.951  0.00  0.00    +0.000 A 
ATOM     22  F   UNL     1       3.542   1.981  21.830  0.00  0.00    +0.000 F 
ATOM     23  C   UNL     1       3.134   2.633  19.601  0.00  0.00    +0.000 A 
ENDBRANCH  16  17
ENDBRANCH  15  16
ENDBRANCH   5  15
TORSDOF 7
ENDMDL
