MODEL 1
REMARK VINA RESULT:      -8.0      0.000      0.000
REMARK  Name = 
REMARK  7 active torsions:
REMARK  status: ('A' for Active; 'I' for Inactive)
REMARK    1  A    between atoms: C_1  and  O_2
REMARK    2  A    between atoms: O_2  and  C_3
REMARK    3  A    between atoms: C_6  and  C_7
REMARK    4  A    between atoms: C_7  and  S_8
REMARK    5  A    between atoms: S_8  and  C_11
REMARK    6  A    between atoms: C_12  and  C_13
REMARK    7  A    between atoms: C_23  and  N_24
REMARK                            x       y       z     vdW  Elec       q    Type
REMARK                         _______ _______ _______ _____ _____    ______ ____
ROOT
ATOM      1  S   UNL     1       5.418   5.938  16.354  0.00  0.00    +0.000 S 
ATOM      2  O   UNL     1       6.721   5.679  16.942  0.00  0.00    +0.000 OA
ATOM      3  O   UNL     1       5.280   6.832  15.217  0.00  0.00    +0.000 OA
ENDROOT
BRANCH   1   4
ATOM      4  C   UNL     1       4.410   6.553  17.637  0.00  0.00    +0.000 C 
ATOM      5  C   UNL     1       3.384   7.372  17.361  0.00  0.00    +0.000 C 
BRANCH   5   6
ATOM      6  C   UNL     1       2.526   7.988  18.389  0.00  0.00    +0.000 A 
ATOM      7  C   UNL     1       1.838   9.185  18.147  0.00  0.00    +0.000 A 
ATOM      8  C   UNL     1       0.996   9.708  19.120  0.00  0.00    +0.000 A 
ATOM      9  F   UNL     1       0.347  10.855  18.879  0.00  0.00    +0.000 F 
ATOM     10  C   UNL     1       0.812   9.053  20.332  0.00  0.00    +0.000 A 
ATOM     11  F   UNL     1      -0.008   9.557  21.263  0.00  0.00    +0.000 F 
ATOM     12  C   UNL     1       1.475   7.859  20.591  0.00  0.00    +0.000 A 
ATOM     13  C   UNL     1       2.320   7.334  19.612  0.00  0.00    +0.000 A 
ATOM     14  F   UNL     1       2.952   6.177  19.870  0.00  0.00    +0.000 F 
ENDBRANCH   5   6
ENDBRANCH   1   4
BRANCH   1  15
ATOM     15  C   UNL     1       4.641   4.368  15.959  0.00  0.00    +0.000 C 
BRANCH  15  19
ATOM     16  C   UNL     1       2.673   2.730  19.462  0.00  0.00    +0.000 A 
ATOM     17  C   UNL     1       1.935   3.350  18.444  0.00  0.00    +0.000 A 
ATOM     18  C   UNL     1       2.559   3.881  17.312  0.00  0.00    +0.000 A 
ATOM     19  C   UNL     1       3.949   3.813  17.179  0.00  0.00    +0.000 A 
ATOM     20  C   UNL     1       4.688   3.211  18.208  0.00  0.00    +0.000 A 
ATOM     21  C   UNL     1       4.068   2.619  19.325  0.00  0.00    +0.000 A 
BRANCH  21  22
ATOM     22  N   UNL     1       4.904   2.041  20.303  0.00  0.00    +0.000 N 
ATOM     23  H   UNL     1       5.169   2.692  21.038  0.00  0.00    +0.000 HD
ATOM     24  H   UNL     1       5.740   1.654  19.874  0.00  0.00    +0.000 HD
ENDBRANCH  21  22
BRANCH  16  26
ATOM     25  C   UNL     1       1.749   2.968  21.656  0.00  0.00    +0.000 C 
ATOM     26  O   UNL     1       1.892   2.210  20.462  0.00  0.00    +0.000 OA
ENDBRANCH  16  26
ENDBRANCH  15  19
ENDBRANCH   1  15
TORSDOF 6
ENDMDL
MODEL 2
REMARK VINA RESULT:      -7.9      2.472      4.383
REMARK  Name = 
REMARK  7 active torsions:
REMARK  status: ('A' for Active; 'I' for Inactive)
REMARK    1  A    between atoms: C_1  and  O_2
REMARK    2  A    between atoms: O_2  and  C_3
REMARK    3  A    between atoms: C_6  and  C_7
REMARK    4  A    between atoms: C_7  and  S_8
REMARK    5  A    between atoms: S_8  and  C_11
REMARK    6  A    between atoms: C_12  and  C_13
REMARK    7  A    between atoms: C_23  and  N_24
REMARK                            x       y       z     vdW  Elec       q    Type
REMARK                         _______ _______ _______ _____ _____    ______ ____
ROOT
ATOM      1  S   UNL     1       3.606   3.656  18.180  0.00  0.00    +0.000 S 
ATOM      2  O   UNL     1       2.675   2.638  17.724  0.00  0.00    +0.000 OA
ATOM      3  O   UNL     1       4.276   3.529  19.464  0.00  0.00    +0.000 OA
ENDROOT
BRANCH   1   4
ATOM      4  C   UNL     1       2.728   5.162  18.186  0.00  0.00    +0.000 C 
ATOM      5  C   UNL     1       3.056   6.135  19.049  0.00  0.00    +0.000 C 
BRANCH   5   6
ATOM      6  C   UNL     1       2.325   7.409  19.165  0.00  0.00    +0.000 A 
ATOM      7  C   UNL     1       1.646   7.760  20.341  0.00  0.00    +0.000 A 
ATOM      8  C   UNL     1       1.013   8.993  20.433  0.00  0.00    +0.000 A 
ATOM      9  F   UNL     1       0.365   9.315  21.560  0.00  0.00    +0.000 F 
ATOM     10  C   UNL     1       1.054   9.896  19.379  0.00  0.00    +0.000 A 
ATOM     11  F   UNL     1       0.449  11.088  19.476  0.00  0.00    +0.000 F 
ATOM     12  C   UNL     1       1.730   9.576  18.207  0.00  0.00    +0.000 A 
ATOM     13  C   UNL     1       2.365   8.337  18.116  0.00  0.00    +0.000 A 
ATOM     14  F   UNL     1       3.019   8.040  16.981  0.00  0.00    +0.000 F 
ENDBRANCH   5   6
ENDBRANCH   1   4
BRANCH   1  15
ATOM     15  C   UNL     1       4.840   3.921  16.903  0.00  0.00    +0.000 C 
BRANCH  15  19
ATOM     16  C   UNL     1       7.691   6.901  18.252  0.00  0.00    +0.000 A 
ATOM     17  C   UNL     1       6.867   7.141  17.144  0.00  0.00    +0.000 A 
ATOM     18  C   UNL     1       5.945   6.188  16.701  0.00  0.00    +0.000 A 
ATOM     19  C   UNL     1       5.837   4.958  17.356  0.00  0.00    +0.000 A 
ATOM     20  C   UNL     1       6.677   4.711  18.452  0.00  0.00    +0.000 A 
ATOM     21  C   UNL     1       7.567   5.684  18.946  0.00  0.00    +0.000 A 
BRANCH  21  22
ATOM     22  N   UNL     1       8.367   5.332  20.053  0.00  0.00    +0.000 N 
ATOM     23  H   UNL     1       9.253   4.910  19.787  0.00  0.00    +0.000 HD
ATOM     24  H   UNL     1       7.862   4.704  20.672  0.00  0.00    +0.000 HD
ENDBRANCH  21  22
BRANCH  16  26
ATOM     25  C   UNL     1       8.186   9.227  17.993  0.00  0.00    +0.000 C 
ATOM     26  O   UNL     1       8.484   7.969  18.583  0.00  0.00    +0.000 OA
ENDBRANCH  16  26
ENDBRANCH  15  19
ENDBRANCH   1  15
TORSDOF 6
ENDMDL
MODEL 3
REMARK VINA RESULT:      -7.7      5.423      6.082
REMARK  Name = 
REMARK  7 active torsions:
REMARK  status: ('A' for Active; 'I' for Inactive)
REMARK    1  A    between atoms: C_1  and  O_2
REMARK    2  A    between atoms: O_2  and  C_3
REMARK    3  A    between atoms: C_6  and  C_7
REMARK    4  A    between atoms: C_7  and  S_8
REMARK    5  A    between atoms: S_8  and  C_11
REMARK    6  A    between atoms: C_12  and  C_13
REMARK    7  A    between atoms: C_23  and  N_24
REMARK                            x       y       z     vdW  Elec       q    Type
REMARK                         _______ _______ _______ _____ _____    ______ ____
ROOT
ATOM      1  S   UNL     1       7.252   7.011  17.500  0.00  0.00    +0.000 S 
ATOM      2  O   UNL     1       7.503   6.373  18.781  0.00  0.00    +0.000 OA
ATOM      3  O   UNL     1       7.776   6.441  16.271  0.00  0.00    +0.000 OA
ENDROOT
BRANCH   1   4
ATOM      4  C   UNL     1       7.862   8.640  17.632  0.00  0.00    +0.000 C 
ATOM      5  C   UNL     1       8.710   8.968  18.618  0.00  0.00    +0.000 C 
BRANCH   5   6
ATOM      6  C   UNL     1       9.219  10.333  18.840  0.00  0.00    +0.000 A 
ATOM      7  C   UNL     1       9.508  11.191  17.770  0.00  0.00    +0.000 A 
ATOM      8  C   UNL     1       9.936  12.490  18.019  0.00  0.00    +0.000 A 
ATOM      9  F   UNL     1      10.212  13.298  16.988  0.00  0.00    +0.000 F 
ATOM     10  C   UNL     1      10.068  12.960  19.320  0.00  0.00    +0.000 A 
ATOM     11  F   UNL     1      10.471  14.215  19.554  0.00  0.00    +0.000 F 
ATOM     12  C   UNL     1       9.776  12.132  20.398  0.00  0.00    +0.000 A 
ATOM     13  C   UNL     1       9.347  10.828  20.146  0.00  0.00    +0.000 A 
ATOM     14  F   UNL     1       9.064  10.038  21.194  0.00  0.00    +0.000 F 
ENDBRANCH   5   6
ENDBRANCH   1   4
BRANCH   1  15
ATOM     15  C   UNL     1       5.484   7.264  17.318  0.00  0.00    +0.000 C 
BRANCH  15  19
ATOM     16  C   UNL     1       3.356   3.763  18.747  0.00  0.00    +0.000 A 
ATOM     17  C   UNL     1       4.066   3.732  17.538  0.00  0.00    +0.000 A 
ATOM     18  C   UNL     1       4.754   4.855  17.069  0.00  0.00    +0.000 A 
ATOM     19  C   UNL     1       4.736   6.045  17.800  0.00  0.00    +0.000 A 
ATOM     20  C   UNL     1       4.009   6.081  18.998  0.00  0.00    +0.000 A 
ATOM     21  C   UNL     1       3.361   4.942  19.513  0.00  0.00    +0.000 A 
BRANCH  21  22
ATOM     22  N   UNL     1       2.656   5.087  20.726  0.00  0.00    +0.000 N 
ATOM     23  H   UNL     1       3.265   5.136  21.539  0.00  0.00    +0.000 HD
ATOM     24  H   UNL     1       1.990   4.328  20.844  0.00  0.00    +0.000 HD
ENDBRANCH  21  22
BRANCH  16  26
ATOM     25  C   UNL     1       1.468   2.296  18.654  0.00  0.00    +0.000 C 
ATOM     26  O   UNL     1       2.798   2.556  19.082  0.00  0.00    +0.000 OA
ENDBRANCH  16  26
ENDBRANCH  15  19
ENDBRANCH   1  15
TORSDOF 6
ENDMDL
MODEL 4
REMARK VINA RESULT:      -7.6      0.977      1.366
REMARK  Name = 
REMARK  7 active torsions:
REMARK  status: ('A' for Active; 'I' for Inactive)
REMARK    1  A    between atoms: C_1  and  O_2
REMARK    2  A    between atoms: O_2  and  C_3
REMARK    3  A    between atoms: C_6  and  C_7
REMARK    4  A    between atoms: C_7  and  S_8
REMARK    5  A    between atoms: S_8  and  C_11
REMARK    6  A    between atoms: C_12  and  C_13
REMARK    7  A    between atoms: C_23  and  N_24
REMARK                            x       y       z     vdW  Elec       q    Type
REMARK                         _______ _______ _______ _____ _____    ______ ____
ROOT
ATOM      1  S   UNL     1       5.499   6.037  16.295  0.00  0.00    +0.000 S 
ATOM      2  O   UNL     1       6.836   5.879  16.842  0.00  0.00    +0.000 OA
ATOM      3  O   UNL     1       5.268   6.866  15.124  0.00  0.00    +0.000 OA
ENDROOT
BRANCH   1   4
ATOM      4  C   UNL     1       4.507   6.656  17.588  0.00  0.00    +0.000 C 
ATOM      5  C   UNL     1       3.398   7.359  17.315  0.00  0.00    +0.000 C 
BRANCH   5   6
ATOM      6  C   UNL     1       2.541   7.972  18.345  0.00  0.00    +0.000 A 
ATOM      7  C   UNL     1       1.839   9.161  18.101  0.00  0.00    +0.000 A 
ATOM      8  C   UNL     1       0.998   9.682  19.076  0.00  0.00    +0.000 A 
ATOM      9  F   UNL     1       0.337  10.821  18.833  0.00  0.00    +0.000 F 
ATOM     10  C   UNL     1       0.828   9.032  20.292  0.00  0.00    +0.000 A 
ATOM     11  F   UNL     1       0.010   9.533  21.226  0.00  0.00    +0.000 F 
ATOM     12  C   UNL     1       1.504   7.845  20.554  0.00  0.00    +0.000 A 
ATOM     13  C   UNL     1       2.349   7.324  19.572  0.00  0.00    +0.000 A 
ATOM     14  F   UNL     1       2.993   6.175  19.833  0.00  0.00    +0.000 F 
ENDBRANCH   5   6
ENDBRANCH   1   4
BRANCH   1  15
ATOM     15  C   UNL     1       4.801   4.409  16.003  0.00  0.00    +0.000 C 
BRANCH  15  19
ATOM     16  C   UNL     1       3.088   2.866  19.679  0.00  0.00    +0.000 A 
ATOM     17  C   UNL     1       4.454   3.176  19.593  0.00  0.00    +0.000 A 
ATOM     18  C   UNL     1       5.015   3.673  18.414  0.00  0.00    +0.000 A 
ATOM     19  C   UNL     1       4.218   3.861  17.282  0.00  0.00    +0.000 A 
ATOM     20  C   UNL     1       2.857   3.532  17.363  0.00  0.00    +0.000 A 
ATOM     21  C   UNL     1       2.265   3.087  18.561  0.00  0.00    +0.000 A 
BRANCH  21  22
ATOM     22  N   UNL     1       0.889   2.782  18.533  0.00  0.00    +0.000 N 
ATOM     23  H   UNL     1       0.437   3.051  17.662  0.00  0.00    +0.000 HD
ATOM     24  H   UNL     1       0.410   3.221  19.315  0.00  0.00    +0.000 HD
ENDBRANCH  21  22
BRANCH  16  26
ATOM     25  C   UNL     1       2.121   3.419  21.796  0.00  0.00    +0.000 C 
ATOM     26  O   UNL     1       2.701   2.455  20.928  0.00  0.00    +0.000 OA
ENDBRANCH  16  26
ENDBRANCH  15  19
ENDBRANCH   1  15
TORSDOF 6
ENDMDL
MODEL 5
REMARK VINA RESULT:      -7.6      0.826      1.747
REMARK  Name = 
REMARK  7 active torsions:
REMARK  status: ('A' for Active; 'I' for Inactive)
REMARK    1  A    between atoms: C_1  and  O_2
REMARK    2  A    between atoms: O_2  and  C_3
REMARK    3  A    between atoms: C_6  and  C_7
REMARK    4  A    between atoms: C_7  and  S_8
REMARK    5  A    between atoms: S_8  and  C_11
REMARK    6  A    between atoms: C_12  and  C_13
REMARK    7  A    between atoms: C_23  and  N_24
REMARK                            x       y       z     vdW  Elec       q    Type
REMARK                         _______ _______ _______ _____ _____    ______ ____
ROOT
ATOM      1  S   UNL     1       5.531   6.223  16.251  0.00  0.00    +0.000 S 
ATOM      2  O   UNL     1       6.882   6.402  16.756  0.00  0.00    +0.000 OA
ATOM      3  O   UNL     1       5.072   6.951  15.081  0.00  0.00    +0.000 OA
ENDROOT
BRANCH   1   4
ATOM      4  C   UNL     1       4.457   6.607  17.570  0.00  0.00    +0.000 C 
ATOM      5  C   UNL     1       3.420   7.436  17.381  0.00  0.00    +0.000 C 
BRANCH   5   6
ATOM      6  C   UNL     1       2.505   7.864  18.454  0.00  0.00    +0.000 A 
ATOM      7  C   UNL     1       2.312   7.087  19.605  0.00  0.00    +0.000 A 
ATOM      8  C   UNL     1       1.483   7.548  20.621  0.00  0.00    +0.000 A 
ATOM      9  F   UNL     1       1.303   6.795  21.713  0.00  0.00    +0.000 F 
ATOM     10  C   UNL     1       0.851   8.781  20.520  0.00  0.00    +0.000 A 
ATOM     11  F   UNL     1       0.060   9.225  21.506  0.00  0.00    +0.000 F 
ATOM     12  C   UNL     1       1.036   9.575  19.394  0.00  0.00    +0.000 A 
ATOM     13  C   UNL     1       1.869   9.110  18.375  0.00  0.00    +0.000 A 
ATOM     14  F   UNL     1       2.044   9.887  17.293  0.00  0.00    +0.000 F 
ENDBRANCH   5   6
ENDBRANCH   1   4
BRANCH   1  15
ATOM     15  C   UNL     1       5.238   4.470  15.999  0.00  0.00    +0.000 C 
BRANCH  15  19
ATOM     16  C   UNL     1       2.708   2.882  19.147  0.00  0.00    +0.000 A 
ATOM     17  C   UNL     1       2.152   3.442  17.988  0.00  0.00    +0.000 A 
ATOM     18  C   UNL     1       2.958   3.957  16.968  0.00  0.00    +0.000 A 
ATOM     19  C   UNL     1       4.350   3.932  17.093  0.00  0.00    +0.000 A 
ATOM     20  C   UNL     1       4.904   3.391  18.262  0.00  0.00    +0.000 A 
ATOM     21  C   UNL     1       4.107   2.815  19.270  0.00  0.00    +0.000 A 
BRANCH  21  22
ATOM     22  N   UNL     1       4.766   2.299  20.405  0.00  0.00    +0.000 N 
ATOM     23  H   UNL     1       4.948   1.300  20.343  0.00  0.00    +0.000 HD
ATOM     24  H   UNL     1       4.233   2.497  21.247  0.00  0.00    +0.000 HD
ENDBRANCH  21  22
BRANCH  16  26
ATOM     25  C   UNL     1       1.377   3.169  21.114  0.00  0.00    +0.000 C 
ATOM     26  O   UNL     1       1.773   2.369  20.007  0.00  0.00    +0.000 OA
ENDBRANCH  16  26
ENDBRANCH  15  19
ENDBRANCH   1  15
TORSDOF 6
ENDMDL
MODEL 6
REMARK VINA RESULT:      -7.5      2.530      4.245
REMARK  Name = 
REMARK  7 active torsions:
REMARK  status: ('A' for Active; 'I' for Inactive)
REMARK    1  A    between atoms: C_1  and  O_2
REMARK    2  A    between atoms: O_2  and  C_3
REMARK    3  A    between atoms: C_6  and  C_7
REMARK    4  A    between atoms: C_7  and  S_8
REMARK    5  A    between atoms: S_8  and  C_11
REMARK    6  A    between atoms: C_12  and  C_13
REMARK    7  A    between atoms: C_23  and  N_24
REMARK                            x       y       z     vdW  Elec       q    Type
REMARK                         _______ _______ _______ _____ _____    ______ ____
ROOT
ATOM      1  S   UNL     1       3.604   3.739  17.893  0.00  0.00    +0.000 S 
ATOM      2  O   UNL     1       2.397   3.438  17.141  0.00  0.00    +0.000 OA
ATOM      3  O   UNL     1       4.023   2.892  18.996  0.00  0.00    +0.000 OA
ENDROOT
BRANCH   1   4
ATOM      4  C   UNL     1       3.409   5.358  18.511  0.00  0.00    +0.000 C 
ATOM      5  C   UNL     1       2.293   6.053  18.252  0.00  0.00    +0.000 C 
BRANCH   5   6
ATOM      6  C   UNL     1       2.076   7.447  18.679  0.00  0.00    +0.000 A 
ATOM      7  C   UNL     1       2.262   8.520  17.796  0.00  0.00    +0.000 A 
ATOM      8  C   UNL     1       1.996   9.818  18.218  0.00  0.00    +0.000 A 
ATOM      9  F   UNL     1       2.181  10.835  17.367  0.00  0.00    +0.000 F 
ATOM     10  C   UNL     1       1.533  10.068  19.504  0.00  0.00    +0.000 A 
ATOM     11  F   UNL     1       1.270  11.320  19.902  0.00  0.00    +0.000 F 
ATOM     12  C   UNL     1       1.330   9.020  20.393  0.00  0.00    +0.000 A 
ATOM     13  C   UNL     1       1.597   7.717  19.968  0.00  0.00    +0.000 A 
ATOM     14  F   UNL     1       1.394   6.711  20.834  0.00  0.00    +0.000 F 
ENDBRANCH   5   6
ENDBRANCH   1   4
BRANCH   1  15
ATOM     15  C   UNL     1       4.970   3.917  16.741  0.00  0.00    +0.000 C 
BRANCH  15  19
ATOM     16  C   UNL     1       7.732   6.913  18.234  0.00  0.00    +0.000 A 
ATOM     17  C   UNL     1       6.929   7.166  17.112  0.00  0.00    +0.000 A 
ATOM     18  C   UNL     1       6.037   6.208  16.623  0.00  0.00    +0.000 A 
ATOM     19  C   UNL     1       5.937   4.960  17.245  0.00  0.00    +0.000 A 
ATOM     20  C   UNL     1       6.755   4.700  18.354  0.00  0.00    +0.000 A 
ATOM     21  C   UNL     1       7.614   5.677  18.894  0.00  0.00    +0.000 A 
BRANCH  21  22
ATOM     22  N   UNL     1       8.394   5.311  20.010  0.00  0.00    +0.000 N 
ATOM     23  H   UNL     1       8.933   6.085  20.392  0.00  0.00    +0.000 HD
ATOM     24  H   UNL     1       9.019   4.545  19.773  0.00  0.00    +0.000 HD
ENDBRANCH  21  22
BRANCH  16  26
ATOM     25  C   UNL     1       8.218   9.244  18.010  0.00  0.00    +0.000 C 
ATOM     26  O   UNL     1       8.496   7.986  18.611  0.00  0.00    +0.000 OA
ENDBRANCH  16  26
ENDBRANCH  15  19
ENDBRANCH   1  15
TORSDOF 6
ENDMDL
MODEL 7
REMARK VINA RESULT:      -7.5      2.301      4.429
REMARK  Name = 
REMARK  7 active torsions:
REMARK  status: ('A' for Active; 'I' for Inactive)
REMARK    1  A    between atoms: C_1  and  O_2
REMARK    2  A    between atoms: O_2  and  C_3
REMARK    3  A    between atoms: C_6  and  C_7
REMARK    4  A    between atoms: C_7  and  S_8
REMARK    5  A    between atoms: S_8  and  C_11
REMARK    6  A    between atoms: C_12  and  C_13
REMARK    7  A    between atoms: C_23  and  N_24
REMARK                            x       y       z     vdW  Elec       q    Type
REMARK                         _______ _______ _______ _____ _____    ______ ____
ROOT
ATOM      1  S   UNL     1       2.739   3.324  19.316  0.00  0.00    +0.000 S 
ATOM      2  O   UNL     1       1.544   2.498  19.317  0.00  0.00    +0.000 OA
ATOM      3  O   UNL     1       3.565   3.438  20.505  0.00  0.00    +0.000 OA
ENDROOT
BRANCH   1   4
ATOM      4  C   UNL     1       2.228   4.930  18.868  0.00  0.00    +0.000 C 
ATOM      5  C   UNL     1       2.546   5.982  19.638  0.00  0.00    +0.000 C 
BRANCH   5   6
ATOM      6  C   UNL     1       2.099   7.360  19.369  0.00  0.00    +0.000 A 
ATOM      7  C   UNL     1       1.353   8.084  20.309  0.00  0.00    +0.000 A 
ATOM      8  C   UNL     1       0.995   9.400  20.043  0.00  0.00    +0.000 A 
ATOM      9  F   UNL     1       0.280  10.081  20.948  0.00  0.00    +0.000 F 
ATOM     10  C   UNL     1       1.379  10.019  18.860  0.00  0.00    +0.000 A 
ATOM     11  F   UNL     1       1.039  11.291  18.613  0.00  0.00    +0.000 F 
ATOM     12  C   UNL     1       2.128   9.325  17.917  0.00  0.00    +0.000 A 
ATOM     13  C   UNL     1       2.487   8.003  18.186  0.00  0.00    +0.000 A 
ATOM     14  F   UNL     1       3.215   7.343  17.270  0.00  0.00    +0.000 F 
ENDBRANCH   5   6
ENDBRANCH   1   4
BRANCH   1  15
ATOM     15  C   UNL     1       3.773   2.838  17.931  0.00  0.00    +0.000 C 
BRANCH  15  19
ATOM     16  C   UNL     1       6.618   5.972  16.973  0.00  0.00    +0.000 A 
ATOM     17  C   UNL     1       6.664   5.308  18.207  0.00  0.00    +0.000 A 
ATOM     18  C   UNL     1       5.752   4.297  18.525  0.00  0.00    +0.000 A 
ATOM     19  C   UNL     1       4.759   3.935  17.612  0.00  0.00    +0.000 A 
ATOM     20  C   UNL     1       4.700   4.614  16.387  0.00  0.00    +0.000 A 
ATOM     21  C   UNL     1       5.648   5.591  16.028  0.00  0.00    +0.000 A 
BRANCH  21  22
ATOM     22  N   UNL     1       5.497   6.214  14.772  0.00  0.00    +0.000 N 
ATOM     23  H   UNL     1       4.534   6.465  14.563  0.00  0.00    +0.000 HD
ATOM     24  H   UNL     1       5.862   5.619  14.033  0.00  0.00    +0.000 HD
ENDBRANCH  21  22
BRANCH  16  26
ATOM     25  C   UNL     1       7.757   7.915  17.777  0.00  0.00    +0.000 C 
ATOM     26  O   UNL     1       7.626   6.885  16.807  0.00  0.00    +0.000 OA
ENDBRANCH  16  26
ENDBRANCH  15  19
ENDBRANCH   1  15
TORSDOF 6
ENDMDL
MODEL 8
REMARK VINA RESULT:      -7.5      1.256      2.174
REMARK  Name = 
REMARK  7 active torsions:
REMARK  status: ('A' for Active; 'I' for Inactive)
REMARK    1  A    between atoms: C_1  and  O_2
REMARK    2  A    between atoms: O_2  and  C_3
REMARK    3  A    between atoms: C_6  and  C_7
REMARK    4  A    between atoms: C_7  and  S_8
REMARK    5  A    between atoms: S_8  and  C_11
REMARK    6  A    between atoms: C_12  and  C_13
REMARK    7  A    between atoms: C_23  and  N_24
REMARK                            x       y       z     vdW  Elec       q    Type
REMARK                         _______ _______ _______ _____ _____    ______ ____
ROOT
ATOM      1  S   UNL     1       5.391   6.132  16.357  0.00  0.00    +0.000 S 
ATOM      2  O   UNL     1       6.740   6.083  16.895  0.00  0.00    +0.000 OA
ATOM      3  O   UNL     1       5.086   6.945  15.192  0.00  0.00    +0.000 OA
ENDROOT
BRANCH   1   4
ATOM      4  C   UNL     1       4.359   6.661  17.658  0.00  0.00    +0.000 C 
ATOM      5  C   UNL     1       3.299   7.443  17.408  0.00  0.00    +0.000 C 
BRANCH   5   6
ATOM      6  C   UNL     1       2.415   7.988  18.455  0.00  0.00    +0.000 A 
ATOM      7  C   UNL     1       2.215   7.314  19.667  0.00  0.00    +0.000 A 
ATOM      8  C   UNL     1       1.418   7.884  20.652  0.00  0.00    +0.000 A 
ATOM      9  F   UNL     1       1.230   7.229  21.805  0.00  0.00    +0.000 F 
ATOM     10  C   UNL     1       0.825   9.126  20.460  0.00  0.00    +0.000 A 
ATOM     11  F   UNL     1       0.064   9.675  21.416  0.00  0.00    +0.000 F 
ATOM     12  C   UNL     1       1.018   9.819  19.270  0.00  0.00    +0.000 A 
ATOM     13  C   UNL     1       1.819   9.244  18.282  0.00  0.00    +0.000 A 
ATOM     14  F   UNL     1       2.002   9.924  17.138  0.00  0.00    +0.000 F 
ENDBRANCH   5   6
ENDBRANCH   1   4
BRANCH   1  15
ATOM     15  C   UNL     1       4.827   4.454  16.061  0.00  0.00    +0.000 C 
BRANCH  15  19
ATOM     16  C   UNL     1       3.030   2.856  19.673  0.00  0.00    +0.000 A 
ATOM     17  C   UNL     1       4.396   3.169  19.624  0.00  0.00    +0.000 A 
ATOM     18  C   UNL     1       4.984   3.684  18.466  0.00  0.00    +0.000 A 
ATOM     19  C   UNL     1       4.214   3.886  17.317  0.00  0.00    +0.000 A 
ATOM     20  C   UNL     1       2.853   3.553  17.361  0.00  0.00    +0.000 A 
ATOM     21  C   UNL     1       2.234   3.091  18.538  0.00  0.00    +0.000 A 
BRANCH  21  22
ATOM     22  N   UNL     1       0.859   2.783  18.472  0.00  0.00    +0.000 N 
ATOM     23  H   UNL     1       0.267   3.608  18.409  0.00  0.00    +0.000 HD
ATOM     24  H   UNL     1       0.580   2.224  19.273  0.00  0.00    +0.000 HD
ENDBRANCH  21  22
BRANCH  16  26
ATOM     25  C   UNL     1       2.121   3.398  21.818  0.00  0.00    +0.000 C 
ATOM     26  O   UNL     1       2.613   2.426  20.905  0.00  0.00    +0.000 OA
ENDBRANCH  16  26
ENDBRANCH  15  19
ENDBRANCH   1  15
TORSDOF 6
ENDMDL
MODEL 9
REMARK VINA RESULT:      -7.5      2.050      4.326
REMARK  Name = 
REMARK  7 active torsions:
REMARK  status: ('A' for Active; 'I' for Inactive)
REMARK    1  A    between atoms: C_1  and  O_2
REMARK    2  A    between atoms: O_2  and  C_3
REMARK    3  A    between atoms: C_6  and  C_7
REMARK    4  A    between atoms: C_7  and  S_8
REMARK    5  A    between atoms: S_8  and  C_11
REMARK    6  A    between atoms: C_12  and  C_13
REMARK    7  A    between atoms: C_23  and  N_24
REMARK                            x       y       z     vdW  Elec       q    Type
REMARK                         _______ _______ _______ _____ _____    ______ ____
ROOT
ATOM      1  S   UNL     1       2.335   2.947  20.517  0.00  0.00    +0.000 S 
ATOM      2  O   UNL     1       1.655   1.957  19.700  0.00  0.00    +0.000 OA
ATOM      3  O   UNL     1       2.065   3.047  21.942  0.00  0.00    +0.000 OA
ENDROOT
BRANCH   1   4
ATOM      4  C   UNL     1       1.989   4.499  19.802  0.00  0.00    +0.000 C 
ATOM      5  C   UNL     1       2.228   5.629  20.484  0.00  0.00    +0.000 C 
BRANCH   5   6
ATOM      6  C   UNL     1       1.904   6.976  19.980  0.00  0.00    +0.000 A 
ATOM      7  C   UNL     1       1.298   7.938  20.800  0.00  0.00    +0.000 A 
ATOM      8  C   UNL     1       1.056   9.214  20.308  0.00  0.00    +0.000 A 
ATOM      9  F   UNL     1       0.474  10.124  21.099  0.00  0.00    +0.000 F 
ATOM     10  C   UNL     1       1.421   9.559  19.012  0.00  0.00    +0.000 A 
ATOM     11  F   UNL     1       1.194  10.794  18.545  0.00  0.00    +0.000 F 
ATOM     12  C   UNL     1       2.033   8.626  18.183  0.00  0.00    +0.000 A 
ATOM     13  C   UNL     1       2.275   7.344  18.680  0.00  0.00    +0.000 A 
ATOM     14  F   UNL     1       2.871   6.452  17.873  0.00  0.00    +0.000 F 
ENDBRANCH   5   6
ENDBRANCH   1   4
BRANCH   1  15
ATOM     15  C   UNL     1       4.106   2.782  20.269  0.00  0.00    +0.000 C 
BRANCH  15  19
ATOM     16  C   UNL     1       5.271   4.812  16.615  0.00  0.00    +0.000 A 
ATOM     17  C   UNL     1       4.359   3.747  16.590  0.00  0.00    +0.000 A 
ATOM     18  C   UNL     1       3.977   3.086  17.761  0.00  0.00    +0.000 A 
ATOM     19  C   UNL     1       4.514   3.473  18.992  0.00  0.00    +0.000 A 
ATOM     20  C   UNL     1       5.442   4.525  19.014  0.00  0.00    +0.000 A 
ATOM     21  C   UNL     1       5.790   5.238  17.851  0.00  0.00    +0.000 A 
BRANCH  21  22
ATOM     22  N   UNL     1       6.733   6.278  17.984  0.00  0.00    +0.000 N 
ATOM     23  H   UNL     1       6.344   7.198  17.794  0.00  0.00    +0.000 HD
ATOM     24  H   UNL     1       7.532   6.114  17.377  0.00  0.00    +0.000 HD
ENDBRANCH  21  22
BRANCH  16  26
ATOM     25  C   UNL     1       6.462   4.803  14.541  0.00  0.00    +0.000 C 
ATOM     26  O   UNL     1       5.478   5.382  15.386  0.00  0.00    +0.000 OA
ENDBRANCH  16  26
ENDBRANCH  15  19
ENDBRANCH   1  15
TORSDOF 6
ENDMDL
