MODEL 1
REMARK VINA RESULT:      -6.0      0.000      0.000
REMARK  Name = 
REMARK  7 active torsions:
REMARK  status: ('A' for Active; 'I' for Inactive)
REMARK    1  A    between atoms: C_2  and  C_3
REMARK    2  A    between atoms: C_3  and  N_4
REMARK    3  A    between atoms: N_4  and  N_5
REMARK    4  A    between atoms: C_6  and  C_7
REMARK    5  A    between atoms: C_7  and  C_8
REMARK    6  A    between atoms: C_13  and  O_14
REMARK    7  A    between atoms: O_14  and  C_15
REMARK                            x       y       z     vdW  Elec       q    Type
REMARK                         _______ _______ _______ _____ _____    ______ ____
ROOT
ATOM      1  C   UNL     1       5.716   5.034  16.900  0.00  0.00    +0.000 C 
ENDROOT
BRANCH   1   2
ATOM      2  C   UNL     1       4.307   4.732  17.395  0.00  0.00    +0.000 A 
ATOM      3  C   UNL     1       3.881   3.397  17.298  0.00  0.00    +0.000 A 
ATOM      4  C   UNL     1       2.557   3.039  17.442  0.00  0.00    +0.000 A 
ATOM      5  C   UNL     1       1.628   3.991  17.854  0.00  0.00    +0.000 A 
ATOM      6  C   UNL     1       2.043   5.312  18.040  0.00  0.00    +0.000 A 
ATOM      7  C   UNL     1       3.364   5.713  17.796  0.00  0.00    +0.000 A 
BRANCH   7   8
ATOM      8  O   UNL     1       3.772   7.020  17.947  0.00  0.00    +0.000 OA
ATOM      9  C   UNL     1       2.718   7.987  17.869  0.00  0.00    +0.000 C 
ENDBRANCH   7   8
ENDBRANCH   1   2
BRANCH   1  11
ATOM     10  N   UNL     1       5.847   4.196  14.585  0.00  0.00    +0.000 NA
ATOM     11  C   UNL     1       6.148   4.021  15.834  0.00  0.00    +0.000 C 
BRANCH  10  12
ATOM     12  N   UNL     1       6.267   3.243  13.713  0.00  0.00    +0.000 N 
ATOM     13  H   UNL     1       6.736   2.401  14.043  0.00  0.00    +0.000 HD
BRANCH  12  14
ATOM     14  C   UNL     1       6.300   3.492  12.269  0.00  0.00    +0.000 C 
BRANCH  14  16
ATOM     15  C   UNL     1       3.760   3.129  11.090  0.00  0.00    +0.000 C 
ATOM     16  C   UNL     1       4.933   3.297  11.635  0.00  0.00    +0.000 C 
ENDBRANCH  14  16
ENDBRANCH  12  14
ENDBRANCH  10  12
ENDBRANCH   1  11
TORSDOF 6
ENDMDL
MODEL 2
REMARK VINA RESULT:      -6.0      1.726      3.253
REMARK  Name = 
REMARK  7 active torsions:
REMARK  status: ('A' for Active; 'I' for Inactive)
REMARK    1  A    between atoms: C_2  and  C_3
REMARK    2  A    between atoms: C_3  and  N_4
REMARK    3  A    between atoms: N_4  and  N_5
REMARK    4  A    between atoms: C_6  and  C_7
REMARK    5  A    between atoms: C_7  and  C_8
REMARK    6  A    between atoms: C_13  and  O_14
REMARK    7  A    between atoms: O_14  and  C_15
REMARK                            x       y       z     vdW  Elec       q    Type
REMARK                         _______ _______ _______ _____ _____    ______ ____
ROOT
ATOM      1  C   UNL     1       5.278   6.198  15.696  0.00  0.00    +0.000 C 
ENDROOT
BRANCH   1   2
ATOM      2  C   UNL     1       5.843   6.106  17.109  0.00  0.00    +0.000 A 
ATOM      3  C   UNL     1       7.100   6.697  17.321  0.00  0.00    +0.000 A 
ATOM      4  C   UNL     1       7.843   6.448  18.456  0.00  0.00    +0.000 A 
ATOM      5  C   UNL     1       7.280   5.722  19.502  0.00  0.00    +0.000 A 
ATOM      6  C   UNL     1       5.995   5.193  19.350  0.00  0.00    +0.000 A 
ATOM      7  C   UNL     1       5.268   5.349  18.160  0.00  0.00    +0.000 A 
BRANCH   7   8
ATOM      8  O   UNL     1       4.014   4.804  17.993  0.00  0.00    +0.000 OA
ATOM      9  C   UNL     1       3.979   3.372  18.003  0.00  0.00    +0.000 C 
ENDBRANCH   7   8
ENDBRANCH   1   2
BRANCH   1  11
ATOM     10  N   UNL     1       6.390   4.587  14.196  0.00  0.00    +0.000 NA
ATOM     11  C   UNL     1       5.388   4.848  14.977  0.00  0.00    +0.000 C 
BRANCH  10  12
ATOM     12  N   UNL     1       6.401   3.367  13.599  0.00  0.00    +0.000 N 
ATOM     13  H   UNL     1       6.599   2.524  14.135  0.00  0.00    +0.000 HD
BRANCH  12  14
ATOM     14  C   UNL     1       6.385   3.232  12.141  0.00  0.00    +0.000 C 
BRANCH  14  16
ATOM     15  C   UNL     1       3.751   3.249  11.121  0.00  0.00    +0.000 C 
ATOM     16  C   UNL     1       4.968   3.241  11.592  0.00  0.00    +0.000 C 
ENDBRANCH  14  16
ENDBRANCH  12  14
ENDBRANCH  10  12
ENDBRANCH   1  11
TORSDOF 6
ENDMDL
MODEL 3
REMARK VINA RESULT:      -5.9      3.236      4.105
REMARK  Name = 
REMARK  7 active torsions:
REMARK  status: ('A' for Active; 'I' for Inactive)
REMARK    1  A    between atoms: C_2  and  C_3
REMARK    2  A    between atoms: C_3  and  N_4
REMARK    3  A    between atoms: N_4  and  N_5
REMARK    4  A    between atoms: C_6  and  C_7
REMARK    5  A    between atoms: C_7  and  C_8
REMARK    6  A    between atoms: C_13  and  O_14
REMARK    7  A    between atoms: O_14  and  C_15
REMARK                            x       y       z     vdW  Elec       q    Type
REMARK                         _______ _______ _______ _____ _____    ______ ____
ROOT
ATOM      1  C   UNL     1       3.189   3.798  17.159  0.00  0.00    +0.000 C 
ENDROOT
BRANCH   1   2
ATOM      2  C   UNL     1       2.584   3.759  18.557  0.00  0.00    +0.000 A 
ATOM      3  C   UNL     1       2.284   2.488  19.075  0.00  0.00    +0.000 A 
ATOM      4  C   UNL     1       1.488   2.321  20.189  0.00  0.00    +0.000 A 
ATOM      5  C   UNL     1       1.095   3.434  20.927  0.00  0.00    +0.000 A 
ATOM      6  C   UNL     1       1.451   4.710  20.479  0.00  0.00    +0.000 A 
ATOM      7  C   UNL     1       2.171   4.900  19.290  0.00  0.00    +0.000 A 
BRANCH   7   8
ATOM      8  O   UNL     1       2.498   6.156  18.827  0.00  0.00    +0.000 OA
ATOM      9  C   UNL     1       2.223   7.221  19.744  0.00  0.00    +0.000 C 
ENDBRANCH   7   8
ENDBRANCH   1   2
BRANCH   1  11
ATOM     10  N   UNL     1       5.322   4.160  18.342  0.00  0.00    +0.000 NA
ATOM     11  C   UNL     1       4.718   3.880  17.229  0.00  0.00    +0.000 C 
BRANCH  10  12
ATOM     12  N   UNL     1       6.678   4.215  18.308  0.00  0.00    +0.000 N 
ATOM     13  H   UNL     1       7.233   3.965  19.125  0.00  0.00    +0.000 HD
BRANCH  12  14
ATOM     14  C   UNL     1       7.387   4.870  17.206  0.00  0.00    +0.000 C 
BRANCH  14  16
ATOM     15  C   UNL     1       7.597   7.657  17.609  0.00  0.00    +0.000 C 
ATOM     16  C   UNL     1       7.500   6.370  17.423  0.00  0.00    +0.000 C 
ENDBRANCH  14  16
ENDBRANCH  12  14
ENDBRANCH  10  12
ENDBRANCH   1  11
TORSDOF 6
ENDMDL
MODEL 4
REMARK VINA RESULT:      -5.9      3.387      4.922
REMARK  Name = 
REMARK  7 active torsions:
REMARK  status: ('A' for Active; 'I' for Inactive)
REMARK    1  A    between atoms: C_2  and  C_3
REMARK    2  A    between atoms: C_3  and  N_4
REMARK    3  A    between atoms: N_4  and  N_5
REMARK    4  A    between atoms: C_6  and  C_7
REMARK    5  A    between atoms: C_7  and  C_8
REMARK    6  A    between atoms: C_13  and  O_14
REMARK    7  A    between atoms: O_14  and  C_15
REMARK                            x       y       z     vdW  Elec       q    Type
REMARK                         _______ _______ _______ _____ _____    ______ ____
ROOT
ATOM      1  C   UNL     1       3.985   4.050  17.184  0.00  0.00    +0.000 C 
ENDROOT
BRANCH   1   2
ATOM      2  C   UNL     1       3.150   4.803  18.214  0.00  0.00    +0.000 A 
ATOM      3  C   UNL     1       3.060   6.195  18.050  0.00  0.00    +0.000 A 
ATOM      4  C   UNL     1       2.583   7.019  19.049  0.00  0.00    +0.000 A 
ATOM      5  C   UNL     1       2.022   6.460  20.193  0.00  0.00    +0.000 A 
ATOM      6  C   UNL     1       2.023   5.070  20.344  0.00  0.00    +0.000 A 
ATOM      7  C   UNL     1       2.600   4.224  19.385  0.00  0.00    +0.000 A 
BRANCH   7   8
ATOM      8  O   UNL     1       2.632   2.856  19.542  0.00  0.00    +0.000 OA
ATOM      9  C   UNL     1       1.463   2.173  19.073  0.00  0.00    +0.000 C 
ENDBRANCH   7   8
ENDBRANCH   1   2
BRANCH   1  11
ATOM     10  N   UNL     1       6.091   4.238  18.452  0.00  0.00    +0.000 NA
ATOM     11  C   UNL     1       5.470   4.400  17.325  0.00  0.00    +0.000 C 
BRANCH  10  12
ATOM     12  N   UNL     1       7.405   4.580  18.484  0.00  0.00    +0.000 N 
ATOM     13  H   UNL     1       8.122   3.932  18.163  0.00  0.00    +0.000 HD
BRANCH  12  14
ATOM     14  C   UNL     1       7.866   5.767  19.208  0.00  0.00    +0.000 C 
BRANCH  14  16
ATOM     15  C   UNL     1       7.831   8.066  17.569  0.00  0.00    +0.000 C 
ATOM     16  C   UNL     1       7.848   7.004  18.326  0.00  0.00    +0.000 C 
ENDBRANCH  14  16
ENDBRANCH  12  14
ENDBRANCH  10  12
ENDBRANCH   1  11
TORSDOF 6
ENDMDL
MODEL 5
REMARK VINA RESULT:      -5.9      2.814      4.124
REMARK  Name = 
REMARK  7 active torsions:
REMARK  status: ('A' for Active; 'I' for Inactive)
REMARK    1  A    between atoms: C_2  and  C_3
REMARK    2  A    between atoms: C_3  and  N_4
REMARK    3  A    between atoms: N_4  and  N_5
REMARK    4  A    between atoms: C_6  and  C_7
REMARK    5  A    between atoms: C_7  and  C_8
REMARK    6  A    between atoms: C_13  and  O_14
REMARK    7  A    between atoms: O_14  and  C_15
REMARK                            x       y       z     vdW  Elec       q    Type
REMARK                         _______ _______ _______ _____ _____    ______ ____
ROOT
ATOM      1  C   UNL     1       3.256   5.907  18.821  0.00  0.00    +0.000 C 
ENDROOT
BRANCH   1   2
ATOM      2  C   UNL     1       2.431   4.825  19.507  0.00  0.00    +0.000 A 
ATOM      3  C   UNL     1       2.499   4.779  20.910  0.00  0.00    +0.000 A 
ATOM      4  C   UNL     1       2.038   3.697  21.629  0.00  0.00    +0.000 A 
ATOM      5  C   UNL     1       1.337   2.685  20.978  0.00  0.00    +0.000 A 
ATOM      6  C   UNL     1       1.180   2.749  19.590  0.00  0.00    +0.000 A 
ATOM      7  C   UNL     1       1.735   3.790  18.832  0.00  0.00    +0.000 A 
BRANCH   7   8
ATOM      8  O   UNL     1       1.611   3.842  17.461  0.00  0.00    +0.000 OA
ATOM      9  C   UNL     1       2.599   3.093  16.743  0.00  0.00    +0.000 C 
ENDBRANCH   7   8
ENDBRANCH   1   2
BRANCH   1  11
ATOM     10  N   UNL     1       5.179   4.394  18.513  0.00  0.00    +0.000 NA
ATOM     11  C   UNL     1       4.750   5.564  18.869  0.00  0.00    +0.000 C 
BRANCH  10  12
ATOM     12  N   UNL     1       6.518   4.180  18.593  0.00  0.00    +0.000 N 
ATOM     13  H   UNL     1       6.946   3.864  19.461  0.00  0.00    +0.000 HD
BRANCH  12  14
ATOM     14  C   UNL     1       7.426   4.631  17.536  0.00  0.00    +0.000 C 
BRANCH  14  16
ATOM     15  C   UNL     1       6.373   4.122  14.966  0.00  0.00    +0.000 C 
ATOM     16  C   UNL     1       6.859   4.357  16.153  0.00  0.00    +0.000 C 
ENDBRANCH  14  16
ENDBRANCH  12  14
ENDBRANCH  10  12
ENDBRANCH   1  11
TORSDOF 6
ENDMDL
MODEL 6
REMARK VINA RESULT:      -5.9      3.704      5.079
REMARK  Name = 
REMARK  7 active torsions:
REMARK  status: ('A' for Active; 'I' for Inactive)
REMARK    1  A    between atoms: C_2  and  C_3
REMARK    2  A    between atoms: C_3  and  N_4
REMARK    3  A    between atoms: N_4  and  N_5
REMARK    4  A    between atoms: C_6  and  C_7
REMARK    5  A    between atoms: C_7  and  C_8
REMARK    6  A    between atoms: C_13  and  O_14
REMARK    7  A    between atoms: O_14  and  C_15
REMARK                            x       y       z     vdW  Elec       q    Type
REMARK                         _______ _______ _______ _____ _____    ______ ____
ROOT
ATOM      1  C   UNL     1       3.323   4.764  17.341  0.00  0.00    +0.000 C 
ENDROOT
BRANCH   1   2
ATOM      2  C   UNL     1       2.485   4.295  18.524  0.00  0.00    +0.000 A 
ATOM      3  C   UNL     1       2.053   5.289  19.419  0.00  0.00    +0.000 A 
ATOM      4  C   UNL     1       1.537   4.980  20.661  0.00  0.00    +0.000 A 
ATOM      5  C   UNL     1       1.282   3.651  20.989  0.00  0.00    +0.000 A 
ATOM      6  C   UNL     1       1.625   2.646  20.080  0.00  0.00    +0.000 A 
ATOM      7  C   UNL     1       2.247   2.938  18.857  0.00  0.00    +0.000 A 
BRANCH   7   8
ATOM      8  O   UNL     1       2.616   1.950  17.971  0.00  0.00    +0.000 OA
ATOM      9  C   UNL     1       3.720   1.144  18.400  0.00  0.00    +0.000 C 
ENDBRANCH   7   8
ENDBRANCH   1   2
BRANCH   1  11
ATOM     10  N   UNL     1       5.435   4.906  18.607  0.00  0.00    +0.000 NA
ATOM     11  C   UNL     1       4.807   4.452  17.568  0.00  0.00    +0.000 C 
BRANCH  10  12
ATOM     12  N   UNL     1       6.748   4.581  18.722  0.00  0.00    +0.000 N 
ATOM     13  H   UNL     1       7.049   3.608  18.725  0.00  0.00    +0.000 HD
BRANCH  12  14
ATOM     14  C   UNL     1       7.751   5.581  19.100  0.00  0.00    +0.000 C 
BRANCH  14  16
ATOM     15  C   UNL     1       7.624   7.864  17.443  0.00  0.00    +0.000 C 
ATOM     16  C   UNL     1       7.682   6.809  18.208  0.00  0.00    +0.000 C 
ENDBRANCH  14  16
ENDBRANCH  12  14
ENDBRANCH  10  12
ENDBRANCH   1  11
TORSDOF 6
ENDMDL
MODEL 7
REMARK VINA RESULT:      -5.8      3.042      4.316
REMARK  Name = 
REMARK  7 active torsions:
REMARK  status: ('A' for Active; 'I' for Inactive)
REMARK    1  A    between atoms: C_2  and  C_3
REMARK    2  A    between atoms: C_3  and  N_4
REMARK    3  A    between atoms: N_4  and  N_5
REMARK    4  A    between atoms: C_6  and  C_7
REMARK    5  A    between atoms: C_7  and  C_8
REMARK    6  A    between atoms: C_13  and  O_14
REMARK    7  A    between atoms: O_14  and  C_15
REMARK                            x       y       z     vdW  Elec       q    Type
REMARK                         _______ _______ _______ _____ _____    ______ ____
ROOT
ATOM      1  C   UNL     1       4.057   4.312  16.655  0.00  0.00    +0.000 C 
ENDROOT
BRANCH   1   2
ATOM      2  C   UNL     1       3.122   3.819  17.752  0.00  0.00    +0.000 A 
ATOM      3  C   UNL     1       3.092   2.431  17.973  0.00  0.00    +0.000 A 
ATOM      4  C   UNL     1       2.102   1.832  18.725  0.00  0.00    +0.000 A 
ATOM      5  C   UNL     1       1.194   2.623  19.422  0.00  0.00    +0.000 A 
ATOM      6  C   UNL     1       1.254   4.013  19.286  0.00  0.00    +0.000 A 
ATOM      7  C   UNL     1       2.188   4.632  18.443  0.00  0.00    +0.000 A 
BRANCH   7   8
ATOM      8  O   UNL     1       2.232   5.999  18.280  0.00  0.00    +0.000 OA
ATOM      9  C   UNL     1       2.746   6.719  19.407  0.00  0.00    +0.000 C 
ENDBRANCH   7   8
ENDBRANCH   1   2
BRANCH   1  11
ATOM     10  N   UNL     1       5.875   4.805  18.247  0.00  0.00    +0.000 NA
ATOM     11  C   UNL     1       5.516   4.267  17.123  0.00  0.00    +0.000 C 
BRANCH  10  12
ATOM     12  N   UNL     1       7.190   4.719  18.577  0.00  0.00    +0.000 N 
ATOM     13  H   UNL     1       7.673   3.822  18.573  0.00  0.00    +0.000 HD
BRANCH  12  14
ATOM     14  C   UNL     1       7.897   5.845  19.192  0.00  0.00    +0.000 C 
BRANCH  14  16
ATOM     15  C   UNL     1       7.804   8.149  17.562  0.00  0.00    +0.000 C 
ATOM     16  C   UNL     1       7.847   7.085  18.315  0.00  0.00    +0.000 C 
ENDBRANCH  14  16
ENDBRANCH  12  14
ENDBRANCH  10  12
ENDBRANCH   1  11
TORSDOF 6
ENDMDL
MODEL 8
REMARK VINA RESULT:      -5.8      1.545      2.738
REMARK  Name = 
REMARK  7 active torsions:
REMARK  status: ('A' for Active; 'I' for Inactive)
REMARK    1  A    between atoms: C_2  and  C_3
REMARK    2  A    between atoms: C_3  and  N_4
REMARK    3  A    between atoms: N_4  and  N_5
REMARK    4  A    between atoms: C_6  and  C_7
REMARK    5  A    between atoms: C_7  and  C_8
REMARK    6  A    between atoms: C_13  and  O_14
REMARK    7  A    between atoms: O_14  and  C_15
REMARK                            x       y       z     vdW  Elec       q    Type
REMARK                         _______ _______ _______ _____ _____    ______ ____
ROOT
ATOM      1  C   UNL     1       6.075   4.599  15.625  0.00  0.00    +0.000 C 
ENDROOT
BRANCH   1   2
ATOM      2  C   UNL     1       4.931   5.187  16.441  0.00  0.00    +0.000 A 
ATOM      3  C   UNL     1       4.868   6.589  16.513  0.00  0.00    +0.000 A 
ATOM      4  C   UNL     1       4.069   7.239  17.431  0.00  0.00    +0.000 A 
ATOM      5  C   UNL     1       3.175   6.507  18.206  0.00  0.00    +0.000 A 
ATOM      6  C   UNL     1       3.157   5.114  18.094  0.00  0.00    +0.000 A 
ATOM      7  C   UNL     1       4.037   4.431  17.241  0.00  0.00    +0.000 A 
BRANCH   7   8
ATOM      8  O   UNL     1       4.046   3.056  17.149  0.00  0.00    +0.000 OA
ATOM      9  C   UNL     1       2.870   2.415  17.659  0.00  0.00    +0.000 C 
ENDBRANCH   7   8
ENDBRANCH   1   2
BRANCH   1  11
ATOM     10  N   UNL     1       6.207   3.570  13.387  0.00  0.00    +0.000 NA
ATOM     11  C   UNL     1       5.684   4.482  14.147  0.00  0.00    +0.000 C 
BRANCH  10  12
ATOM     12  N   UNL     1       5.804   3.546  12.090  0.00  0.00    +0.000 N 
ATOM     13  H   UNL     1       6.162   4.222  11.418  0.00  0.00    +0.000 HD
BRANCH  12  14
ATOM     14  C   UNL     1       4.665   2.730  11.661  0.00  0.00    +0.000 C 
BRANCH  14  16
ATOM     15  C   UNL     1       3.033   4.108   9.814  0.00  0.00    +0.000 C 
ATOM     16  C   UNL     1       3.787   3.471  10.667  0.00  0.00    +0.000 C 
ENDBRANCH  14  16
ENDBRANCH  12  14
ENDBRANCH  10  12
ENDBRANCH   1  11
TORSDOF 6
ENDMDL
MODEL 9
REMARK VINA RESULT:      -5.8      3.678      5.060
REMARK  Name = 
REMARK  7 active torsions:
REMARK  status: ('A' for Active; 'I' for Inactive)
REMARK    1  A    between atoms: C_2  and  C_3
REMARK    2  A    between atoms: C_3  and  N_4
REMARK    3  A    between atoms: N_4  and  N_5
REMARK    4  A    between atoms: C_6  and  C_7
REMARK    5  A    between atoms: C_7  and  C_8
REMARK    6  A    between atoms: C_13  and  O_14
REMARK    7  A    between atoms: O_14  and  C_15
REMARK                            x       y       z     vdW  Elec       q    Type
REMARK                         _______ _______ _______ _____ _____    ______ ____
ROOT
ATOM      1  C   UNL     1       3.108   5.722  18.623  0.00  0.00    +0.000 C 
ENDROOT
BRANCH   1   2
ATOM      2  C   UNL     1       2.371   4.659  19.429  0.00  0.00    +0.000 A 
ATOM      3  C   UNL     1       2.357   4.827  20.824  0.00  0.00    +0.000 A 
ATOM      4  C   UNL     1       1.979   3.813  21.678  0.00  0.00    +0.000 A 
ATOM      5  C   UNL     1       1.440   2.639  21.158  0.00  0.00    +0.000 A 
ATOM      6  C   UNL     1       1.363   2.481  19.772  0.00  0.00    +0.000 A 
ATOM      7  C   UNL     1       1.841   3.460  18.889  0.00  0.00    +0.000 A 
BRANCH   7   8
ATOM      8  O   UNL     1       1.797   3.296  17.522  0.00  0.00    +0.000 OA
ATOM      9  C   UNL     1       2.776   2.390  16.997  0.00  0.00    +0.000 C 
ENDBRANCH   7   8
ENDBRANCH   1   2
BRANCH   1  11
ATOM     10  N   UNL     1       5.446   5.433  19.351  0.00  0.00    +0.000 NA
ATOM     11  C   UNL     1       4.571   5.320  18.402  0.00  0.00    +0.000 C 
BRANCH  10  12
ATOM     12  N   UNL     1       6.719   5.056  19.061  0.00  0.00    +0.000 N 
ATOM     13  H   UNL     1       7.320   4.650  19.776  0.00  0.00    +0.000 HD
BRANCH  12  14
ATOM     14  C   UNL     1       7.361   5.444  17.804  0.00  0.00    +0.000 C 
BRANCH  14  16
ATOM     15  C   UNL     1       7.871   8.220  17.705  0.00  0.00    +0.000 C 
ATOM     16  C   UNL     1       7.636   6.938  17.751  0.00  0.00    +0.000 C 
ENDBRANCH  14  16
ENDBRANCH  12  14
ENDBRANCH  10  12
ENDBRANCH   1  11
TORSDOF 6
ENDMDL
