MODEL 1
REMARK VINA RESULT:      -6.9      0.000      0.000
REMARK  Name = 
REMARK  15 active torsions:
REMARK  status: ('A' for Active; 'I' for Inactive)
REMARK    1  A    between atoms: C_1  and  C_2
REMARK    2  A    between atoms: C_2  and  C_3
REMARK    3  A    between atoms: C_3  and  C_4
REMARK    4  A    between atoms: C_4  and  C_5
REMARK    5  A    between atoms: C_5  and  C_6
REMARK    6  A    between atoms: C_6  and  C_7
REMARK    7  A    between atoms: C_9  and  C_10
REMARK    8  A    between atoms: C_10  and  C_11
REMARK    9  A    between atoms: C_13  and  O_14
REMARK   10  A    between atoms: C_16  and  O_17
REMARK   11  A    between atoms: O_17  and  C_18
REMARK   12  A    between atoms: C_18  and  C_19
REMARK   13  A    between atoms: C_19  and  C_20
REMARK   14  A    between atoms: C_20  and  C_21
REMARK   15  A    between atoms: C_21  and  C_22
REMARK                            x       y       z     vdW  Elec       q    Type
REMARK                         _______ _______ _______ _____ _____    ______ ____
ROOT
ATOM      1  C   UNL     1       3.163   4.950  17.477  0.00  0.00    +0.000 A 
ATOM      2  C   UNL     1       4.272   4.370  16.808  0.00  0.00    +0.000 A 
ATOM      3  C   UNL     1       5.429   5.102  16.503  0.00  0.00    +0.000 A 
ATOM      4  C   UNL     1       5.488   6.430  16.906  0.00  0.00    +0.000 A 
ATOM      5  C   UNL     1       4.425   7.005  17.574  0.00  0.00    +0.000 A 
ATOM      6  C   UNL     1       3.247   6.301  17.870  0.00  0.00    +0.000 A 
ENDROOT
BRANCH   3   7
ATOM      7  C   UNL     1       6.581   4.529  15.756  0.00  0.00    +0.000 C 
ATOM      8  C   UNL     1       6.426   3.973  14.370  0.00  0.00    +0.000 C 
ATOM      9  O   UNL     1       7.691   4.536  16.296  0.00  0.00    +0.000 OA
ENDBRANCH   3   7
BRANCH   4  10
ATOM     10  O   UNL     1       6.540   7.258  16.685  0.00  0.00    +0.000 OA
ATOM     11  H   UNL     1       6.461   7.631  15.781  0.00  0.00    +0.000 HD
ENDBRANCH   4  10
BRANCH   1  12
ATOM     12  C   UNL     1       1.969   4.041  17.694  0.00  0.00    +0.000 C 
BRANCH  12  13
ATOM     13  C   UNL     1       2.353   2.557  17.788  0.00  0.00    +0.000 C 
BRANCH  13  14
ATOM     14  C   UNL     1       1.826   1.910  19.075  0.00  0.00    +0.000 C 
BRANCH  14  15
ATOM     15  C   UNL     1       0.869   2.845  19.821  0.00  0.00    +0.000 C 
BRANCH  15  17
ATOM     16  C   UNL     1       2.200   4.401  21.289  0.00  0.00    +0.000 C 
ATOM     17  C   UNL     1       1.356   3.136  21.241  0.00  0.00    +0.000 C 
ENDBRANCH  15  17
ENDBRANCH  14  15
ENDBRANCH  13  14
ENDBRANCH  12  13
ENDBRANCH   1  12
BRANCH   6  18
ATOM     18  O   UNL     1       2.190   6.912  18.519  0.00  0.00    +0.000 OA
BRANCH  18  19
ATOM     19  C   UNL     1       2.389   8.332  18.678  0.00  0.00    +0.000 C 
BRANCH  19  20
ATOM     20  C   UNL     1       1.138   9.160  18.505  0.00  0.00    +0.000 C 
BRANCH  20  21
ATOM     21  C   UNL     1       0.646   9.690  19.840  0.00  0.00    +0.000 C 
BRANCH  21  22
ATOM     22  C   UNL     1       1.171   8.794  20.935  0.00  0.00    +0.000 C 
BRANCH  22  23
ATOM     23  C   UNL     1       0.742   9.287  22.308  0.00  0.00    +0.000 C 
ATOM     24  N   UNL     1       0.386   9.696  23.446  0.00  0.00    +0.000 NA
ENDBRANCH  22  23
ENDBRANCH  21  22
ENDBRANCH  20  21
ENDBRANCH  19  20
ENDBRANCH  18  19
ENDBRANCH   6  18
TORSDOF 13
ENDMDL
MODEL 2
REMARK VINA RESULT:      -6.9      2.169      5.044
REMARK  Name = 
REMARK  15 active torsions:
REMARK  status: ('A' for Active; 'I' for Inactive)
REMARK    1  A    between atoms: C_1  and  C_2
REMARK    2  A    between atoms: C_2  and  C_3
REMARK    3  A    between atoms: C_3  and  C_4
REMARK    4  A    between atoms: C_4  and  C_5
REMARK    5  A    between atoms: C_5  and  C_6
REMARK    6  A    between atoms: C_6  and  C_7
REMARK    7  A    between atoms: C_9  and  C_10
REMARK    8  A    between atoms: C_10  and  C_11
REMARK    9  A    between atoms: C_13  and  O_14
REMARK   10  A    between atoms: C_16  and  O_17
REMARK   11  A    between atoms: O_17  and  C_18
REMARK   12  A    between atoms: C_18  and  C_19
REMARK   13  A    between atoms: C_19  and  C_20
REMARK   14  A    between atoms: C_20  and  C_21
REMARK   15  A    between atoms: C_21  and  C_22
REMARK                            x       y       z     vdW  Elec       q    Type
REMARK                         _______ _______ _______ _____ _____    ______ ____
ROOT
ATOM      1  C   UNL     1       3.892   5.552  17.646  0.00  0.00    +0.000 A 
ATOM      2  C   UNL     1       5.013   6.356  17.976  0.00  0.00    +0.000 A 
ATOM      3  C   UNL     1       6.331   5.925  17.768  0.00  0.00    +0.000 A 
ATOM      4  C   UNL     1       6.527   4.679  17.186  0.00  0.00    +0.000 A 
ATOM      5  C   UNL     1       5.447   3.891  16.841  0.00  0.00    +0.000 A 
ATOM      6  C   UNL     1       4.120   4.290  17.062  0.00  0.00    +0.000 A 
ENDROOT
BRANCH   3   7
ATOM      7  C   UNL     1       7.521   6.729  18.155  0.00  0.00    +0.000 C 
ATOM      8  C   UNL     1       7.788   8.082  17.562  0.00  0.00    +0.000 C 
ATOM      9  O   UNL     1       8.291   6.266  19.002  0.00  0.00    +0.000 OA
ENDBRANCH   3   7
BRANCH   4  10
ATOM     10  O   UNL     1       7.742   4.134  16.920  0.00  0.00    +0.000 OA
ATOM     11  H   UNL     1       7.825   4.012  15.950  0.00  0.00    +0.000 HD
ENDBRANCH   4  10
BRANCH   1  12
ATOM     12  C   UNL     1       2.533   6.140  17.974  0.00  0.00    +0.000 C 
BRANCH  12  13
ATOM     13  C   UNL     1       2.622   7.473  18.731  0.00  0.00    +0.000 C 
BRANCH  13  14
ATOM     14  C   UNL     1       2.447   8.676  17.794  0.00  0.00    +0.000 C 
BRANCH  14  15
ATOM     15  C   UNL     1       1.049   9.287  17.924  0.00  0.00    +0.000 C 
BRANCH  15  17
ATOM     16  C   UNL     1       0.149   9.989  20.170  0.00  0.00    +0.000 C 
ATOM     17  C   UNL     1       1.010  10.391  18.982  0.00  0.00    +0.000 C 
ENDBRANCH  15  17
ENDBRANCH  14  15
ENDBRANCH  13  14
ENDBRANCH  12  13
ENDBRANCH   1  12
BRANCH   6  18
ATOM     18  O   UNL     1       3.059   3.467  16.728  0.00  0.00    +0.000 OA
BRANCH  18  19
ATOM     19  C   UNL     1       3.111   2.198  17.413  0.00  0.00    +0.000 C 
BRANCH  19  20
ATOM     20  C   UNL     1       2.629   2.243  18.844  0.00  0.00    +0.000 C 
BRANCH  20  21
ATOM     21  C   UNL     1       1.134   2.501  18.907  0.00  0.00    +0.000 C 
BRANCH  21  22
ATOM     22  C   UNL     1       0.873   3.559  19.952  0.00  0.00    +0.000 C 
BRANCH  22  23
ATOM     23  C   UNL     1       1.630   3.267  21.238  0.00  0.00    +0.000 C 
ATOM     24  N   UNL     1       2.258   3.024  22.304  0.00  0.00    +0.000 NA
ENDBRANCH  22  23
ENDBRANCH  21  22
ENDBRANCH  20  21
ENDBRANCH  19  20
ENDBRANCH  18  19
ENDBRANCH   6  18
TORSDOF 13
ENDMDL
MODEL 3
REMARK VINA RESULT:      -6.9      2.167      4.758
REMARK  Name = 
REMARK  15 active torsions:
REMARK  status: ('A' for Active; 'I' for Inactive)
REMARK    1  A    between atoms: C_1  and  C_2
REMARK    2  A    between atoms: C_2  and  C_3
REMARK    3  A    between atoms: C_3  and  C_4
REMARK    4  A    between atoms: C_4  and  C_5
REMARK    5  A    between atoms: C_5  and  C_6
REMARK    6  A    between atoms: C_6  and  C_7
REMARK    7  A    between atoms: C_9  and  C_10
REMARK    8  A    between atoms: C_10  and  C_11
REMARK    9  A    between atoms: C_13  and  O_14
REMARK   10  A    between atoms: C_16  and  O_17
REMARK   11  A    between atoms: O_17  and  C_18
REMARK   12  A    between atoms: C_18  and  C_19
REMARK   13  A    between atoms: C_19  and  C_20
REMARK   14  A    between atoms: C_20  and  C_21
REMARK   15  A    between atoms: C_21  and  C_22
REMARK                            x       y       z     vdW  Elec       q    Type
REMARK                         _______ _______ _______ _____ _____    ______ ____
ROOT
ATOM      1  C   UNL     1       3.617   5.586  17.844  0.00  0.00    +0.000 A 
ATOM      2  C   UNL     1       4.831   6.317  17.911  0.00  0.00    +0.000 A 
ATOM      3  C   UNL     1       6.044   5.800  17.433  0.00  0.00    +0.000 A 
ATOM      4  C   UNL     1       6.032   4.541  16.846  0.00  0.00    +0.000 A 
ATOM      5  C   UNL     1       4.856   3.824  16.755  0.00  0.00    +0.000 A 
ATOM      6  C   UNL     1       3.634   4.309  17.248  0.00  0.00    +0.000 A 
ENDROOT
BRANCH   3   7
ATOM      7  C   UNL     1       7.338   6.526  17.542  0.00  0.00    +0.000 C 
ATOM      8  C   UNL     1       8.094   6.602  18.836  0.00  0.00    +0.000 C 
ATOM      9  O   UNL     1       7.797   7.060  16.528  0.00  0.00    +0.000 OA
ENDBRANCH   3   7
BRANCH   4  10
ATOM     10  O   UNL     1       7.124   3.916  16.336  0.00  0.00    +0.000 OA
ATOM     11  H   UNL     1       6.887   3.533  15.465  0.00  0.00    +0.000 HD
ENDBRANCH   4  10
BRANCH   1  12
ATOM     12  C   UNL     1       2.400   6.263  18.445  0.00  0.00    +0.000 C 
BRANCH  12  13
ATOM     13  C   UNL     1       2.640   6.774  19.872  0.00  0.00    +0.000 C 
BRANCH  13  14
ATOM     14  C   UNL     1       1.324   7.032  20.618  0.00  0.00    +0.000 C 
BRANCH  14  15
ATOM     15  C   UNL     1       1.201   8.497  21.044  0.00  0.00    +0.000 C 
BRANCH  15  17
ATOM     16  C   UNL     1      -0.010   9.390  23.065  0.00  0.00    +0.000 C 
ATOM     17  C   UNL     1      -0.161   8.790  21.675  0.00  0.00    +0.000 C 
ENDBRANCH  15  17
ENDBRANCH  14  15
ENDBRANCH  13  14
ENDBRANCH  12  13
ENDBRANCH   1  12
BRANCH   6  18
ATOM     18  O   UNL     1       2.477   3.556  17.164  0.00  0.00    +0.000 OA
BRANCH  18  19
ATOM     19  C   UNL     1       2.655   2.217  17.671  0.00  0.00    +0.000 C 
BRANCH  19  20
ATOM     20  C   UNL     1       1.866   1.916  18.923  0.00  0.00    +0.000 C 
BRANCH  20  21
ATOM     21  C   UNL     1       0.646   2.813  19.027  0.00  0.00    +0.000 C 
BRANCH  21  22
ATOM     22  C   UNL     1       0.731   3.594  20.315  0.00  0.00    +0.000 C 
BRANCH  22  23
ATOM     23  C   UNL     1       1.789   3.018  21.244  0.00  0.00    +0.000 C 
ATOM     24  N   UNL     1       2.666   2.540  22.013  0.00  0.00    +0.000 NA
ENDBRANCH  22  23
ENDBRANCH  21  22
ENDBRANCH  20  21
ENDBRANCH  19  20
ENDBRANCH  18  19
ENDBRANCH   6  18
TORSDOF 13
ENDMDL
MODEL 4
REMARK VINA RESULT:      -6.8      2.441      5.138
REMARK  Name = 
REMARK  15 active torsions:
REMARK  status: ('A' for Active; 'I' for Inactive)
REMARK    1  A    between atoms: C_1  and  C_2
REMARK    2  A    between atoms: C_2  and  C_3
REMARK    3  A    between atoms: C_3  and  C_4
REMARK    4  A    between atoms: C_4  and  C_5
REMARK    5  A    between atoms: C_5  and  C_6
REMARK    6  A    between atoms: C_6  and  C_7
REMARK    7  A    between atoms: C_9  and  C_10
REMARK    8  A    between atoms: C_10  and  C_11
REMARK    9  A    between atoms: C_13  and  O_14
REMARK   10  A    between atoms: C_16  and  O_17
REMARK   11  A    between atoms: O_17  and  C_18
REMARK   12  A    between atoms: C_18  and  C_19
REMARK   13  A    between atoms: C_19  and  C_20
REMARK   14  A    between atoms: C_20  and  C_21
REMARK   15  A    between atoms: C_21  and  C_22
REMARK                            x       y       z     vdW  Elec       q    Type
REMARK                         _______ _______ _______ _____ _____    ______ ____
ROOT
ATOM      1  C   UNL     1       3.058   5.725  17.923  0.00  0.00    +0.000 A 
ATOM      2  C   UNL     1       4.395   6.190  17.830  0.00  0.00    +0.000 A 
ATOM      3  C   UNL     1       5.428   5.400  17.305  0.00  0.00    +0.000 A 
ATOM      4  C   UNL     1       5.108   4.135  16.832  0.00  0.00    +0.000 A 
ATOM      5  C   UNL     1       3.808   3.673  16.896  0.00  0.00    +0.000 A 
ATOM      6  C   UNL     1       2.761   4.435  17.440  0.00  0.00    +0.000 A 
ENDROOT
BRANCH   3   7
ATOM      7  C   UNL     1       6.846   5.847  17.249  0.00  0.00    +0.000 C 
ATOM      8  C   UNL     1       7.635   6.131  18.494  0.00  0.00    +0.000 C 
ATOM      9  O   UNL     1       7.379   5.966  16.141  0.00  0.00    +0.000 OA
ENDBRANCH   3   7
BRANCH   4  10
ATOM     10  O   UNL     1       5.998   3.263  16.294  0.00  0.00    +0.000 OA
ATOM     11  H   UNL     1       5.795   3.155  15.340  0.00  0.00    +0.000 HD
ENDBRANCH   4  10
BRANCH   1  12
ATOM     12  C   UNL     1       2.064   6.680  18.556  0.00  0.00    +0.000 C 
BRANCH  12  13
ATOM     13  C   UNL     1       2.483   8.151  18.432  0.00  0.00    +0.000 C 
BRANCH  13  14
ATOM     14  C   UNL     1       1.430   8.986  17.690  0.00  0.00    +0.000 C 
BRANCH  14  15
ATOM     15  C   UNL     1       0.688   9.926  18.645  0.00  0.00    +0.000 C 
BRANCH  15  17
ATOM     16  C   UNL     1      -0.251  10.018  20.981  0.00  0.00    +0.000 C 
ATOM     17  C   UNL     1       0.893   9.524  20.106  0.00  0.00    +0.000 C 
ENDBRANCH  15  17
ENDBRANCH  14  15
ENDBRANCH  13  14
ENDBRANCH  12  13
ENDBRANCH   1  12
BRANCH   6  18
ATOM     18  O   UNL     1       1.474   3.935  17.513  0.00  0.00    +0.000 OA
BRANCH  18  19
ATOM     19  C   UNL     1       1.368   2.819  18.422  0.00  0.00    +0.000 C 
BRANCH  19  20
ATOM     20  C   UNL     1       0.655   3.135  19.715  0.00  0.00    +0.000 C 
BRANCH  20  21
ATOM     21  C   UNL     1       1.437   2.615  20.909  0.00  0.00    +0.000 C 
BRANCH  21  22
ATOM     22  C   UNL     1       2.705   3.422  21.040  0.00  0.00    +0.000 C 
BRANCH  22  23
ATOM     23  C   UNL     1       3.922   2.615  20.617  0.00  0.00    +0.000 C 
ATOM     24  N   UNL     1       4.932   1.945  20.266  0.00  0.00    +0.000 NA
ENDBRANCH  22  23
ENDBRANCH  21  22
ENDBRANCH  20  21
ENDBRANCH  19  20
ENDBRANCH  18  19
ENDBRANCH   6  18
TORSDOF 13
ENDMDL
MODEL 5
REMARK VINA RESULT:      -6.7      2.435      4.972
REMARK  Name = 
REMARK  15 active torsions:
REMARK  status: ('A' for Active; 'I' for Inactive)
REMARK    1  A    between atoms: C_1  and  C_2
REMARK    2  A    between atoms: C_2  and  C_3
REMARK    3  A    between atoms: C_3  and  C_4
REMARK    4  A    between atoms: C_4  and  C_5
REMARK    5  A    between atoms: C_5  and  C_6
REMARK    6  A    between atoms: C_6  and  C_7
REMARK    7  A    between atoms: C_9  and  C_10
REMARK    8  A    between atoms: C_10  and  C_11
REMARK    9  A    between atoms: C_13  and  O_14
REMARK   10  A    between atoms: C_16  and  O_17
REMARK   11  A    between atoms: O_17  and  C_18
REMARK   12  A    between atoms: C_18  and  C_19
REMARK   13  A    between atoms: C_19  and  C_20
REMARK   14  A    between atoms: C_20  and  C_21
REMARK   15  A    between atoms: C_21  and  C_22
REMARK                            x       y       z     vdW  Elec       q    Type
REMARK                         _______ _______ _______ _____ _____    ______ ____
ROOT
ATOM      1  C   UNL     1       3.245   6.165  17.859  0.00  0.00    +0.000 A 
ATOM      2  C   UNL     1       4.583   6.576  17.629  0.00  0.00    +0.000 A 
ATOM      3  C   UNL     1       5.561   5.702  17.132  0.00  0.00    +0.000 A 
ATOM      4  C   UNL     1       5.180   4.402  16.827  0.00  0.00    +0.000 A 
ATOM      5  C   UNL     1       3.877   3.989  17.026  0.00  0.00    +0.000 A 
ATOM      6  C   UNL     1       2.887   4.839  17.546  0.00  0.00    +0.000 A 
ENDROOT
BRANCH   3   7
ATOM      7  C   UNL     1       6.981   6.097  16.934  0.00  0.00    +0.000 C 
ATOM      8  C   UNL     1       7.746   6.848  17.985  0.00  0.00    +0.000 C 
ATOM      9  O   UNL     1       7.537   5.775  15.879  0.00  0.00    +0.000 OA
ENDBRANCH   3   7
BRANCH   4  10
ATOM     10  O   UNL     1       6.012   3.448  16.335  0.00  0.00    +0.000 OA
ATOM     11  H   UNL     1       5.477   2.667  16.079  0.00  0.00    +0.000 HD
ENDBRANCH   4  10
BRANCH   1  12
ATOM     12  C   UNL     1       2.318   7.215  18.443  0.00  0.00    +0.000 C 
BRANCH  12  13
ATOM     13  C   UNL     1       2.171   7.104  19.967  0.00  0.00    +0.000 C 
BRANCH  13  14
ATOM     14  C   UNL     1       1.596   8.387  20.581  0.00  0.00    +0.000 C 
BRANCH  14  15
ATOM     15  C   UNL     1       0.318   8.103  21.376  0.00  0.00    +0.000 C 
BRANCH  15  17
ATOM     16  C   UNL     1      -0.108   9.569  23.380  0.00  0.00    +0.000 C 
ATOM     17  C   UNL     1      -0.329   9.392  21.885  0.00  0.00    +0.000 C 
ENDBRANCH  15  17
ENDBRANCH  14  15
ENDBRANCH  13  14
ENDBRANCH  12  13
ENDBRANCH   1  12
BRANCH   6  18
ATOM     18  O   UNL     1       1.596   4.389  17.758  0.00  0.00    +0.000 OA
BRANCH  18  19
ATOM     19  C   UNL     1       1.563   3.083  18.370  0.00  0.00    +0.000 C 
BRANCH  19  20
ATOM     20  C   UNL     1       0.685   2.993  19.596  0.00  0.00    +0.000 C 
BRANCH  20  21
ATOM     21  C   UNL     1       1.486   2.552  20.808  0.00  0.00    +0.000 C 
BRANCH  21  22
ATOM     22  C   UNL     1       2.745   3.380  20.878  0.00  0.00    +0.000 C 
BRANCH  22  23
ATOM     23  C   UNL     1       3.981   2.532  20.623  0.00  0.00    +0.000 C 
ATOM     24  N   UNL     1       5.007   1.829  20.411  0.00  0.00    +0.000 NA
ENDBRANCH  22  23
ENDBRANCH  21  22
ENDBRANCH  20  21
ENDBRANCH  19  20
ENDBRANCH  18  19
ENDBRANCH   6  18
TORSDOF 13
ENDMDL
MODEL 6
REMARK VINA RESULT:      -6.7      3.991      7.064
REMARK  Name = 
REMARK  15 active torsions:
REMARK  status: ('A' for Active; 'I' for Inactive)
REMARK    1  A    between atoms: C_1  and  C_2
REMARK    2  A    between atoms: C_2  and  C_3
REMARK    3  A    between atoms: C_3  and  C_4
REMARK    4  A    between atoms: C_4  and  C_5
REMARK    5  A    between atoms: C_5  and  C_6
REMARK    6  A    between atoms: C_6  and  C_7
REMARK    7  A    between atoms: C_9  and  C_10
REMARK    8  A    between atoms: C_10  and  C_11
REMARK    9  A    between atoms: C_13  and  O_14
REMARK   10  A    between atoms: C_16  and  O_17
REMARK   11  A    between atoms: O_17  and  C_18
REMARK   12  A    between atoms: C_18  and  C_19
REMARK   13  A    between atoms: C_19  and  C_20
REMARK   14  A    between atoms: C_20  and  C_21
REMARK   15  A    between atoms: C_21  and  C_22
REMARK                            x       y       z     vdW  Elec       q    Type
REMARK                         _______ _______ _______ _____ _____    ______ ____
ROOT
ATOM      1  C   UNL     1       6.062   4.865  15.863  0.00  0.00    +0.000 A 
ATOM      2  C   UNL     1       4.898   4.071  16.035  0.00  0.00    +0.000 A 
ATOM      3  C   UNL     1       4.017   4.258  17.110  0.00  0.00    +0.000 A 
ATOM      4  C   UNL     1       4.289   5.281  18.009  0.00  0.00    +0.000 A 
ATOM      5  C   UNL     1       5.406   6.076  17.846  0.00  0.00    +0.000 A 
ATOM      6  C   UNL     1       6.316   5.893  16.793  0.00  0.00    +0.000 A 
ENDROOT
BRANCH   3   7
ATOM      7  C   UNL     1       2.821   3.402  17.340  0.00  0.00    +0.000 C 
ATOM      8  C   UNL     1       2.945   1.973  17.779  0.00  0.00    +0.000 C 
ATOM      9  O   UNL     1       1.704   3.902  17.177  0.00  0.00    +0.000 OA
ENDBRANCH   3   7
BRANCH   4  10
ATOM     10  O   UNL     1       3.526   5.581  19.091  0.00  0.00    +0.000 OA
ATOM     11  H   UNL     1       3.743   4.952  19.811  0.00  0.00    +0.000 HD
ENDBRANCH   4  10
BRANCH   1  12
ATOM     12  C   UNL     1       6.938   4.511  14.677  0.00  0.00    +0.000 C 
BRANCH  12  13
ATOM     13  C   UNL     1       6.167   3.814  13.547  0.00  0.00    +0.000 C 
BRANCH  13  14
ATOM     14  C   UNL     1       6.825   4.041  12.180  0.00  0.00    +0.000 C 
BRANCH  14  15
ATOM     15  C   UNL     1       6.998   2.725  11.417  0.00  0.00    +0.000 C 
BRANCH  15  17
ATOM     16  C   UNL     1       6.097   0.387  11.151  0.00  0.00    +0.000 C 
ATOM     17  C   UNL     1       5.782   1.812  11.582  0.00  0.00    +0.000 C 
ENDBRANCH  15  17
ENDBRANCH  14  15
ENDBRANCH  13  14
ENDBRANCH  12  13
ENDBRANCH   1  12
BRANCH   6  18
ATOM     18  O   UNL     1       7.441   6.690  16.670  0.00  0.00    +0.000 OA
BRANCH  18  19
ATOM     19  C   UNL     1       7.741   7.407  17.886  0.00  0.00    +0.000 C 
BRANCH  19  20
ATOM     20  C   UNL     1       7.886   8.900  17.708  0.00  0.00    +0.000 C 
BRANCH  20  21
ATOM     21  C   UNL     1       8.829   9.483  18.745  0.00  0.00    +0.000 C 
BRANCH  21  22
ATOM     22  C   UNL     1       9.181  10.892  18.336  0.00  0.00    +0.000 C 
BRANCH  22  23
ATOM     23  C   UNL     1      10.568  11.280  18.825  0.00  0.00    +0.000 C 
ATOM     24  N   UNL     1      11.717  11.603  19.231  0.00  0.00    +0.000 NA
ENDBRANCH  22  23
ENDBRANCH  21  22
ENDBRANCH  20  21
ENDBRANCH  19  20
ENDBRANCH  18  19
ENDBRANCH   6  18
TORSDOF 13
ENDMDL
MODEL 7
REMARK VINA RESULT:      -6.7      2.628      5.485
REMARK  Name = 
REMARK  15 active torsions:
REMARK  status: ('A' for Active; 'I' for Inactive)
REMARK    1  A    between atoms: C_1  and  C_2
REMARK    2  A    between atoms: C_2  and  C_3
REMARK    3  A    between atoms: C_3  and  C_4
REMARK    4  A    between atoms: C_4  and  C_5
REMARK    5  A    between atoms: C_5  and  C_6
REMARK    6  A    between atoms: C_6  and  C_7
REMARK    7  A    between atoms: C_9  and  C_10
REMARK    8  A    between atoms: C_10  and  C_11
REMARK    9  A    between atoms: C_13  and  O_14
REMARK   10  A    between atoms: C_16  and  O_17
REMARK   11  A    between atoms: O_17  and  C_18
REMARK   12  A    between atoms: C_18  and  C_19
REMARK   13  A    between atoms: C_19  and  C_20
REMARK   14  A    between atoms: C_20  and  C_21
REMARK   15  A    between atoms: C_21  and  C_22
REMARK                            x       y       z     vdW  Elec       q    Type
REMARK                         _______ _______ _______ _____ _____    ______ ____
ROOT
ATOM      1  C   UNL     1       3.224   6.740  18.133  0.00  0.00    +0.000 A 
ATOM      2  C   UNL     1       4.439   7.032  17.463  0.00  0.00    +0.000 A 
ATOM      3  C   UNL     1       5.645   6.392  17.786  0.00  0.00    +0.000 A 
ATOM      4  C   UNL     1       5.624   5.418  18.775  0.00  0.00    +0.000 A 
ATOM      5  C   UNL     1       4.446   5.107  19.425  0.00  0.00    +0.000 A 
ATOM      6  C   UNL     1       3.232   5.750  19.137  0.00  0.00    +0.000 A 
ENDROOT
BRANCH   3   7
ATOM      7  C   UNL     1       6.941   6.722  17.133  0.00  0.00    +0.000 C 
ATOM      8  C   UNL     1       7.707   7.965  17.480  0.00  0.00    +0.000 C 
ATOM      9  O   UNL     1       7.394   5.932  16.300  0.00  0.00    +0.000 OA
ENDBRANCH   3   7
BRANCH   4  10
ATOM     10  O   UNL     1       6.709   4.714  19.190  0.00  0.00    +0.000 OA
ATOM     11  H   UNL     1       7.301   5.317  19.688  0.00  0.00    +0.000 HD
ENDBRANCH   4  10
BRANCH   1  12
ATOM     12  C   UNL     1       2.015   7.548  17.701  0.00  0.00    +0.000 C 
BRANCH  12  13
ATOM     13  C   UNL     1       2.174   9.052  17.965  0.00  0.00    +0.000 C 
BRANCH  13  14
ATOM     14  C   UNL     1       1.235   9.541  19.076  0.00  0.00    +0.000 C 
BRANCH  14  15
ATOM     15  C   UNL     1       0.247  10.587  18.553  0.00  0.00    +0.000 C 
BRANCH  15  17
ATOM     16  C   UNL     1      -1.819  10.039  17.219  0.00  0.00    +0.000 C 
ATOM     17  C   UNL     1      -1.195  10.079  18.606  0.00  0.00    +0.000 C 
ENDBRANCH  15  17
ENDBRANCH  14  15
ENDBRANCH  13  14
ENDBRANCH  12  13
ENDBRANCH   1  12
BRANCH   6  18
ATOM     18  O   UNL     1       2.073   5.434  19.823  0.00  0.00    +0.000 OA
BRANCH  18  19
ATOM     19  C   UNL     1       2.337   4.727  21.052  0.00  0.00    +0.000 C 
BRANCH  19  20
ATOM     20  C   UNL     1       1.556   3.444  21.212  0.00  0.00    +0.000 C 
BRANCH  20  21
ATOM     21  C   UNL     1       0.761   3.130  19.957  0.00  0.00    +0.000 C 
BRANCH  21  22
ATOM     22  C   UNL     1       1.477   2.043  19.194  0.00  0.00    +0.000 C 
BRANCH  22  23
ATOM     23  C   UNL     1       2.078   2.576  17.903  0.00  0.00    +0.000 C 
ATOM     24  N   UNL     1       2.576   3.017  16.832  0.00  0.00    +0.000 NA
ENDBRANCH  22  23
ENDBRANCH  21  22
ENDBRANCH  20  21
ENDBRANCH  19  20
ENDBRANCH  18  19
ENDBRANCH   6  18
TORSDOF 13
ENDMDL
MODEL 8
REMARK VINA RESULT:      -6.7      2.155      5.013
REMARK  Name = 
REMARK  15 active torsions:
REMARK  status: ('A' for Active; 'I' for Inactive)
REMARK    1  A    between atoms: C_1  and  C_2
REMARK    2  A    between atoms: C_2  and  C_3
REMARK    3  A    between atoms: C_3  and  C_4
REMARK    4  A    between atoms: C_4  and  C_5
REMARK    5  A    between atoms: C_5  and  C_6
REMARK    6  A    between atoms: C_6  and  C_7
REMARK    7  A    between atoms: C_9  and  C_10
REMARK    8  A    between atoms: C_10  and  C_11
REMARK    9  A    between atoms: C_13  and  O_14
REMARK   10  A    between atoms: C_16  and  O_17
REMARK   11  A    between atoms: O_17  and  C_18
REMARK   12  A    between atoms: C_18  and  C_19
REMARK   13  A    between atoms: C_19  and  C_20
REMARK   14  A    between atoms: C_20  and  C_21
REMARK   15  A    between atoms: C_21  and  C_22
REMARK                            x       y       z     vdW  Elec       q    Type
REMARK                         _______ _______ _______ _____ _____    ______ ____
ROOT
ATOM      1  C   UNL     1       3.645   5.448  18.045  0.00  0.00    +0.000 A 
ATOM      2  C   UNL     1       4.863   6.170  18.127  0.00  0.00    +0.000 A 
ATOM      3  C   UNL     1       6.005   5.798  17.403  0.00  0.00    +0.000 A 
ATOM      4  C   UNL     1       5.913   4.701  16.556  0.00  0.00    +0.000 A 
ATOM      5  C   UNL     1       4.729   3.998  16.449  0.00  0.00    +0.000 A 
ATOM      6  C   UNL     1       3.580   4.336  17.181  0.00  0.00    +0.000 A 
ENDROOT
BRANCH   3   7
ATOM      7  C   UNL     1       7.307   6.508  17.516  0.00  0.00    +0.000 C 
ATOM      8  C   UNL     1       8.046   6.602  18.819  0.00  0.00    +0.000 C 
ATOM      9  O   UNL     1       7.788   7.013  16.497  0.00  0.00    +0.000 OA
ENDBRANCH   3   7
BRANCH   4  10
ATOM     10  O   UNL     1       6.930   4.228  15.792  0.00  0.00    +0.000 OA
ATOM     11  H   UNL     1       6.797   3.266  15.653  0.00  0.00    +0.000 HD
ENDBRANCH   4  10
BRANCH   1  12
ATOM     12  C   UNL     1       2.514   5.948  18.924  0.00  0.00    +0.000 C 
BRANCH  12  13
ATOM     13  C   UNL     1       2.480   7.478  19.043  0.00  0.00    +0.000 C 
BRANCH  13  14
ATOM     14  C   UNL     1       2.062   8.146  17.726  0.00  0.00    +0.000 C 
BRANCH  14  15
ATOM     15  C   UNL     1       1.365   9.486  17.976  0.00  0.00    +0.000 C 
BRANCH  15  17
ATOM     16  C   UNL     1       0.839  11.112  19.828  0.00  0.00    +0.000 C 
ATOM     17  C   UNL     1       0.950   9.644  19.440  0.00  0.00    +0.000 C 
ENDBRANCH  15  17
ENDBRANCH  14  15
ENDBRANCH  13  14
ENDBRANCH  12  13
ENDBRANCH   1  12
BRANCH   6  18
ATOM     18  O   UNL     1       2.416   3.596  17.071  0.00  0.00    +0.000 OA
BRANCH  18  19
ATOM     19  C   UNL     1       2.574   2.248  17.558  0.00  0.00    +0.000 C 
BRANCH  19  20
ATOM     20  C   UNL     1       1.910   1.986  18.890  0.00  0.00    +0.000 C 
BRANCH  20  21
ATOM     21  C   UNL     1       0.670   2.846  19.058  0.00  0.00    +0.000 C 
BRANCH  21  22
ATOM     22  C   UNL     1       0.653   3.394  20.464  0.00  0.00    +0.000 C 
BRANCH  22  23
ATOM     23  C   UNL     1       1.842   2.892  21.269  0.00  0.00    +0.000 C 
ATOM     24  N   UNL     1       2.827   2.475  21.937  0.00  0.00    +0.000 NA
ENDBRANCH  22  23
ENDBRANCH  21  22
ENDBRANCH  20  21
ENDBRANCH  19  20
ENDBRANCH  18  19
ENDBRANCH   6  18
TORSDOF 13
ENDMDL
MODEL 9
REMARK VINA RESULT:      -6.7      1.997      2.497
REMARK  Name = 
REMARK  15 active torsions:
REMARK  status: ('A' for Active; 'I' for Inactive)
REMARK    1  A    between atoms: C_1  and  C_2
REMARK    2  A    between atoms: C_2  and  C_3
REMARK    3  A    between atoms: C_3  and  C_4
REMARK    4  A    between atoms: C_4  and  C_5
REMARK    5  A    between atoms: C_5  and  C_6
REMARK    6  A    between atoms: C_6  and  C_7
REMARK    7  A    between atoms: C_9  and  C_10
REMARK    8  A    between atoms: C_10  and  C_11
REMARK    9  A    between atoms: C_13  and  O_14
REMARK   10  A    between atoms: C_16  and  O_17
REMARK   11  A    between atoms: O_17  and  C_18
REMARK   12  A    between atoms: C_18  and  C_19
REMARK   13  A    between atoms: C_19  and  C_20
REMARK   14  A    between atoms: C_20  and  C_21
REMARK   15  A    between atoms: C_21  and  C_22
REMARK                            x       y       z     vdW  Elec       q    Type
REMARK                         _______ _______ _______ _____ _____    ______ ____
ROOT
ATOM      1  C   UNL     1       4.851   3.813  17.475  0.00  0.00    +0.000 A 
ATOM      2  C   UNL     1       5.380   3.768  16.160  0.00  0.00    +0.000 A 
ATOM      3  C   UNL     1       6.327   4.694  15.701  0.00  0.00    +0.000 A 
ATOM      4  C   UNL     1       6.777   5.663  16.588  0.00  0.00    +0.000 A 
ATOM      5  C   UNL     1       6.288   5.711  17.878  0.00  0.00    +0.000 A 
ATOM      6  C   UNL     1       5.321   4.810  18.354  0.00  0.00    +0.000 A 
ENDROOT
BRANCH   3   7
ATOM      7  C   UNL     1       6.854   4.697  14.310  0.00  0.00    +0.000 C 
ATOM      8  C   UNL     1       6.238   3.857  13.229  0.00  0.00    +0.000 C 
ATOM      9  O   UNL     1       7.813   5.429  14.048  0.00  0.00    +0.000 OA
ENDBRANCH   3   7
BRANCH   4  10
ATOM     10  O   UNL     1       7.692   6.620  16.288  0.00  0.00    +0.000 OA
ATOM     11  H   UNL     1       7.252   7.319  15.758  0.00  0.00    +0.000 HD
ENDBRANCH   4  10
BRANCH   1  12
ATOM     12  C   UNL     1       3.801   2.770  17.807  0.00  0.00    +0.000 C 
BRANCH  12  13
ATOM     13  C   UNL     1       2.460   3.024  17.104  0.00  0.00    +0.000 C 
BRANCH  13  14
ATOM     14  C   UNL     1       1.444   3.698  18.035  0.00  0.00    +0.000 C 
BRANCH  14  15
ATOM     15  C   UNL     1       0.888   2.711  19.065  0.00  0.00    +0.000 C 
BRANCH  15  17
ATOM     16  C   UNL     1       2.058   2.814  21.295  0.00  0.00    +0.000 C 
ATOM     17  C   UNL     1       0.876   3.309  20.473  0.00  0.00    +0.000 C 
ENDBRANCH  15  17
ENDBRANCH  14  15
ENDBRANCH  13  14
ENDBRANCH  12  13
ENDBRANCH   1  12
BRANCH   6  18
ATOM     18  O   UNL     1       4.832   4.899  19.644  0.00  0.00    +0.000 OA
BRANCH  18  19
ATOM     19  C   UNL     1       3.673   5.753  19.735  0.00  0.00    +0.000 C 
BRANCH  19  20
ATOM     20  C   UNL     1       3.407   6.575  18.496  0.00  0.00    +0.000 C 
BRANCH  20  21
ATOM     21  C   UNL     1       2.156   7.420  18.660  0.00  0.00    +0.000 C 
BRANCH  21  22
ATOM     22  C   UNL     1       2.275   8.633  17.770  0.00  0.00    +0.000 C 
BRANCH  22  23
ATOM     23  C   UNL     1       1.314   9.731  18.198  0.00  0.00    +0.000 C 
ATOM     24  N   UNL     1       0.517  10.641  18.553  0.00  0.00    +0.000 NA
ENDBRANCH  22  23
ENDBRANCH  21  22
ENDBRANCH  20  21
ENDBRANCH  19  20
ENDBRANCH  18  19
ENDBRANCH   6  18
TORSDOF 13
ENDMDL
