MODEL 1
REMARK VINA RESULT:      -9.5      0.000      0.000
REMARK  Name = 
REMARK  7 active torsions:
REMARK  status: ('A' for Active; 'I' for Inactive)
REMARK    1  A    between atoms: C_1  and  C_2
REMARK    2  A    between atoms: C_2  and  C_3
REMARK    3  A    between atoms: C_2  and  N_17
REMARK    4  A    between atoms: C_3  and  C_5
REMARK    5  A    between atoms: C_8  and  C_9
REMARK    6  A    between atoms: C_21  and  N_22
REMARK    7  A    between atoms: C_23  and  C_25
REMARK                            x       y       z     vdW  Elec       q    Type
REMARK                         _______ _______ _______ _____ _____    ______ ____
ROOT
ATOM      1  C   UNL     1       5.183   5.380  15.381  0.00  0.00    +0.000 C 
ATOM      2  C   UNL     1       4.850   6.328  16.528  0.00  0.00    +0.000 C 
ENDROOT
BRANCH   2   3
ATOM      3  N   UNL     1       6.116   6.613  17.308  0.00  0.00    +0.000 N 
ATOM      4  C   UNL     1       6.589   5.710  18.206  0.00  0.00    +0.000 A 
ATOM      5  C   UNL     1       7.717   5.981  18.960  0.00  0.00    +0.000 A 
ATOM      6  C   UNL     1       8.368   7.193  18.789  0.00  0.00    +0.000 A 
ATOM      7  C   UNL     1       7.904   8.121  17.862  0.00  0.00    +0.000 A 
ATOM      8  C   UNL     1       6.746   7.806  17.146  0.00  0.00    +0.000 A 
BRANCH   7   9
ATOM      9  N   UNL     1       8.549   9.365  17.635  0.00  0.00    +0.000 N 
ATOM     10  C   UNL     1       8.988  10.214  18.645  0.00  0.00    +0.000 C 
ATOM     11  O   UNL     1       8.959   9.947  19.846  0.00  0.00    +0.000 OA
ATOM     12  H   UNL     1       8.718   9.654  16.683  0.00  0.00    +0.000 HD
BRANCH  10  13
ATOM     13  C   UNL     1       9.532  11.536  18.247  0.00  0.00    +0.000 A 
ATOM     14  C   UNL     1      10.856  11.564  17.783  0.00  0.00    +0.000 A 
ATOM     15  C   UNL     1      11.441  12.763  17.383  0.00  0.00    +0.000 A 
ATOM     16  C   UNL     1      10.701  13.942  17.435  0.00  0.00    +0.000 A 
ATOM     17  C   UNL     1       9.377  13.920  17.873  0.00  0.00    +0.000 A 
ATOM     18  C   UNL     1       8.786  12.720  18.279  0.00  0.00    +0.000 A 
ENDBRANCH  10  13
ENDBRANCH   7   9
ENDBRANCH   2   3
BRANCH   2  19
ATOM     19  C   UNL     1       3.808   5.814  17.517  0.00  0.00    +0.000 C 
ATOM     20  O   UNL     1       3.676   4.604  17.723  0.00  0.00    +0.000 OA
BRANCH  19  21
ATOM     21  C   UNL     1       2.935   6.745  18.288  0.00  0.00    +0.000 A 
ATOM     22  C   UNL     1       2.556   6.336  19.571  0.00  0.00    +0.000 A 
ATOM     23  C   UNL     1       1.806   7.177  20.396  0.00  0.00    +0.000 A 
ATOM     24  C   UNL     1       1.433   8.470  19.992  0.00  0.00    +0.000 A 
ATOM     25  C   UNL     1       1.832   8.866  18.699  0.00  0.00    +0.000 A 
ATOM     26  C   UNL     1       2.562   8.014  17.844  0.00  0.00    +0.000 A 
BRANCH  24  27
ATOM     27  C   UNL     1       0.636   9.347  20.891  0.00  0.00    +0.000 A 
ATOM     28  C   UNL     1       0.157  10.602  20.462  0.00  0.00    +0.000 A 
ATOM     29  C   UNL     1      -0.507  11.473  21.331  0.00  0.00    +0.000 A 
ATOM     30  C   UNL     1      -0.736  11.100  22.651  0.00  0.00    +0.000 A 
ATOM     31  C   UNL     1      -0.312   9.852  23.092  0.00  0.00    +0.000 A 
ATOM     32  C   UNL     1       0.367   8.988  22.223  0.00  0.00    +0.000 A 
ENDBRANCH  24  27
ENDBRANCH  19  21
ENDBRANCH   2  19
TORSDOF 6
ENDMDL
MODEL 2
REMARK VINA RESULT:      -9.0      0.883      1.590
REMARK  Name = 
REMARK  7 active torsions:
REMARK  status: ('A' for Active; 'I' for Inactive)
REMARK    1  A    between atoms: C_1  and  C_2
REMARK    2  A    between atoms: C_2  and  C_3
REMARK    3  A    between atoms: C_2  and  N_17
REMARK    4  A    between atoms: C_3  and  C_5
REMARK    5  A    between atoms: C_8  and  C_9
REMARK    6  A    between atoms: C_21  and  N_22
REMARK    7  A    between atoms: C_23  and  C_25
REMARK                            x       y       z     vdW  Elec       q    Type
REMARK                         _______ _______ _______ _____ _____    ______ ____
ROOT
ATOM      1  C   UNL     1       5.149   4.893  15.771  0.00  0.00    +0.000 C 
ATOM      2  C   UNL     1       4.847   6.048  16.718  0.00  0.00    +0.000 C 
ENDROOT
BRANCH   2   3
ATOM      3  N   UNL     1       6.110   6.404  17.472  0.00  0.00    +0.000 N 
ATOM      4  C   UNL     1       6.611   5.560  18.411  0.00  0.00    +0.000 A 
ATOM      5  C   UNL     1       7.737   5.896  19.142  0.00  0.00    +0.000 A 
ATOM      6  C   UNL     1       8.356   7.114  18.905  0.00  0.00    +0.000 A 
ATOM      7  C   UNL     1       7.863   7.982  17.935  0.00  0.00    +0.000 A 
ATOM      8  C   UNL     1       6.709   7.602  17.245  0.00  0.00    +0.000 A 
BRANCH   7   9
ATOM      9  N   UNL     1       8.475   9.229  17.641  0.00  0.00    +0.000 N 
ATOM     10  C   UNL     1       9.065  10.055  18.591  0.00  0.00    +0.000 C 
ATOM     11  O   UNL     1       9.213   9.762  19.777  0.00  0.00    +0.000 OA
ATOM     12  H   UNL     1       8.503   9.537  16.680  0.00  0.00    +0.000 HD
BRANCH  10  13
ATOM     13  C   UNL     1       9.552  11.383  18.143  0.00  0.00    +0.000 A 
ATOM     14  C   UNL     1       8.636  12.445  18.193  0.00  0.00    +0.000 A 
ATOM     15  C   UNL     1       9.014  13.726  17.797  0.00  0.00    +0.000 A 
ATOM     16  C   UNL     1      10.316  13.955  17.357  0.00  0.00    +0.000 A 
ATOM     17  C   UNL     1      11.240  12.910  17.326  0.00  0.00    +0.000 A 
ATOM     18  C   UNL     1      10.864  11.621  17.719  0.00  0.00    +0.000 A 
ENDBRANCH  10  13
ENDBRANCH   7   9
ENDBRANCH   2   3
BRANCH   2  19
ATOM     19  C   UNL     1       3.756   5.777  17.751  0.00  0.00    +0.000 C 
ATOM     20  O   UNL     1       3.510   4.626  18.121  0.00  0.00    +0.000 OA
BRANCH  19  21
ATOM     21  C   UNL     1       2.972   6.884  18.370  0.00  0.00    +0.000 A 
ATOM     22  C   UNL     1       2.675   7.979  17.553  0.00  0.00    +0.000 A 
ATOM     23  C   UNL     1       1.879   9.026  18.022  0.00  0.00    +0.000 A 
ATOM     24  C   UNL     1       1.318   9.009  19.311  0.00  0.00    +0.000 A 
ATOM     25  C   UNL     1       1.623   7.892  20.116  0.00  0.00    +0.000 A 
ATOM     26  C   UNL     1       2.452   6.844  19.664  0.00  0.00    +0.000 A 
BRANCH  24  27
ATOM     27  C   UNL     1       0.472  10.135  19.786  0.00  0.00    +0.000 A 
ATOM     28  C   UNL     1      -0.742  10.466  19.149  0.00  0.00    +0.000 A 
ATOM     29  C   UNL     1      -1.493  11.584  19.528  0.00  0.00    +0.000 A 
ATOM     30  C   UNL     1      -1.063  12.388  20.577  0.00  0.00    +0.000 A 
ATOM     31  C   UNL     1       0.109  12.064  21.252  0.00  0.00    +0.000 A 
ATOM     32  C   UNL     1       0.866  10.953  20.860  0.00  0.00    +0.000 A 
ENDBRANCH  24  27
ENDBRANCH  19  21
ENDBRANCH   2  19
TORSDOF 6
ENDMDL
MODEL 3
REMARK VINA RESULT:      -9.0      1.076      1.410
REMARK  Name = 
REMARK  7 active torsions:
REMARK  status: ('A' for Active; 'I' for Inactive)
REMARK    1  A    between atoms: C_1  and  C_2
REMARK    2  A    between atoms: C_2  and  C_3
REMARK    3  A    between atoms: C_2  and  N_17
REMARK    4  A    between atoms: C_3  and  C_5
REMARK    5  A    between atoms: C_8  and  C_9
REMARK    6  A    between atoms: C_21  and  N_22
REMARK    7  A    between atoms: C_23  and  C_25
REMARK                            x       y       z     vdW  Elec       q    Type
REMARK                         _______ _______ _______ _____ _____    ______ ____
ROOT
ATOM      1  C   UNL     1       5.488   5.431  15.087  0.00  0.00    +0.000 C 
ATOM      2  C   UNL     1       5.137   6.147  16.386  0.00  0.00    +0.000 C 
ENDROOT
BRANCH   2   3
ATOM      3  N   UNL     1       6.296   6.005  17.349  0.00  0.00    +0.000 N 
ATOM      4  C   UNL     1       6.621   4.790  17.862  0.00  0.00    +0.000 A 
ATOM      5  C   UNL     1       7.647   4.656  18.781  0.00  0.00    +0.000 A 
ATOM      6  C   UNL     1       8.348   5.784  19.177  0.00  0.00    +0.000 A 
ATOM      7  C   UNL     1       8.038   7.034  18.648  0.00  0.00    +0.000 A 
ATOM      8  C   UNL     1       6.976   7.114  17.744  0.00  0.00    +0.000 A 
BRANCH   7   9
ATOM      9  N   UNL     1       8.742   8.213  19.006  0.00  0.00    +0.000 N 
ATOM     10  C   UNL     1       8.559   9.449  18.396  0.00  0.00    +0.000 C 
ATOM     11  O   UNL     1       7.703   9.690  17.547  0.00  0.00    +0.000 OA
ATOM     12  H   UNL     1       9.410   8.165  19.762  0.00  0.00    +0.000 HD
BRANCH  10  13
ATOM     13  C   UNL     1       9.460  10.558  18.800  0.00  0.00    +0.000 A 
ATOM     14  C   UNL     1       9.567  10.819  20.175  0.00  0.00    +0.000 A 
ATOM     15  C   UNL     1      10.396  11.838  20.639  0.00  0.00    +0.000 A 
ATOM     16  C   UNL     1      11.132  12.596  19.731  0.00  0.00    +0.000 A 
ATOM     17  C   UNL     1      11.049  12.327  18.364  0.00  0.00    +0.000 A 
ATOM     18  C   UNL     1      10.216  11.308  17.893  0.00  0.00    +0.000 A 
ENDBRANCH  10  13
ENDBRANCH   7   9
ENDBRANCH   2   3
BRANCH   2  19
ATOM     19  C   UNL     1       3.886   5.635  17.095  0.00  0.00    +0.000 C 
ATOM     20  O   UNL     1       3.551   4.451  17.008  0.00  0.00    +0.000 OA
BRANCH  19  21
ATOM     21  C   UNL     1       3.044   6.530  17.939  0.00  0.00    +0.000 A 
ATOM     22  C   UNL     1       2.720   6.069  19.219  0.00  0.00    +0.000 A 
ATOM     23  C   UNL     1       2.002   6.873  20.107  0.00  0.00    +0.000 A 
ATOM     24  C   UNL     1       1.607   8.179  19.771  0.00  0.00    +0.000 A 
ATOM     25  C   UNL     1       1.950   8.627  18.478  0.00  0.00    +0.000 A 
ATOM     26  C   UNL     1       2.647   7.813  17.561  0.00  0.00    +0.000 A 
BRANCH  24  27
ATOM     27  C   UNL     1       0.845   9.015  20.735  0.00  0.00    +0.000 A 
ATOM     28  C   UNL     1       0.050  10.098  20.306  0.00  0.00    +0.000 A 
ATOM     29  C   UNL     1      -0.589  10.948  21.214  0.00  0.00    +0.000 A 
ATOM     30  C   UNL     1      -0.472  10.723  22.580  0.00  0.00    +0.000 A 
ATOM     31  C   UNL     1       0.272   9.639  23.033  0.00  0.00    +0.000 A 
ATOM     32  C   UNL     1       0.923   8.799  22.122  0.00  0.00    +0.000 A 
ENDBRANCH  24  27
ENDBRANCH  19  21
ENDBRANCH   2  19
TORSDOF 6
ENDMDL
MODEL 4
REMARK VINA RESULT:      -8.9      1.749      2.642
REMARK  Name = 
REMARK  7 active torsions:
REMARK  status: ('A' for Active; 'I' for Inactive)
REMARK    1  A    between atoms: C_1  and  C_2
REMARK    2  A    between atoms: C_2  and  C_3
REMARK    3  A    between atoms: C_2  and  N_17
REMARK    4  A    between atoms: C_3  and  C_5
REMARK    5  A    between atoms: C_8  and  C_9
REMARK    6  A    between atoms: C_21  and  N_22
REMARK    7  A    between atoms: C_23  and  C_25
REMARK                            x       y       z     vdW  Elec       q    Type
REMARK                         _______ _______ _______ _____ _____    ______ ____
ROOT
ATOM      1  C   UNL     1       3.028   3.396  18.107  0.00  0.00    +0.000 C 
ATOM      2  C   UNL     1       3.185   4.890  17.850  0.00  0.00    +0.000 C 
ENDROOT
BRANCH   2   3
ATOM      3  N   UNL     1       4.524   5.132  17.186  0.00  0.00    +0.000 N 
ATOM      4  C   UNL     1       5.098   4.167  16.422  0.00  0.00    +0.000 A 
ATOM      5  C   UNL     1       6.344   4.359  15.850  0.00  0.00    +0.000 A 
ATOM      6  C   UNL     1       7.007   5.557  16.065  0.00  0.00    +0.000 A 
ATOM      7  C   UNL     1       6.424   6.562  16.831  0.00  0.00    +0.000 A 
ATOM      8  C   UNL     1       5.177   6.304  17.405  0.00  0.00    +0.000 A 
BRANCH   7   9
ATOM      9  N   UNL     1       7.054   7.813  17.061  0.00  0.00    +0.000 N 
ATOM     10  C   UNL     1       7.954   8.059  18.091  0.00  0.00    +0.000 C 
ATOM     11  O   UNL     1       8.384   7.203  18.863  0.00  0.00    +0.000 OA
ATOM     12  H   UNL     1       6.854   8.576  16.430  0.00  0.00    +0.000 HD
BRANCH  10  13
ATOM     13  C   UNL     1       8.431   9.453  18.272  0.00  0.00    +0.000 A 
ATOM     14  C   UNL     1       9.308   9.689  19.342  0.00  0.00    +0.000 A 
ATOM     15  C   UNL     1       9.809  10.968  19.578  0.00  0.00    +0.000 A 
ATOM     16  C   UNL     1       9.442  12.017  18.738  0.00  0.00    +0.000 A 
ATOM     17  C   UNL     1       8.588  11.787  17.659  0.00  0.00    +0.000 A 
ATOM     18  C   UNL     1       8.080  10.506  17.420  0.00  0.00    +0.000 A 
ENDBRANCH  10  13
ENDBRANCH   7   9
ENDBRANCH   2   3
BRANCH   2  19
ATOM     19  C   UNL     1       3.122   5.776  19.091  0.00  0.00    +0.000 C 
ATOM     20  O   UNL     1       3.721   5.460  20.123  0.00  0.00    +0.000 OA
BRANCH  19  21
ATOM     21  C   UNL     1       2.366   7.061  19.097  0.00  0.00    +0.000 A 
ATOM     22  C   UNL     1       1.936   7.533  20.341  0.00  0.00    +0.000 A 
ATOM     23  C   UNL     1       1.291   8.766  20.453  0.00  0.00    +0.000 A 
ATOM     24  C   UNL     1       1.078   9.594  19.338  0.00  0.00    +0.000 A 
ATOM     25  C   UNL     1       1.526   9.103  18.094  0.00  0.00    +0.000 A 
ATOM     26  C   UNL     1       2.150   7.845  17.964  0.00  0.00    +0.000 A 
BRANCH  24  27
ATOM     27  C   UNL     1       0.389  10.904  19.484  0.00  0.00    +0.000 A 
ATOM     28  C   UNL     1      -0.841  11.166  18.847  0.00  0.00    +0.000 A 
ATOM     29  C   UNL     1      -1.444  12.427  18.898  0.00  0.00    +0.000 A 
ATOM     30  C   UNL     1      -0.845  13.457  19.615  0.00  0.00    +0.000 A 
ATOM     31  C   UNL     1       0.348  13.218  20.287  0.00  0.00    +0.000 A 
ATOM     32  C   UNL     1       0.957  11.959  20.221  0.00  0.00    +0.000 A 
ENDBRANCH  24  27
ENDBRANCH  19  21
ENDBRANCH   2  19
TORSDOF 6
ENDMDL
MODEL 5
REMARK VINA RESULT:      -8.8      1.051      1.606
REMARK  Name = 
REMARK  7 active torsions:
REMARK  status: ('A' for Active; 'I' for Inactive)
REMARK    1  A    between atoms: C_1  and  C_2
REMARK    2  A    between atoms: C_2  and  C_3
REMARK    3  A    between atoms: C_2  and  N_17
REMARK    4  A    between atoms: C_3  and  C_5
REMARK    5  A    between atoms: C_8  and  C_9
REMARK    6  A    between atoms: C_21  and  N_22
REMARK    7  A    between atoms: C_23  and  C_25
REMARK                            x       y       z     vdW  Elec       q    Type
REMARK                         _______ _______ _______ _____ _____    ______ ____
ROOT
ATOM      1  C   UNL     1       4.743   4.582  16.203  0.00  0.00    +0.000 C 
ATOM      2  C   UNL     1       4.592   5.877  16.993  0.00  0.00    +0.000 C 
ENDROOT
BRANCH   2   3
ATOM      3  N   UNL     1       5.925   6.222  17.622  0.00  0.00    +0.000 N 
ATOM      4  C   UNL     1       6.526   5.357  18.480  0.00  0.00    +0.000 A 
ATOM      5  C   UNL     1       7.720   5.682  19.099  0.00  0.00    +0.000 A 
ATOM      6  C   UNL     1       8.304   6.911  18.833  0.00  0.00    +0.000 A 
ATOM      7  C   UNL     1       7.709   7.801  17.945  0.00  0.00    +0.000 A 
ATOM      8  C   UNL     1       6.491   7.432  17.368  0.00  0.00    +0.000 A 
BRANCH   7   9
ATOM      9  N   UNL     1       8.280   9.061  17.624  0.00  0.00    +0.000 N 
ATOM     10  C   UNL     1       8.950   9.870  18.534  0.00  0.00    +0.000 C 
ATOM     11  O   UNL     1       9.213   9.552  19.693  0.00  0.00    +0.000 OA
ATOM     12  H   UNL     1       8.214   9.391  16.673  0.00  0.00    +0.000 HD
BRANCH  10  13
ATOM     13  C   UNL     1       9.382  11.214  18.075  0.00  0.00    +0.000 A 
ATOM     14  C   UNL     1      10.762  11.418  17.919  0.00  0.00    +0.000 A 
ATOM     15  C   UNL     1      11.251  12.648  17.485  0.00  0.00    +0.000 A 
ATOM     16  C   UNL     1      10.362  13.680  17.194  0.00  0.00    +0.000 A 
ATOM     17  C   UNL     1       8.987  13.478  17.325  0.00  0.00    +0.000 A 
ATOM     18  C   UNL     1       8.491  12.247  17.763  0.00  0.00    +0.000 A 
ENDBRANCH  10  13
ENDBRANCH   7   9
ENDBRANCH   2   3
BRANCH   2  19
ATOM     19  C   UNL     1       3.553   5.844  18.109  0.00  0.00    +0.000 C 
ATOM     20  O   UNL     1       3.307   4.795  18.712  0.00  0.00    +0.000 OA
BRANCH  19  21
ATOM     21  C   UNL     1       2.820   7.071  18.533  0.00  0.00    +0.000 A 
ATOM     22  C   UNL     1       2.710   8.096  17.589  0.00  0.00    +0.000 A 
ATOM     23  C   UNL     1       1.974   9.250  17.868  0.00  0.00    +0.000 A 
ATOM     24  C   UNL     1       1.290   9.414  19.086  0.00  0.00    +0.000 A 
ATOM     25  C   UNL     1       1.408   8.365  20.021  0.00  0.00    +0.000 A 
ATOM     26  C   UNL     1       2.174   7.210  19.762  0.00  0.00    +0.000 A 
BRANCH  24  27
ATOM     27  C   UNL     1       0.512  10.651  19.359  0.00  0.00    +0.000 A 
ATOM     28  C   UNL     1       0.881  11.893  18.802  0.00  0.00    +0.000 A 
ATOM     29  C   UNL     1       0.213  13.077  19.134  0.00  0.00    +0.000 A 
ATOM     30  C   UNL     1      -0.863  13.047  20.012  0.00  0.00    +0.000 A 
ATOM     31  C   UNL     1      -1.277  11.831  20.545  0.00  0.00    +0.000 A 
ATOM     32  C   UNL     1      -0.597  10.650  20.224  0.00  0.00    +0.000 A 
ENDBRANCH  24  27
ENDBRANCH  19  21
ENDBRANCH   2  19
TORSDOF 6
ENDMDL
MODEL 6
REMARK VINA RESULT:      -8.7      1.022      1.115
REMARK  Name = 
REMARK  7 active torsions:
REMARK  status: ('A' for Active; 'I' for Inactive)
REMARK    1  A    between atoms: C_1  and  C_2
REMARK    2  A    between atoms: C_2  and  C_3
REMARK    3  A    between atoms: C_2  and  N_17
REMARK    4  A    between atoms: C_3  and  C_5
REMARK    5  A    between atoms: C_8  and  C_9
REMARK    6  A    between atoms: C_21  and  N_22
REMARK    7  A    between atoms: C_23  and  C_25
REMARK                            x       y       z     vdW  Elec       q    Type
REMARK                         _______ _______ _______ _____ _____    ______ ____
ROOT
ATOM      1  C   UNL     1       5.509   4.571  15.229  0.00  0.00    +0.000 C 
ATOM      2  C   UNL     1       4.979   5.521  16.297  0.00  0.00    +0.000 C 
ENDROOT
BRANCH   2   3
ATOM      3  N   UNL     1       6.135   5.975  17.162  0.00  0.00    +0.000 N 
ATOM      4  C   UNL     1       6.610   5.175  18.151  0.00  0.00    +0.000 A 
ATOM      5  C   UNL     1       7.634   5.599  18.981  0.00  0.00    +0.000 A 
ATOM      6  C   UNL     1       8.176   6.861  18.791  0.00  0.00    +0.000 A 
ATOM      7  C   UNL     1       7.710   7.686  17.772  0.00  0.00    +0.000 A 
ATOM      8  C   UNL     1       6.658   7.217  16.981  0.00  0.00    +0.000 A 
BRANCH   7   9
ATOM      9  N   UNL     1       8.248   8.977  17.525  0.00  0.00    +0.000 N 
ATOM     10  C   UNL     1       8.859   9.767  18.492  0.00  0.00    +0.000 C 
ATOM     11  O   UNL     1       9.093   9.408  19.645  0.00  0.00    +0.000 OA
ATOM     12  H   UNL     1       8.203   9.345  16.587  0.00  0.00    +0.000 HD
BRANCH  10  13
ATOM     13  C   UNL     1       9.260  11.143  18.105  0.00  0.00    +0.000 A 
ATOM     14  C   UNL     1      10.630  11.373  17.908  0.00  0.00    +0.000 A 
ATOM     15  C   UNL     1      11.090  12.635  17.537  0.00  0.00    +0.000 A 
ATOM     16  C   UNL     1      10.181  13.673  17.351  0.00  0.00    +0.000 A 
ATOM     17  C   UNL     1       8.814  13.447  17.522  0.00  0.00    +0.000 A 
ATOM     18  C   UNL     1       8.347  12.183  17.898  0.00  0.00    +0.000 A 
ENDBRANCH  10  13
ENDBRANCH   7   9
ENDBRANCH   2   3
BRANCH   2  19
ATOM     19  C   UNL     1       3.915   4.936  17.222  0.00  0.00    +0.000 C 
ATOM     20  O   UNL     1       3.687   3.724  17.233  0.00  0.00    +0.000 OA
BRANCH  19  21
ATOM     21  C   UNL     1       3.138   5.794  18.161  0.00  0.00    +0.000 A 
ATOM     22  C   UNL     1       2.715   5.199  19.353  0.00  0.00    +0.000 A 
ATOM     23  C   UNL     1       2.049   5.947  20.328  0.00  0.00    +0.000 A 
ATOM     24  C   UNL     1       1.809   7.322  20.170  0.00  0.00    +0.000 A 
ATOM     25  C   UNL     1       2.251   7.904  18.963  0.00  0.00    +0.000 A 
ATOM     26  C   UNL     1       2.895   7.153  17.958  0.00  0.00    +0.000 A 
BRANCH  24  27
ATOM     27  C   UNL     1       1.100   8.096  21.223  0.00  0.00    +0.000 A 
ATOM     28  C   UNL     1      -0.308   8.114  21.303  0.00  0.00    +0.000 A 
ATOM     29  C   UNL     1      -0.983   8.918  22.228  0.00  0.00    +0.000 A 
ATOM     30  C   UNL     1      -0.265   9.707  23.120  0.00  0.00    +0.000 A 
ATOM     31  C   UNL     1       1.125   9.679  23.092  0.00  0.00    +0.000 A 
ATOM     32  C   UNL     1       1.797   8.886  22.154  0.00  0.00    +0.000 A 
ENDBRANCH  24  27
ENDBRANCH  19  21
ENDBRANCH   2  19
TORSDOF 6
ENDMDL
MODEL 7
REMARK VINA RESULT:      -8.5      1.494      2.418
REMARK  Name = 
REMARK  7 active torsions:
REMARK  status: ('A' for Active; 'I' for Inactive)
REMARK    1  A    between atoms: C_1  and  C_2
REMARK    2  A    between atoms: C_2  and  C_3
REMARK    3  A    between atoms: C_2  and  N_17
REMARK    4  A    between atoms: C_3  and  C_5
REMARK    5  A    between atoms: C_8  and  C_9
REMARK    6  A    between atoms: C_21  and  N_22
REMARK    7  A    between atoms: C_23  and  C_25
REMARK                            x       y       z     vdW  Elec       q    Type
REMARK                         _______ _______ _______ _____ _____    ______ ____
ROOT
ATOM      1  C   UNL     1       5.278   4.264  19.813  0.00  0.00    +0.000 C 
ATOM      2  C   UNL     1       4.706   3.845  18.464  0.00  0.00    +0.000 C 
ENDROOT
BRANCH   2   3
ATOM      3  N   UNL     1       5.449   4.581  17.370  0.00  0.00    +0.000 N 
ATOM      4  C   UNL     1       5.574   4.032  16.133  0.00  0.00    +0.000 A 
ATOM      5  C   UNL     1       6.292   4.673  15.139  0.00  0.00    +0.000 A 
ATOM      6  C   UNL     1       6.889   5.892  15.418  0.00  0.00    +0.000 A 
ATOM      7  C   UNL     1       6.756   6.475  16.675  0.00  0.00    +0.000 A 
ATOM      8  C   UNL     1       6.041   5.772  17.648  0.00  0.00    +0.000 A 
BRANCH   7   9
ATOM      9  N   UNL     1       7.330   7.732  17.002  0.00  0.00    +0.000 N 
ATOM     10  C   UNL     1       8.130   7.961  18.115  0.00  0.00    +0.000 C 
ATOM     11  O   UNL     1       8.514   7.089  18.892  0.00  0.00    +0.000 OA
ATOM     12  H   UNL     1       7.165   8.511  16.382  0.00  0.00    +0.000 HD
BRANCH  10  13
ATOM     13  C   UNL     1       8.552   9.359  18.385  0.00  0.00    +0.000 A 
ATOM     14  C   UNL     1       8.124  10.337  17.475  0.00  0.00    +0.000 A 
ATOM     15  C   UNL     1       8.470  11.674  17.658  0.00  0.00    +0.000 A 
ATOM     16  C   UNL     1       9.241  12.042  18.759  0.00  0.00    +0.000 A 
ATOM     17  C   UNL     1       9.652  11.079  19.680  0.00  0.00    +0.000 A 
ATOM     18  C   UNL     1       9.310   9.735  19.499  0.00  0.00    +0.000 A 
ENDBRANCH  10  13
ENDBRANCH   7   9
ENDBRANCH   2   3
BRANCH   2  19
ATOM     19  C   UNL     1       3.217   4.120  18.273  0.00  0.00    +0.000 C 
ATOM     20  O   UNL     1       2.502   3.322  17.661  0.00  0.00    +0.000 OA
BRANCH  19  21
ATOM     21  C   UNL     1       2.567   5.337  18.837  0.00  0.00    +0.000 A 
ATOM     22  C   UNL     1       1.930   5.195  20.074  0.00  0.00    +0.000 A 
ATOM     23  C   UNL     1       1.363   6.298  20.716  0.00  0.00    +0.000 A 
ATOM     24  C   UNL     1       1.437   7.591  20.171  0.00  0.00    +0.000 A 
ATOM     25  C   UNL     1       2.091   7.714  18.928  0.00  0.00    +0.000 A 
ATOM     26  C   UNL     1       2.639   6.602  18.254  0.00  0.00    +0.000 A 
BRANCH  24  27
ATOM     27  C   UNL     1       0.828   8.749  20.876  0.00  0.00    +0.000 A 
ATOM     28  C   UNL     1       0.826  10.041  20.309  0.00  0.00    +0.000 A 
ATOM     29  C   UNL     1       0.344  11.152  21.009  0.00  0.00    +0.000 A 
ATOM     30  C   UNL     1      -0.178  10.997  22.288  0.00  0.00    +0.000 A 
ATOM     31  C   UNL     1      -0.227   9.730  22.857  0.00  0.00    +0.000 A 
ATOM     32  C   UNL     1       0.271   8.622  22.161  0.00  0.00    +0.000 A 
ENDBRANCH  24  27
ENDBRANCH  19  21
ENDBRANCH   2  19
TORSDOF 6
ENDMDL
MODEL 8
REMARK VINA RESULT:      -8.5      1.634      2.761
REMARK  Name = 
REMARK  7 active torsions:
REMARK  status: ('A' for Active; 'I' for Inactive)
REMARK    1  A    between atoms: C_1  and  C_2
REMARK    2  A    between atoms: C_2  and  C_3
REMARK    3  A    between atoms: C_2  and  N_17
REMARK    4  A    between atoms: C_3  and  C_5
REMARK    5  A    between atoms: C_8  and  C_9
REMARK    6  A    between atoms: C_21  and  N_22
REMARK    7  A    between atoms: C_23  and  C_25
REMARK                            x       y       z     vdW  Elec       q    Type
REMARK                         _______ _______ _______ _____ _____    ______ ____
ROOT
ATOM      1  C   UNL     1       2.351   4.312  17.544  0.00  0.00    +0.000 C 
ATOM      2  C   UNL     1       2.841   5.753  17.628  0.00  0.00    +0.000 C 
ENDROOT
BRANCH   2   3
ATOM      3  N   UNL     1       4.273   5.811  17.140  0.00  0.00    +0.000 N 
ATOM      4  C   UNL     1       4.820   4.754  16.485  0.00  0.00    +0.000 A 
ATOM      5  C   UNL     1       6.142   4.776  16.078  0.00  0.00    +0.000 A 
ATOM      6  C   UNL     1       6.912   5.897  16.346  0.00  0.00    +0.000 A 
ATOM      7  C   UNL     1       6.360   6.994  17.002  0.00  0.00    +0.000 A 
ATOM      8  C   UNL     1       5.028   6.907  17.413  0.00  0.00    +0.000 A 
BRANCH   7   9
ATOM      9  N   UNL     1       7.102   8.173  17.278  0.00  0.00    +0.000 N 
ATOM     10  C   UNL     1       8.102   8.261  18.240  0.00  0.00    +0.000 C 
ATOM     11  O   UNL     1       8.530   7.310  18.893  0.00  0.00    +0.000 OA
ATOM     12  H   UNL     1       6.908   9.002  16.736  0.00  0.00    +0.000 HD
BRANCH  10  13
ATOM     13  C   UNL     1       8.699   9.596  18.495  0.00  0.00    +0.000 A 
ATOM     14  C   UNL     1       9.166   9.844  19.794  0.00  0.00    +0.000 A 
ATOM     15  C   UNL     1       9.746  11.069  20.116  0.00  0.00    +0.000 A 
ATOM     16  C   UNL     1       9.871  12.051  19.136  0.00  0.00    +0.000 A 
ATOM     17  C   UNL     1       9.429  11.805  17.836  0.00  0.00    +0.000 A 
ATOM     18  C   UNL     1       8.843  10.578  17.508  0.00  0.00    +0.000 A 
ENDBRANCH  10  13
ENDBRANCH   7   9
ENDBRANCH   2   3
BRANCH   2  19
ATOM     19  C   UNL     1       2.806   6.373  19.022  0.00  0.00    +0.000 C 
ATOM     20  O   UNL     1       3.348   5.810  19.977  0.00  0.00    +0.000 OA
BRANCH  19  21
ATOM     21  C   UNL     1       2.147   7.686  19.278  0.00  0.00    +0.000 A 
ATOM     22  C   UNL     1       1.969   8.527  18.175  0.00  0.00    +0.000 A 
ATOM     23  C   UNL     1       1.291   9.741  18.304  0.00  0.00    +0.000 A 
ATOM     24  C   UNL     1       0.734  10.151  19.528  0.00  0.00    +0.000 A 
ATOM     25  C   UNL     1       0.918   9.285  20.626  0.00  0.00    +0.000 A 
ATOM     26  C   UNL     1       1.629   8.072  20.514  0.00  0.00    +0.000 A 
BRANCH  24  27
ATOM     27  C   UNL     1       0.015  11.448  19.639  0.00  0.00    +0.000 A 
ATOM     28  C   UNL     1       0.265  12.509  18.744  0.00  0.00    +0.000 A 
ATOM     29  C   UNL     1      -0.334  13.763  18.902  0.00  0.00    +0.000 A 
ATOM     30  C   UNL     1      -1.223  13.983  19.947  0.00  0.00    +0.000 A 
ATOM     31  C   UNL     1      -1.520  12.944  20.822  0.00  0.00    +0.000 A 
ATOM     32  C   UNL     1      -0.908  11.695  20.670  0.00  0.00    +0.000 A 
ENDBRANCH  24  27
ENDBRANCH  19  21
ENDBRANCH   2  19
TORSDOF 6
ENDMDL
MODEL 9
REMARK VINA RESULT:      -8.4      1.324      1.992
REMARK  Name = 
REMARK  7 active torsions:
REMARK  status: ('A' for Active; 'I' for Inactive)
REMARK    1  A    between atoms: C_1  and  C_2
REMARK    2  A    between atoms: C_2  and  C_3
REMARK    3  A    between atoms: C_2  and  N_17
REMARK    4  A    between atoms: C_3  and  C_5
REMARK    5  A    between atoms: C_8  and  C_9
REMARK    6  A    between atoms: C_21  and  N_22
REMARK    7  A    between atoms: C_23  and  C_25
REMARK                            x       y       z     vdW  Elec       q    Type
REMARK                         _______ _______ _______ _____ _____    ______ ____
ROOT
ATOM      1  C   UNL     1       3.180   4.243  17.203  0.00  0.00    +0.000 C 
ATOM      2  C   UNL     1       3.571   5.669  17.577  0.00  0.00    +0.000 C 
ENDROOT
BRANCH   2   3
ATOM      3  N   UNL     1       5.077   5.797  17.499  0.00  0.00    +0.000 N 
ATOM      4  C   UNL     1       5.865   4.691  17.534  0.00  0.00    +0.000 A 
ATOM      5  C   UNL     1       7.245   4.799  17.513  0.00  0.00    +0.000 A 
ATOM      6  C   UNL     1       7.822   6.058  17.455  0.00  0.00    +0.000 A 
ATOM      7  C   UNL     1       7.027   7.200  17.403  0.00  0.00    +0.000 A 
ATOM      8  C   UNL     1       5.641   7.033  17.453  0.00  0.00    +0.000 A 
BRANCH   7   9
ATOM      9  N   UNL     1       7.572   8.508  17.321  0.00  0.00    +0.000 N 
ATOM     10  C   UNL     1       8.447   9.052  18.255  0.00  0.00    +0.000 C 
ATOM     11  O   UNL     1       8.928   8.436  19.205  0.00  0.00    +0.000 OA
ATOM     12  H   UNL     1       7.325   9.083  16.529  0.00  0.00    +0.000 HD
BRANCH  10  13
ATOM     13  C   UNL     1       8.830  10.477  18.094  0.00  0.00    +0.000 A 
ATOM     14  C   UNL     1       7.868  11.332  17.534  0.00  0.00    +0.000 A 
ATOM     15  C   UNL     1       8.145  12.686  17.354  0.00  0.00    +0.000 A 
ATOM     16  C   UNL     1       9.382  13.195  17.742  0.00  0.00    +0.000 A 
ATOM     17  C   UNL     1      10.335  12.355  18.320  0.00  0.00    +0.000 A 
ATOM     18  C   UNL     1      10.064  10.995  18.500  0.00  0.00    +0.000 A 
ENDBRANCH  10  13
ENDBRANCH   7   9
ENDBRANCH   2   3
BRANCH   2  19
ATOM     19  C   UNL     1       3.144   6.118  18.971  0.00  0.00    +0.000 C 
ATOM     20  O   UNL     1       3.531   5.514  19.975  0.00  0.00    +0.000 OA
BRANCH  19  21
ATOM     21  C   UNL     1       2.274   7.311  19.176  0.00  0.00    +0.000 A 
ATOM     22  C   UNL     1       1.764   7.506  20.463  0.00  0.00    +0.000 A 
ATOM     23  C   UNL     1       1.005   8.638  20.768  0.00  0.00    +0.000 A 
ATOM     24  C   UNL     1       0.751   9.638  19.813  0.00  0.00    +0.000 A 
ATOM     25  C   UNL     1       1.281   9.427  18.524  0.00  0.00    +0.000 A 
ATOM     26  C   UNL     1       2.022   8.272  18.196  0.00  0.00    +0.000 A 
BRANCH  24  27
ATOM     27  C   UNL     1      -0.058  10.835  20.163  0.00  0.00    +0.000 A 
ATOM     28  C   UNL     1      -1.091  11.299  19.322  0.00  0.00    +0.000 A 
ATOM     29  C   UNL     1      -1.789  12.480  19.595  0.00  0.00    +0.000 A 
ATOM     30  C   UNL     1      -1.492  13.217  20.735  0.00  0.00    +0.000 A 
ATOM     31  C   UNL     1      -0.507  12.764  21.605  0.00  0.00    +0.000 A 
ATOM     32  C   UNL     1       0.202  11.590  21.321  0.00  0.00    +0.000 A 
ENDBRANCH  24  27
ENDBRANCH  19  21
ENDBRANCH   2  19
TORSDOF 6
ENDMDL
