MODEL 1
REMARK VINA RESULT:      -9.5      0.000      0.000
REMARK  Name = 
REMARK  6 active torsions:
REMARK  status: ('A' for Active; 'I' for Inactive)
REMARK    1  A    between atoms: C_1  and  N_2
REMARK    2  A    between atoms: N_2  and  C_3
REMARK    3  A    between atoms: N_2  and  C_4
REMARK    4  A    between atoms: C_4  and  C_5
REMARK    5  A    between atoms: C_5  and  N_6
REMARK    6  A    between atoms: C_7  and  C_9
REMARK                            x       y       z     vdW  Elec       q    Type
REMARK                         _______ _______ _______ _____ _____    ______ ____
ROOT
ATOM      1  C   UNL     1       6.611   5.792  18.121  0.00  0.00    +0.000 A 
ATOM      2  C   UNL     1       5.534   5.488  18.970  0.00  0.00    +0.000 A 
ATOM      3  C   UNL     1       4.466   4.706  18.497  0.00  0.00    +0.000 A 
ATOM      4  C   UNL     1       3.249   4.271  19.074  0.00  0.00    +0.000 A 
ATOM      5  C   UNL     1       2.679   4.447  20.354  0.00  0.00    +0.000 A 
ATOM      6  C   UNL     1       1.426   3.907  20.627  0.00  0.00    +0.000 A 
ATOM      7  C   UNL     1       0.740   3.207  19.640  0.00  0.00    +0.000 A 
ATOM      8  C   UNL     1       1.286   3.019  18.355  0.00  0.00    +0.000 A 
ATOM      9  C   UNL     1       2.555   3.562  18.093  0.00  0.00    +0.000 A 
ATOM     10  N   UNL     1       3.353   3.558  16.942  0.00  0.00    +0.000 N 
ATOM     11  C   UNL     1       4.494   4.243  17.191  0.00  0.00    +0.000 A 
ATOM     12  C   UNL     1       5.543   4.523  16.339  0.00  0.00    +0.000 A 
ATOM     13  C   UNL     1       6.588   5.295  16.817  0.00  0.00    +0.000 A 
ATOM     14  N   UNL     1       7.476   5.465  15.797  0.00  0.00    +0.000 N 
ATOM     15  C   UNL     1       7.005   4.893  14.644  0.00  0.00    +0.000 A 
ATOM     16  C   UNL     1       7.584   4.955  13.373  0.00  0.00    +0.000 A 
ATOM     17  C   UNL     1       6.939   4.288  12.341  0.00  0.00    +0.000 A 
ATOM     18  C   UNL     1       5.777   3.565  12.599  0.00  0.00    +0.000 A 
ATOM     19 BR   UNL     1       4.973   2.625  11.163  0.00  0.00    +0.000 Br
ATOM     20  C   UNL     1       5.191   3.518  13.882  0.00  0.00    +0.000 A 
ATOM     21  C   UNL     1       5.800   4.226  14.944  0.00  0.00    +0.000 A 
ATOM     22  H   UNL     1       3.085   3.124  16.075  0.00  0.00    +0.000 HD
ATOM     23  H   UNL     1       8.322   6.016  15.883  0.00  0.00    +0.000 HD
ENDROOT
BRANCH   1  25
ATOM     24  N   UNL     1       7.701   7.944  17.970  0.00  0.00    +0.000 N 
ATOM     25  C   UNL     1       7.702   6.694  18.534  0.00  0.00    +0.000 C 
ATOM     26  O   UNL     1       8.532   6.323  19.362  0.00  0.00    +0.000 OA
ATOM     27  H   UNL     1       6.834   8.324  17.608  0.00  0.00    +0.000 HD
BRANCH  24  28
ATOM     28  C   UNL     1       8.735   8.894  18.312  0.00  0.00    +0.000 C 
BRANCH  28  29
ATOM     29  C   UNL     1       8.323  10.331  17.968  0.00  0.00    +0.000 C 
BRANCH  29  31
ATOM     30  C   UNL     1       9.500  10.999  19.996  0.00  0.00    +0.000 C 
ATOM     31  N   UNL     1       9.160  11.367  18.617  0.00  0.00    +0.000 NA
ATOM     32  C   UNL     1      10.394  11.549  17.845  0.00  0.00    +0.000 C 
ENDBRANCH  29  31
ENDBRANCH  28  29
ENDBRANCH  24  28
ENDBRANCH   1  25
TORSDOF 4
ENDMDL
MODEL 2
REMARK VINA RESULT:      -8.4      2.020      5.363
REMARK  Name = 
REMARK  6 active torsions:
REMARK  status: ('A' for Active; 'I' for Inactive)
REMARK    1  A    between atoms: C_1  and  N_2
REMARK    2  A    between atoms: N_2  and  C_3
REMARK    3  A    between atoms: N_2  and  C_4
REMARK    4  A    between atoms: C_4  and  C_5
REMARK    5  A    between atoms: C_5  and  N_6
REMARK    6  A    between atoms: C_7  and  C_9
REMARK                            x       y       z     vdW  Elec       q    Type
REMARK                         _______ _______ _______ _____ _____    ______ ____
ROOT
ATOM      1  C   UNL     1       7.023   6.428  17.366  0.00  0.00    +0.000 A 
ATOM      2  C   UNL     1       7.395   6.138  16.042  0.00  0.00    +0.000 A 
ATOM      3  C   UNL     1       6.604   5.277  15.263  0.00  0.00    +0.000 A 
ATOM      4  C   UNL     1       6.725   4.768  13.947  0.00  0.00    +0.000 A 
ATOM      5  C   UNL     1       7.681   4.969  12.928  0.00  0.00    +0.000 A 
ATOM      6  C   UNL     1       7.543   4.297  11.717  0.00  0.00    +0.000 A 
ATOM      7  C   UNL     1       6.474   3.430  11.520  0.00  0.00    +0.000 A 
ATOM      8  C   UNL     1       5.508   3.211  12.522  0.00  0.00    +0.000 A 
ATOM      9  C   UNL     1       5.652   3.901  13.738  0.00  0.00    +0.000 A 
ATOM     10  N   UNL     1       4.887   3.899  14.910  0.00  0.00    +0.000 N 
ATOM     11  C   UNL     1       5.460   4.724  15.817  0.00  0.00    +0.000 A 
ATOM     12  C   UNL     1       5.070   4.996  17.113  0.00  0.00    +0.000 A 
ATOM     13  C   UNL     1       5.859   5.847  17.869  0.00  0.00    +0.000 A 
ATOM     14  N   UNL     1       5.299   5.934  19.108  0.00  0.00    +0.000 N 
ATOM     15  C   UNL     1       4.211   5.106  19.209  0.00  0.00    +0.000 A 
ATOM     16  C   UNL     1       3.450   4.847  20.353  0.00  0.00    +0.000 A 
ATOM     17  C   UNL     1       2.376   3.977  20.225  0.00  0.00    +0.000 A 
ATOM     18  C   UNL     1       2.073   3.423  18.984  0.00  0.00    +0.000 A 
ATOM     19 BR   UNL     1       0.559   2.289  18.857  0.00  0.00    +0.000 Br
ATOM     20  C   UNL     1       2.854   3.679  17.837  0.00  0.00    +0.000 A 
ATOM     21  C   UNL     1       3.982   4.525  17.946  0.00  0.00    +0.000 A 
ATOM     22  H   UNL     1       4.056   3.344  15.036  0.00  0.00    +0.000 HD
ATOM     23  H   UNL     1       5.700   6.479  19.862  0.00  0.00    +0.000 HD
ENDROOT
BRANCH   1  25
ATOM     24  N   UNL     1       8.009   8.563  17.923  0.00  0.00    +0.000 N 
ATOM     25  C   UNL     1       7.872   7.239  18.257  0.00  0.00    +0.000 C 
ATOM     26  O   UNL     1       8.388   6.733  19.251  0.00  0.00    +0.000 OA
ATOM     27  H   UNL     1       7.299   9.007  17.351  0.00  0.00    +0.000 HD
BRANCH  24  28
ATOM     28  C   UNL     1       8.826   9.434  18.737  0.00  0.00    +0.000 C 
BRANCH  28  29
ATOM     29  C   UNL     1       8.937  10.839  18.131  0.00  0.00    +0.000 C 
BRANCH  29  31
ATOM     30  C   UNL     1      10.376  12.688  17.456  0.00  0.00    +0.000 C 
ATOM     31  N   UNL     1      10.318  11.378  18.113  0.00  0.00    +0.000 NA
ATOM     32  C   UNL     1      10.808  11.502  19.490  0.00  0.00    +0.000 C 
ENDBRANCH  29  31
ENDBRANCH  28  29
ENDBRANCH  24  28
ENDBRANCH   1  25
TORSDOF 4
ENDMDL
MODEL 3
REMARK VINA RESULT:      -7.8      0.918      1.082
REMARK  Name = 
REMARK  6 active torsions:
REMARK  status: ('A' for Active; 'I' for Inactive)
REMARK    1  A    between atoms: C_1  and  N_2
REMARK    2  A    between atoms: N_2  and  C_3
REMARK    3  A    between atoms: N_2  and  C_4
REMARK    4  A    between atoms: C_4  and  C_5
REMARK    5  A    between atoms: C_5  and  N_6
REMARK    6  A    between atoms: C_7  and  C_9
REMARK                            x       y       z     vdW  Elec       q    Type
REMARK                         _______ _______ _______ _____ _____    ______ ____
ROOT
ATOM      1  C   UNL     1       6.724   6.334  17.399  0.00  0.00    +0.000 A 
ATOM      2  C   UNL     1       5.702   6.073  18.327  0.00  0.00    +0.000 A 
ATOM      3  C   UNL     1       4.705   5.128  18.026  0.00  0.00    +0.000 A 
ATOM      4  C   UNL     1       3.551   4.681  18.713  0.00  0.00    +0.000 A 
ATOM      5  C   UNL     1       2.998   5.007  19.970  0.00  0.00    +0.000 A 
ATOM      6  C   UNL     1       1.810   4.404  20.374  0.00  0.00    +0.000 A 
ATOM      7  C   UNL     1       1.173   3.493  19.539  0.00  0.00    +0.000 A 
ATOM      8  C   UNL     1       1.704   3.152  18.279  0.00  0.00    +0.000 A 
ATOM      9  C   UNL     1       2.907   3.761  17.884  0.00  0.00    +0.000 A 
ATOM     10  N   UNL     1       3.674   3.646  16.718  0.00  0.00    +0.000 N 
ATOM     11  C   UNL     1       4.747   4.465  16.810  0.00  0.00    +0.000 A 
ATOM     12  C   UNL     1       5.743   4.701  15.883  0.00  0.00    +0.000 A 
ATOM     13  C   UNL     1       6.718   5.634  16.192  0.00  0.00    +0.000 A 
ATOM     14  N   UNL     1       7.560   5.718  15.124  0.00  0.00    +0.000 N 
ATOM     15  C   UNL     1       7.120   4.926  14.095  0.00  0.00    +0.000 A 
ATOM     16  C   UNL     1       7.659   4.836  12.809  0.00  0.00    +0.000 A 
ATOM     17  C   UNL     1       7.059   3.954  11.921  0.00  0.00    +0.000 A 
ATOM     18  C   UNL     1       5.980   3.177  12.336  0.00  0.00    +0.000 A 
ATOM     19 BR   UNL     1       5.238   1.947  11.100  0.00  0.00    +0.000 Br
ATOM     20  C   UNL     1       5.432   3.284  13.633  0.00  0.00    +0.000 A 
ATOM     21  C   UNL     1       5.994   4.207  14.544  0.00  0.00    +0.000 A 
ATOM     22  H   UNL     1       3.429   3.054  15.942  0.00  0.00    +0.000 HD
ATOM     23  H   UNL     1       8.350   6.352  15.088  0.00  0.00    +0.000 HD
ENDROOT
BRANCH   1  25
ATOM     24  N   UNL     1       8.040   7.665  18.928  0.00  0.00    +0.000 N 
ATOM     25  C   UNL     1       7.730   7.388  17.620  0.00  0.00    +0.000 C 
ATOM     26  O   UNL     1       8.264   7.946  16.664  0.00  0.00    +0.000 OA
ATOM     27  H   UNL     1       7.876   6.959  19.637  0.00  0.00    +0.000 HD
BRANCH  24  28
ATOM     28  C   UNL     1       9.013   8.686  19.241  0.00  0.00    +0.000 C 
BRANCH  28  29
ATOM     29  C   UNL     1       8.683  10.016  18.552  0.00  0.00    +0.000 C 
BRANCH  29  31
ATOM     30  C   UNL     1       9.329  12.322  18.093  0.00  0.00    +0.000 C 
ATOM     31  N   UNL     1       9.680  11.084  18.799  0.00  0.00    +0.000 NA
ATOM     32  C   UNL     1       9.759  11.352  20.239  0.00  0.00    +0.000 C 
ENDBRANCH  29  31
ENDBRANCH  28  29
ENDBRANCH  24  28
ENDBRANCH   1  25
TORSDOF 4
ENDMDL
MODEL 4
REMARK VINA RESULT:      -7.0     10.560     12.898
REMARK  Name = 
REMARK  6 active torsions:
REMARK  status: ('A' for Active; 'I' for Inactive)
REMARK    1  A    between atoms: C_1  and  N_2
REMARK    2  A    between atoms: N_2  and  C_3
REMARK    3  A    between atoms: N_2  and  C_4
REMARK    4  A    between atoms: C_4  and  C_5
REMARK    5  A    between atoms: C_5  and  N_6
REMARK    6  A    between atoms: C_7  and  C_9
REMARK                            x       y       z     vdW  Elec       q    Type
REMARK                         _______ _______ _______ _____ _____    ______ ____
ROOT
ATOM      1  C   UNL     1      -3.516  10.805  15.858  0.00  0.00    +0.000 A 
ATOM      2  C   UNL     1      -4.680  11.465  16.287  0.00  0.00    +0.000 A 
ATOM      3  C   UNL     1      -4.789  11.903  17.619  0.00  0.00    +0.000 A 
ATOM      4  C   UNL     1      -5.817  12.544  18.350  0.00  0.00    +0.000 A 
ATOM      5  C   UNL     1      -7.104  13.001  17.994  0.00  0.00    +0.000 A 
ATOM      6  C   UNL     1      -7.916  13.586  18.961  0.00  0.00    +0.000 A 
ATOM      7  C   UNL     1      -7.462  13.709  20.270  0.00  0.00    +0.000 A 
ATOM      8  C   UNL     1      -6.183  13.259  20.651  0.00  0.00    +0.000 A 
ATOM      9  C   UNL     1      -5.368  12.678  19.665  0.00  0.00    +0.000 A 
ATOM     10  N   UNL     1      -4.078  12.135  19.719  0.00  0.00    +0.000 N 
ATOM     11  C   UNL     1      -3.737  11.675  18.492  0.00  0.00    +0.000 A 
ATOM     12  C   UNL     1      -2.582  11.033  18.095  0.00  0.00    +0.000 A 
ATOM     13  C   UNL     1      -2.488  10.607  16.780  0.00  0.00    +0.000 A 
ATOM     14  N   UNL     1      -1.288   9.978  16.636  0.00  0.00    +0.000 N 
ATOM     15  C   UNL     1      -0.628   9.912  17.835  0.00  0.00    +0.000 A 
ATOM     16  C   UNL     1       0.575   9.251  18.101  0.00  0.00    +0.000 A 
ATOM     17  C   UNL     1       1.075   9.323  19.394  0.00  0.00    +0.000 A 
ATOM     18  C   UNL     1       0.398  10.062  20.361  0.00  0.00    +0.000 A 
ATOM     19 BR   UNL     1       1.158  10.175  22.094  0.00  0.00    +0.000 Br
ATOM     20  C   UNL     1      -0.823  10.716  20.088  0.00  0.00    +0.000 A 
ATOM     21  C   UNL     1      -1.380  10.621  18.792  0.00  0.00    +0.000 A 
ATOM     22  H   UNL     1      -3.523  12.090  20.558  0.00  0.00    +0.000 HD
ATOM     23  H   UNL     1      -0.985   9.551  15.768  0.00  0.00    +0.000 HD
ENDROOT
BRANCH   1  25
ATOM     24  N   UNL     1      -4.560  10.123  13.787  0.00  0.00    +0.000 N 
ATOM     25  C   UNL     1      -3.395  10.234  14.504  0.00  0.00    +0.000 C 
ATOM     26  O   UNL     1      -2.293   9.914  14.063  0.00  0.00    +0.000 OA
ATOM     27  H   UNL     1      -5.345  10.720  14.021  0.00  0.00    +0.000 HD
BRANCH  24  28
ATOM     28  C   UNL     1      -4.538   9.571  12.452  0.00  0.00    +0.000 C 
BRANCH  28  29
ATOM     29  C   UNL     1      -5.582  10.235  11.545  0.00  0.00    +0.000 C 
BRANCH  29  31
ATOM     30  C   UNL     1      -7.895  10.260  10.776  0.00  0.00    +0.000 C 
ATOM     31  N   UNL     1      -6.976   9.819  11.830  0.00  0.00    +0.000 NA
ATOM     32  C   UNL     1      -7.033   8.357  11.945  0.00  0.00    +0.000 C 
ENDBRANCH  29  31
ENDBRANCH  28  29
ENDBRANCH  24  28
ENDBRANCH   1  25
TORSDOF 4
ENDMDL
MODEL 5
REMARK VINA RESULT:      -6.9      9.068     11.579
REMARK  Name = 
REMARK  6 active torsions:
REMARK  status: ('A' for Active; 'I' for Inactive)
REMARK    1  A    between atoms: C_1  and  N_2
REMARK    2  A    between atoms: N_2  and  C_3
REMARK    3  A    between atoms: N_2  and  C_4
REMARK    4  A    between atoms: C_4  and  C_5
REMARK    5  A    between atoms: C_5  and  N_6
REMARK    6  A    between atoms: C_7  and  C_9
REMARK                            x       y       z     vdW  Elec       q    Type
REMARK                         _______ _______ _______ _____ _____    ______ ____
ROOT
ATOM      1  C   UNL     1      -0.216  10.279  20.352  0.00  0.00    +0.000 A 
ATOM      2  C   UNL     1      -0.654   9.951  19.058  0.00  0.00    +0.000 A 
ATOM      3  C   UNL     1      -1.713  10.666  18.472  0.00  0.00    +0.000 A 
ATOM      4  C   UNL     1      -2.395  10.557  17.237  0.00  0.00    +0.000 A 
ATOM      5  C   UNL     1      -2.235   9.699  16.128  0.00  0.00    +0.000 A 
ATOM      6  C   UNL     1      -3.093   9.818  15.038  0.00  0.00    +0.000 A 
ATOM      7  C   UNL     1      -4.104  10.773  15.050  0.00  0.00    +0.000 A 
ATOM      8  C   UNL     1      -4.286  11.640  16.146  0.00  0.00    +0.000 A 
ATOM      9  C   UNL     1      -3.408  11.516  17.237  0.00  0.00    +0.000 A 
ATOM     10  N   UNL     1      -3.328  12.204  18.454  0.00  0.00    +0.000 N 
ATOM     11  C   UNL     1      -2.312  11.692  19.187  0.00  0.00    +0.000 A 
ATOM     12  C   UNL     1      -1.897  12.036  20.458  0.00  0.00    +0.000 A 
ATOM     13  C   UNL     1      -0.853  11.323  21.022  0.00  0.00    +0.000 A 
ATOM     14  N   UNL     1      -0.649  11.815  22.277  0.00  0.00    +0.000 N 
ATOM     15  C   UNL     1      -1.579  12.776  22.578  0.00  0.00    +0.000 A 
ATOM     16  C   UNL     1      -1.754  13.426  23.803  0.00  0.00    +0.000 A 
ATOM     17  C   UNL     1      -2.757  14.381  23.885  0.00  0.00    +0.000 A 
ATOM     18  C   UNL     1      -3.525  14.682  22.762  0.00  0.00    +0.000 A 
ATOM     19 BR   UNL     1      -4.841  16.037  22.916  0.00  0.00    +0.000 Br
ATOM     20  C   UNL     1      -3.351  14.011  21.532  0.00  0.00    +0.000 A 
ATOM     21  C   UNL     1      -2.367  13.001  21.432  0.00  0.00    +0.000 A 
ATOM     22  H   UNL     1      -3.954  12.945  18.722  0.00  0.00    +0.000 HD
ATOM     23  H   UNL     1       0.048  11.445  22.912  0.00  0.00    +0.000 HD
ENDROOT
BRANCH   1  25
ATOM     24  N   UNL     1       1.056   8.233  20.559  0.00  0.00    +0.000 N 
ATOM     25  C   UNL     1       0.818   9.493  21.050  0.00  0.00    +0.000 C 
ATOM     26  O   UNL     1       1.433   9.980  21.995  0.00  0.00    +0.000 OA
ATOM     27  H   UNL     1       0.818   8.023  19.596  0.00  0.00    +0.000 HD
BRANCH  24  28
ATOM     28  C   UNL     1       2.049   7.390  21.183  0.00  0.00    +0.000 C 
BRANCH  28  29
ATOM     29  C   UNL     1       1.867   5.917  20.795  0.00  0.00    +0.000 C 
BRANCH  29  31
ATOM     30  C   UNL     1       3.831   5.565  19.394  0.00  0.00    +0.000 C 
ATOM     31  N   UNL     1       2.365   5.587  19.439  0.00  0.00    +0.000 NA
ATOM     32  C   UNL     1       1.847   4.275  19.036  0.00  0.00    +0.000 C 
ENDBRANCH  29  31
ENDBRANCH  28  29
ENDBRANCH  24  28
ENDBRANCH   1  25
TORSDOF 4
ENDMDL
MODEL 6
REMARK VINA RESULT:      -6.9      8.043     10.883
REMARK  Name = 
REMARK  6 active torsions:
REMARK  status: ('A' for Active; 'I' for Inactive)
REMARK    1  A    between atoms: C_1  and  N_2
REMARK    2  A    between atoms: N_2  and  C_3
REMARK    3  A    between atoms: N_2  and  C_4
REMARK    4  A    between atoms: C_4  and  C_5
REMARK    5  A    between atoms: C_5  and  N_6
REMARK    6  A    between atoms: C_7  and  C_9
REMARK                            x       y       z     vdW  Elec       q    Type
REMARK                         _______ _______ _______ _____ _____    ______ ____
ROOT
ATOM      1  C   UNL     1       1.115  10.586  18.485  0.00  0.00    +0.000 A 
ATOM      2  C   UNL     1       1.819  11.788  18.663  0.00  0.00    +0.000 A 
ATOM      3  C   UNL     1       1.120  13.004  18.760  0.00  0.00    +0.000 A 
ATOM      4  C   UNL     1       1.529  14.352  18.898  0.00  0.00    +0.000 A 
ATOM      5  C   UNL     1       2.797  14.961  19.016  0.00  0.00    +0.000 A 
ATOM      6  C   UNL     1       2.886  16.347  19.116  0.00  0.00    +0.000 A 
ATOM      7  C   UNL     1       1.731  17.121  19.092  0.00  0.00    +0.000 A 
ATOM      8  C   UNL     1       0.454  16.538  18.973  0.00  0.00    +0.000 A 
ATOM      9  C   UNL     1       0.376  15.138  18.881  0.00  0.00    +0.000 A 
ATOM     10  N   UNL     1      -0.715  14.270  18.748  0.00  0.00    +0.000 N 
ATOM     11  C   UNL     1      -0.263  12.996  18.678  0.00  0.00    +0.000 A 
ATOM     12  C   UNL     1      -0.979  11.828  18.508  0.00  0.00    +0.000 A 
ATOM     13  C   UNL     1      -0.277  10.638  18.414  0.00  0.00    +0.000 A 
ATOM     14  N   UNL     1      -1.184   9.640  18.215  0.00  0.00    +0.000 N 
ATOM     15  C   UNL     1      -2.451  10.151  18.099  0.00  0.00    +0.000 A 
ATOM     16  C   UNL     1      -3.619   9.450  17.785  0.00  0.00    +0.000 A 
ATOM     17  C   UNL     1      -4.804  10.170  17.731  0.00  0.00    +0.000 A 
ATOM     18  C   UNL     1      -4.804  11.533  18.015  0.00  0.00    +0.000 A 
ATOM     19 BR   UNL     1      -6.461  12.453  17.984  0.00  0.00    +0.000 Br
ATOM     20  C   UNL     1      -3.618  12.237  18.318  0.00  0.00    +0.000 A 
ATOM     21  C   UNL     1      -2.388  11.539  18.335  0.00  0.00    +0.000 A 
ATOM     22  H   UNL     1      -1.672  14.576  18.696  0.00  0.00    +0.000 HD
ATOM     23  H   UNL     1      -0.923   8.669  18.089  0.00  0.00    +0.000 HD
ENDROOT
BRANCH   1  25
ATOM     24  N   UNL     1       1.803   8.429  19.333  0.00  0.00    +0.000 N 
ATOM     25  C   UNL     1       1.804   9.300  18.273  0.00  0.00    +0.000 C 
ATOM     26  O   UNL     1       2.314   9.043  17.184  0.00  0.00    +0.000 OA
ATOM     27  H   UNL     1       1.082   8.512  20.041  0.00  0.00    +0.000 HD
BRANCH  24  28
ATOM     28  C   UNL     1       2.458   7.147  19.218  0.00  0.00    +0.000 C 
BRANCH  28  29
ATOM     29  C   UNL     1       2.046   6.194  20.348  0.00  0.00    +0.000 C 
BRANCH  29  31
ATOM     30  C   UNL     1       1.912   3.902  21.168  0.00  0.00    +0.000 C 
ATOM     31  N   UNL     1       2.415   4.780  20.105  0.00  0.00    +0.000 NA
ATOM     32  C   UNL     1       1.865   4.347  18.816  0.00  0.00    +0.000 C 
ENDBRANCH  29  31
ENDBRANCH  28  29
ENDBRANCH  24  28
ENDBRANCH   1  25
TORSDOF 4
ENDMDL
MODEL 7
REMARK VINA RESULT:      -6.8      8.851     11.136
REMARK  Name = 
REMARK  6 active torsions:
REMARK  status: ('A' for Active; 'I' for Inactive)
REMARK    1  A    between atoms: C_1  and  N_2
REMARK    2  A    between atoms: N_2  and  C_3
REMARK    3  A    between atoms: N_2  and  C_4
REMARK    4  A    between atoms: C_4  and  C_5
REMARK    5  A    between atoms: C_5  and  N_6
REMARK    6  A    between atoms: C_7  and  C_9
REMARK                            x       y       z     vdW  Elec       q    Type
REMARK                         _______ _______ _______ _____ _____    ______ ____
ROOT
ATOM      1  C   UNL     1       0.134  10.870  21.719  0.00  0.00    +0.000 A 
ATOM      2  C   UNL     1      -1.045  11.067  22.458  0.00  0.00    +0.000 A 
ATOM      3  C   UNL     1      -1.739  12.285  22.361  0.00  0.00    +0.000 A 
ATOM      4  C   UNL     1      -2.901  12.795  22.988  0.00  0.00    +0.000 A 
ATOM      5  C   UNL     1      -3.802  12.246  23.925  0.00  0.00    +0.000 A 
ATOM      6  C   UNL     1      -4.866  13.016  24.387  0.00  0.00    +0.000 A 
ATOM      7  C   UNL     1      -5.031  14.319  23.931  0.00  0.00    +0.000 A 
ATOM      8  C   UNL     1      -4.144  14.891  22.997  0.00  0.00    +0.000 A 
ATOM      9  C   UNL     1      -3.079  14.102  22.531  0.00  0.00    +0.000 A 
ATOM     10  N   UNL     1      -2.042  14.370  21.629  0.00  0.00    +0.000 N 
ATOM     11  C   UNL     1      -1.246  13.279  21.530  0.00  0.00    +0.000 A 
ATOM     12  C   UNL     1      -0.093  13.109  20.790  0.00  0.00    +0.000 A 
ATOM     13  C   UNL     1       0.581  11.904  20.896  0.00  0.00    +0.000 A 
ATOM     14  N   UNL     1       1.693  11.985  20.112  0.00  0.00    +0.000 N 
ATOM     15  C   UNL     1       1.807  13.233  19.558  0.00  0.00    +0.000 A 
ATOM     16  C   UNL     1       2.866  13.721  18.787  0.00  0.00    +0.000 A 
ATOM     17  C   UNL     1       2.769  15.022  18.313  0.00  0.00    +0.000 A 
ATOM     18  C   UNL     1       1.631  15.778  18.584  0.00  0.00    +0.000 A 
ATOM     19 BR   UNL     1       1.526  17.527  17.861  0.00  0.00    +0.000 Br
ATOM     20  C   UNL     1       0.571  15.282  19.374  0.00  0.00    +0.000 A 
ATOM     21  C   UNL     1       0.663  13.977  19.909  0.00  0.00    +0.000 A 
ATOM     22  H   UNL     1      -1.923  15.251  21.157  0.00  0.00    +0.000 HD
ATOM     23  H   UNL     1       2.372  11.237  20.033  0.00  0.00    +0.000 HD
ENDROOT
BRANCH   1  25
ATOM     24  N   UNL     1       0.766   8.678  20.920  0.00  0.00    +0.000 N 
ATOM     25  C   UNL     1       0.955   9.654  21.866  0.00  0.00    +0.000 C 
ATOM     26  O   UNL     1       1.774   9.566  22.778  0.00  0.00    +0.000 OA
ATOM     27  H   UNL     1       0.386   8.931  20.015  0.00  0.00    +0.000 HD
BRANCH  24  28
ATOM     28  C   UNL     1       1.524   7.450  20.987  0.00  0.00    +0.000 C 
BRANCH  28  29
ATOM     29  C   UNL     1       2.270   7.171  19.676  0.00  0.00    +0.000 C 
BRANCH  29  31
ATOM     30  C   UNL     1       4.012   5.506  19.305  0.00  0.00    +0.000 C 
ATOM     31  N   UNL     1       2.571   5.737  19.449  0.00  0.00    +0.000 NA
ATOM     32  C   UNL     1       2.062   4.950  20.577  0.00  0.00    +0.000 C 
ENDBRANCH  29  31
ENDBRANCH  28  29
ENDBRANCH  24  28
ENDBRANCH   1  25
TORSDOF 4
ENDMDL
MODEL 8
REMARK VINA RESULT:      -6.8      9.066     12.388
REMARK  Name = 
REMARK  6 active torsions:
REMARK  status: ('A' for Active; 'I' for Inactive)
REMARK    1  A    between atoms: C_1  and  N_2
REMARK    2  A    between atoms: N_2  and  C_3
REMARK    3  A    between atoms: N_2  and  C_4
REMARK    4  A    between atoms: C_4  and  C_5
REMARK    5  A    between atoms: C_5  and  N_6
REMARK    6  A    between atoms: C_7  and  C_9
REMARK                            x       y       z     vdW  Elec       q    Type
REMARK                         _______ _______ _______ _____ _____    ______ ____
ROOT
ATOM      1  C   UNL     1       0.347  10.951  21.245  0.00  0.00    +0.000 A 
ATOM      2  C   UNL     1       1.199  11.651  20.374  0.00  0.00    +0.000 A 
ATOM      3  C   UNL     1       1.075  13.045  20.241  0.00  0.00    +0.000 A 
ATOM      4  C   UNL     1       1.734  14.008  19.440  0.00  0.00    +0.000 A 
ATOM      5  C   UNL     1       2.782  13.915  18.499  0.00  0.00    +0.000 A 
ATOM      6  C   UNL     1       3.213  15.061  17.837  0.00  0.00    +0.000 A 
ATOM      7  C   UNL     1       2.608  16.286  18.099  0.00  0.00    +0.000 A 
ATOM      8  C   UNL     1       1.559  16.405  19.033  0.00  0.00    +0.000 A 
ATOM      9  C   UNL     1       1.137  15.242  19.701  0.00  0.00    +0.000 A 
ATOM     10  N   UNL     1       0.139  15.025  20.658  0.00  0.00    +0.000 N 
ATOM     11  C   UNL     1       0.107  13.710  20.978  0.00  0.00    +0.000 A 
ATOM     12  C   UNL     1      -0.738  13.046  21.843  0.00  0.00    +0.000 A 
ATOM     13  C   UNL     1      -0.605  11.673  21.964  0.00  0.00    +0.000 A 
ATOM     14  N   UNL     1      -1.559  11.242  22.836  0.00  0.00    +0.000 N 
ATOM     15  C   UNL     1      -2.362  12.281  23.230  0.00  0.00    +0.000 A 
ATOM     16  C   UNL     1      -3.506  12.208  24.030  0.00  0.00    +0.000 A 
ATOM     17  C   UNL     1      -4.165  13.395  24.316  0.00  0.00    +0.000 A 
ATOM     18  C   UNL     1      -3.664  14.603  23.837  0.00  0.00    +0.000 A 
ATOM     19 BR   UNL     1      -4.572  16.198  24.309  0.00  0.00    +0.000 Br
ATOM     20  C   UNL     1      -2.515  14.667  23.019  0.00  0.00    +0.000 A 
ATOM     21  C   UNL     1      -1.849  13.469  22.672  0.00  0.00    +0.000 A 
ATOM     22  H   UNL     1      -0.460  15.750  21.018  0.00  0.00    +0.000 HD
ATOM     23  H   UNL     1      -1.690  10.267  23.080  0.00  0.00    +0.000 HD
ENDROOT
BRANCH   1  25
ATOM     24  N   UNL     1       1.387   8.842  20.681  0.00  0.00    +0.000 N 
ATOM     25  C   UNL     1       0.367   9.480  21.341  0.00  0.00    +0.000 C 
ATOM     26  O   UNL     1      -0.482   8.892  22.008  0.00  0.00    +0.000 OA
ATOM     27  H   UNL     1       2.239   9.352  20.476  0.00  0.00    +0.000 HD
BRANCH  24  28
ATOM     28  C   UNL     1       1.483   7.401  20.717  0.00  0.00    +0.000 C 
BRANCH  28  29
ATOM     29  C   UNL     1       2.372   6.863  19.588  0.00  0.00    +0.000 C 
BRANCH  29  31
ATOM     30  C   UNL     1       3.980   5.033  19.486  0.00  0.00    +0.000 C 
ATOM     31  N   UNL     1       2.565   5.394  19.625  0.00  0.00    +0.000 NA
ATOM     32  C   UNL     1       2.052   4.868  20.895  0.00  0.00    +0.000 C 
ENDBRANCH  29  31
ENDBRANCH  28  29
ENDBRANCH  24  28
ENDBRANCH   1  25
TORSDOF 4
ENDMDL
MODEL 9
REMARK VINA RESULT:      -6.6      4.213      6.941
REMARK  Name = 
REMARK  6 active torsions:
REMARK  status: ('A' for Active; 'I' for Inactive)
REMARK    1  A    between atoms: C_1  and  N_2
REMARK    2  A    between atoms: N_2  and  C_3
REMARK    3  A    between atoms: N_2  and  C_4
REMARK    4  A    between atoms: C_4  and  C_5
REMARK    5  A    between atoms: C_5  and  N_6
REMARK    6  A    between atoms: C_7  and  C_9
REMARK                            x       y       z     vdW  Elec       q    Type
REMARK                         _______ _______ _______ _____ _____    ______ ____
ROOT
ATOM      1  C   UNL     1       4.545   6.785  17.377  0.00  0.00    +0.000 A 
ATOM      2  C   UNL     1       3.875   8.020  17.409  0.00  0.00    +0.000 A 
ATOM      3  C   UNL     1       2.829   8.228  18.324  0.00  0.00    +0.000 A 
ATOM      4  C   UNL     1       1.955   9.314  18.570  0.00  0.00    +0.000 A 
ATOM      5  C   UNL     1       1.838  10.599  17.998  0.00  0.00    +0.000 A 
ATOM      6  C   UNL     1       0.840  11.461  18.444  0.00  0.00    +0.000 A 
ATOM      7  C   UNL     1      -0.038  11.051  19.442  0.00  0.00    +0.000 A 
ATOM      8  C   UNL     1       0.057   9.774  20.028  0.00  0.00    +0.000 A 
ATOM      9  C   UNL     1       1.073   8.915  19.576  0.00  0.00    +0.000 A 
ATOM     10  N   UNL     1       1.422   7.608  19.938  0.00  0.00    +0.000 N 
ATOM     11  C   UNL     1       2.473   7.204  19.187  0.00  0.00    +0.000 A 
ATOM     12  C   UNL     1       3.118   5.984  19.180  0.00  0.00    +0.000 A 
ATOM     13  C   UNL     1       4.147   5.792  18.273  0.00  0.00    +0.000 A 
ATOM     14  N   UNL     1       4.600   4.516  18.428  0.00  0.00    +0.000 N 
ATOM     15  C   UNL     1       3.847   3.843  19.355  0.00  0.00    +0.000 A 
ATOM     16  C   UNL     1       3.942   2.492  19.700  0.00  0.00    +0.000 A 
ATOM     17  C   UNL     1       3.082   2.017  20.680  0.00  0.00    +0.000 A 
ATOM     18  C   UNL     1       2.190   2.887  21.302  0.00  0.00    +0.000 A 
ATOM     19 BR   UNL     1       1.081   2.196  22.676  0.00  0.00    +0.000 Br
ATOM     20  C   UNL     1       2.090   4.247  20.939  0.00  0.00    +0.000 A 
ATOM     21  C   UNL     1       2.922   4.748  19.911  0.00  0.00    +0.000 A 
ATOM     22  H   UNL     1       0.936   7.071  20.638  0.00  0.00    +0.000 HD
ATOM     23  H   UNL     1       5.340   4.117  17.863  0.00  0.00    +0.000 HD
ENDROOT
BRANCH   1  25
ATOM     24  N   UNL     1       5.228   5.571  15.402  0.00  0.00    +0.000 N 
ATOM     25  C   UNL     1       5.576   6.480  16.369  0.00  0.00    +0.000 C 
ATOM     26  O   UNL     1       6.665   7.049  16.404  0.00  0.00    +0.000 OA
ATOM     27  H   UNL     1       4.247   5.423  15.191  0.00  0.00    +0.000 HD
BRANCH  24  28
ATOM     28  C   UNL     1       6.176   5.208  14.374  0.00  0.00    +0.000 C 
BRANCH  28  29
ATOM     29  C   UNL     1       6.143   3.704  14.077  0.00  0.00    +0.000 C 
BRANCH  29  31
ATOM     30  C   UNL     1       5.063   3.283  11.932  0.00  0.00    +0.000 C 
ATOM     31  N   UNL     1       6.341   3.370  12.646  0.00  0.00    +0.000 NA
ATOM     32  C   UNL     1       7.179   4.398  12.019  0.00  0.00    +0.000 C 
ENDBRANCH  29  31
ENDBRANCH  28  29
ENDBRANCH  24  28
ENDBRANCH   1  25
TORSDOF 4
ENDMDL
