MODEL 1
REMARK VINA RESULT:      -6.2      0.000      0.000
REMARK  Name = 
REMARK  12 active torsions:
REMARK  status: ('A' for Active; 'I' for Inactive)
REMARK    1  A    between atoms: C_1  and  C_2
REMARK    2  A    between atoms: C_2  and  N_3
REMARK    3  A    between atoms: N_3  and  C_4
REMARK    4  A    between atoms: N_3  and  C_20
REMARK    5  A    between atoms: C_4  and  C_5
REMARK    6  A    between atoms: C_5  and  N_6
REMARK    7  A    between atoms: C_7  and  C_9
REMARK    8  A    between atoms: C_14  and  O_15
REMARK    9  A    between atoms: O_15  and  C_16
REMARK   10  A    between atoms: C_16  and  C_17
REMARK   11  A    between atoms: C_17  and  O_18
REMARK   12  A    between atoms: O_18  and  C_19
REMARK                            x       y       z     vdW  Elec       q    Type
REMARK                         _______ _______ _______ _____ _____    ______ ____
ROOT
ATOM      1  N   UNL     1       4.525   2.996  17.522  0.00  0.00    +0.000 N 
ATOM      2  C   UNL     1       5.302   3.690  18.423  0.00  0.00    +0.000 C 
ATOM      3  O   UNL     1       5.294   3.434  19.627  0.00  0.00    +0.000 OA
ATOM      4  H   UNL     1       4.605   3.198  16.532  0.00  0.00    +0.000 HD
ENDROOT
BRANCH   2   5
ATOM      5  C   UNL     1       6.124   4.826  17.941  0.00  0.00    +0.000 A 
ATOM      6  C   UNL     1       6.829   5.543  18.924  0.00  0.00    +0.000 A 
ATOM      7  C   UNL     1       7.655   6.604  18.569  0.00  0.00    +0.000 A 
ATOM      8  C   UNL     1       7.751   6.926  17.233  0.00  0.00    +0.000 A 
ATOM      9  N   UNL     1       7.089   6.266  16.260  0.00  0.00    +0.000 NA
ATOM     10  C   UNL     1       6.291   5.222  16.616  0.00  0.00    +0.000 A 
BRANCH  10  11
ATOM     11  O   UNL     1       5.612   4.571  15.596  0.00  0.00    +0.000 OA
BRANCH  11  12
ATOM     12  C   UNL     1       6.520   3.919  14.689  0.00  0.00    +0.000 C 
BRANCH  12  13
ATOM     13  C   UNL     1       6.174   4.246  13.240  0.00  0.00    +0.000 C 
BRANCH  13  14
ATOM     14  O   UNL     1       5.754   3.039  12.596  0.00  0.00    +0.000 OA
ATOM     15  C   UNL     1       4.672   3.248  11.699  0.00  0.00    +0.000 C 
ENDBRANCH  13  14
ENDBRANCH  12  13
ENDBRANCH  11  12
ENDBRANCH  10  11
ENDBRANCH   2   5
BRANCH   1  16
ATOM     16  C   UNL     1       3.612   1.954  17.979  0.00  0.00    +0.000 C 
BRANCH  16  17
ATOM     17  C   UNL     1       2.184   2.480  18.231  0.00  0.00    +0.000 C 
BRANCH  17  18
ATOM     18  N   UNL     1       1.982   3.309  19.438  0.00  0.00    +0.000 NA
BRANCH  18  19
ATOM     19  C   UNL     1       1.541   4.681  19.109  0.00  0.00    +0.000 C 
ATOM     20  C   UNL     1       2.464   5.846  19.366  0.00  0.00    +0.000 C 
ATOM     21  C   UNL     1       2.184   5.410  17.960  0.00  0.00    +0.000 C 
ENDBRANCH  18  19
BRANCH  18  23
ATOM     22  C   UNL     1       1.801   2.605  21.844  0.00  0.00    +0.000 C 
ATOM     23  C   UNL     1       1.137   2.702  20.476  0.00  0.00    +0.000 C 
ENDBRANCH  18  23
ENDBRANCH  17  18
ENDBRANCH  16  17
ENDBRANCH   1  16
TORSDOF 10
ENDMDL
MODEL 2
REMARK VINA RESULT:      -6.0      0.787      1.773
REMARK  Name = 
REMARK  12 active torsions:
REMARK  status: ('A' for Active; 'I' for Inactive)
REMARK    1  A    between atoms: C_1  and  C_2
REMARK    2  A    between atoms: C_2  and  N_3
REMARK    3  A    between atoms: N_3  and  C_4
REMARK    4  A    between atoms: N_3  and  C_20
REMARK    5  A    between atoms: C_4  and  C_5
REMARK    6  A    between atoms: C_5  and  N_6
REMARK    7  A    between atoms: C_7  and  C_9
REMARK    8  A    between atoms: C_14  and  O_15
REMARK    9  A    between atoms: O_15  and  C_16
REMARK   10  A    between atoms: C_16  and  C_17
REMARK   11  A    between atoms: C_17  and  O_18
REMARK   12  A    between atoms: O_18  and  C_19
REMARK                            x       y       z     vdW  Elec       q    Type
REMARK                         _______ _______ _______ _____ _____    ______ ____
ROOT
ATOM      1  N   UNL     1       4.484   2.820  17.618  0.00  0.00    +0.000 N 
ATOM      2  C   UNL     1       5.327   3.571  18.407  0.00  0.00    +0.000 C 
ATOM      3  O   UNL     1       5.420   3.391  19.620  0.00  0.00    +0.000 OA
ATOM      4  H   UNL     1       4.481   2.960  16.613  0.00  0.00    +0.000 HD
ENDROOT
BRANCH   2   5
ATOM      5  C   UNL     1       6.100   4.676  17.789  0.00  0.00    +0.000 A 
ATOM      6  C   UNL     1       6.492   5.716  18.649  0.00  0.00    +0.000 A 
ATOM      7  C   UNL     1       7.250   6.781  18.173  0.00  0.00    +0.000 A 
ATOM      8  C   UNL     1       7.592   6.779  16.838  0.00  0.00    +0.000 A 
ATOM      9  N   UNL     1       7.234   5.802  15.979  0.00  0.00    +0.000 NA
ATOM     10  C   UNL     1       6.501   4.760  16.457  0.00  0.00    +0.000 A 
BRANCH  10  11
ATOM     11  O   UNL     1       6.136   3.778  15.548  0.00  0.00    +0.000 OA
BRANCH  11  12
ATOM     12  C   UNL     1       5.593   4.348  14.343  0.00  0.00    +0.000 C 
BRANCH  12  13
ATOM     13  C   UNL     1       6.295   3.791  13.110  0.00  0.00    +0.000 C 
BRANCH  13  14
ATOM     14  O   UNL     1       5.296   3.310  12.203  0.00  0.00    +0.000 OA
ATOM     15  C   UNL     1       5.691   2.120  11.538  0.00  0.00    +0.000 C 
ENDBRANCH  13  14
ENDBRANCH  12  13
ENDBRANCH  11  12
ENDBRANCH  10  11
ENDBRANCH   2   5
BRANCH   1  16
ATOM     16  C   UNL     1       3.619   1.808  18.212  0.00  0.00    +0.000 C 
BRANCH  16  17
ATOM     17  C   UNL     1       2.120   2.115  18.018  0.00  0.00    +0.000 C 
BRANCH  17  18
ATOM     18  N   UNL     1       1.632   3.411  18.536  0.00  0.00    +0.000 NA
BRANCH  18  19
ATOM     19  C   UNL     1       2.072   3.662  19.925  0.00  0.00    +0.000 C 
ATOM     20  C   UNL     1       1.052   3.994  20.985  0.00  0.00    +0.000 C 
ATOM     21  C   UNL     1       1.738   2.662  20.999  0.00  0.00    +0.000 C 
ENDBRANCH  18  19
BRANCH  18  23
ATOM     22  C   UNL     1       2.305   5.829  18.414  0.00  0.00    +0.000 C 
ATOM     23  C   UNL     1       1.894   4.567  17.667  0.00  0.00    +0.000 C 
ENDBRANCH  18  23
ENDBRANCH  17  18
ENDBRANCH  16  17
ENDBRANCH   1  16
TORSDOF 10
ENDMDL
MODEL 3
REMARK VINA RESULT:      -5.9      2.004      4.481
REMARK  Name = 
REMARK  12 active torsions:
REMARK  status: ('A' for Active; 'I' for Inactive)
REMARK    1  A    between atoms: C_1  and  C_2
REMARK    2  A    between atoms: C_2  and  N_3
REMARK    3  A    between atoms: N_3  and  C_4
REMARK    4  A    between atoms: N_3  and  C_20
REMARK    5  A    between atoms: C_4  and  C_5
REMARK    6  A    between atoms: C_5  and  N_6
REMARK    7  A    between atoms: C_7  and  C_9
REMARK    8  A    between atoms: C_14  and  O_15
REMARK    9  A    between atoms: O_15  and  C_16
REMARK   10  A    between atoms: C_16  and  C_17
REMARK   11  A    between atoms: C_17  and  O_18
REMARK   12  A    between atoms: O_18  and  C_19
REMARK                            x       y       z     vdW  Elec       q    Type
REMARK                         _______ _______ _______ _____ _____    ______ ____
ROOT
ATOM      1  N   UNL     1       3.516   5.612  17.650  0.00  0.00    +0.000 N 
ATOM      2  C   UNL     1       4.795   5.115  17.771  0.00  0.00    +0.000 C 
ATOM      3  O   UNL     1       5.267   4.782  18.858  0.00  0.00    +0.000 OA
ATOM      4  H   UNL     1       3.144   5.818  16.729  0.00  0.00    +0.000 HD
ENDROOT
BRANCH   2   5
ATOM      5  C   UNL     1       5.656   5.040  16.567  0.00  0.00    +0.000 A 
ATOM      6  C   UNL     1       5.141   4.311  15.480  0.00  0.00    +0.000 A 
ATOM      7  C   UNL     1       5.858   4.211  14.292  0.00  0.00    +0.000 A 
ATOM      8  C   UNL     1       7.082   4.841  14.224  0.00  0.00    +0.000 A 
ATOM      9  N   UNL     1       7.612   5.548  15.244  0.00  0.00    +0.000 NA
ATOM     10  C   UNL     1       6.898   5.648  16.399  0.00  0.00    +0.000 A 
BRANCH  10  11
ATOM     11  O   UNL     1       7.475   6.368  17.435  0.00  0.00    +0.000 OA
BRANCH  11  12
ATOM     12  C   UNL     1       6.926   7.696  17.526  0.00  0.00    +0.000 C 
BRANCH  12  13
ATOM     13  C   UNL     1       8.032   8.746  17.513  0.00  0.00    +0.000 C 
BRANCH  13  14
ATOM     14  O   UNL     1       8.691   8.720  18.783  0.00  0.00    +0.000 OA
ATOM     15  C   UNL     1       9.148  10.002  19.188  0.00  0.00    +0.000 C 
ENDBRANCH  13  14
ENDBRANCH  12  13
ENDBRANCH  11  12
ENDBRANCH  10  11
ENDBRANCH   2   5
BRANCH   1  16
ATOM     16  C   UNL     1       2.684   5.815  18.831  0.00  0.00    +0.000 C 
BRANCH  16  17
ATOM     17  C   UNL     1       1.678   4.668  19.056  0.00  0.00    +0.000 C 
BRANCH  17  18
ATOM     18  N   UNL     1       2.240   3.317  19.263  0.00  0.00    +0.000 NA
BRANCH  18  19
ATOM     19  C   UNL     1       1.742   2.686  20.504  0.00  0.00    +0.000 C 
ATOM     20  C   UNL     1       2.713   2.314  21.596  0.00  0.00    +0.000 C 
ATOM     21  C   UNL     1       1.772   3.463  21.793  0.00  0.00    +0.000 C 
ENDBRANCH  18  19
BRANCH  18  23
ATOM     22  C   UNL     1       3.428   1.716  17.733  0.00  0.00    +0.000 C 
ATOM     23  C   UNL     1       2.127   2.412  18.111  0.00  0.00    +0.000 C 
ENDBRANCH  18  23
ENDBRANCH  17  18
ENDBRANCH  16  17
ENDBRANCH   1  16
TORSDOF 10
ENDMDL
MODEL 4
REMARK VINA RESULT:      -5.9      2.407      6.328
REMARK  Name = 
REMARK  12 active torsions:
REMARK  status: ('A' for Active; 'I' for Inactive)
REMARK    1  A    between atoms: C_1  and  C_2
REMARK    2  A    between atoms: C_2  and  N_3
REMARK    3  A    between atoms: N_3  and  C_4
REMARK    4  A    between atoms: N_3  and  C_20
REMARK    5  A    between atoms: C_4  and  C_5
REMARK    6  A    between atoms: C_5  and  N_6
REMARK    7  A    between atoms: C_7  and  C_9
REMARK    8  A    between atoms: C_14  and  O_15
REMARK    9  A    between atoms: O_15  and  C_16
REMARK   10  A    between atoms: C_16  and  C_17
REMARK   11  A    between atoms: C_17  and  O_18
REMARK   12  A    between atoms: O_18  and  C_19
REMARK                            x       y       z     vdW  Elec       q    Type
REMARK                         _______ _______ _______ _____ _____    ______ ____
ROOT
ATOM      1  N   UNL     1       4.695   5.267  19.110  0.00  0.00    +0.000 N 
ATOM      2  C   UNL     1       3.587   5.603  18.364  0.00  0.00    +0.000 C 
ATOM      3  O   UNL     1       3.229   4.940  17.391  0.00  0.00    +0.000 OA
ATOM      4  H   UNL     1       4.921   5.805  19.940  0.00  0.00    +0.000 HD
ENDROOT
BRANCH   2   5
ATOM      5  C   UNL     1       2.839   6.838  18.699  0.00  0.00    +0.000 A 
ATOM      6  C   UNL     1       2.805   7.833  17.706  0.00  0.00    +0.000 A 
ATOM      7  C   UNL     1       2.100   9.014  17.911  0.00  0.00    +0.000 A 
ATOM      8  C   UNL     1       1.448   9.173  19.115  0.00  0.00    +0.000 A 
ATOM      9  N   UNL     1       1.457   8.245  20.094  0.00  0.00    +0.000 NA
ATOM     10  C   UNL     1       2.142   7.088  19.879  0.00  0.00    +0.000 A 
BRANCH  10  11
ATOM     11  O   UNL     1       2.146   6.158  20.909  0.00  0.00    +0.000 OA
BRANCH  11  12
ATOM     12  C   UNL     1       1.343   5.008  20.586  0.00  0.00    +0.000 C 
BRANCH  12  13
ATOM     13  C   UNL     1       1.899   3.750  21.246  0.00  0.00    +0.000 C 
BRANCH  13  14
ATOM     14  O   UNL     1       1.311   2.611  20.607  0.00  0.00    +0.000 OA
ATOM     15  C   UNL     1       0.960   2.865  19.255  0.00  0.00    +0.000 C 
ENDBRANCH  13  14
ENDBRANCH  12  13
ENDBRANCH  11  12
ENDBRANCH  10  11
ENDBRANCH   2   5
BRANCH   1  16
ATOM     16  C   UNL     1       5.525   4.128  18.734  0.00  0.00    +0.000 C 
BRANCH  16  17
ATOM     17  C   UNL     1       6.832   4.548  18.033  0.00  0.00    +0.000 C 
BRANCH  17  18
ATOM     18  N   UNL     1       6.702   5.403  16.834  0.00  0.00    +0.000 NA
BRANCH  18  19
ATOM     19  C   UNL     1       7.519   6.632  16.929  0.00  0.00    +0.000 C 
ATOM     20  C   UNL     1       6.910   7.896  17.481  0.00  0.00    +0.000 C 
ATOM     21  C   UNL     1       7.930   7.146  18.283  0.00  0.00    +0.000 C 
ENDBRANCH  18  19
BRANCH  18  23
ATOM     22  C   UNL     1       5.630   4.513  14.743  0.00  0.00    +0.000 C 
ATOM     23  C   UNL     1       6.905   4.714  15.553  0.00  0.00    +0.000 C 
ENDBRANCH  18  23
ENDBRANCH  17  18
ENDBRANCH  16  17
ENDBRANCH   1  16
TORSDOF 10
ENDMDL
MODEL 5
REMARK VINA RESULT:      -5.8      1.291      1.334
REMARK  Name = 
REMARK  12 active torsions:
REMARK  status: ('A' for Active; 'I' for Inactive)
REMARK    1  A    between atoms: C_1  and  C_2
REMARK    2  A    between atoms: C_2  and  N_3
REMARK    3  A    between atoms: N_3  and  C_4
REMARK    4  A    between atoms: N_3  and  C_20
REMARK    5  A    between atoms: C_4  and  C_5
REMARK    6  A    between atoms: C_5  and  N_6
REMARK    7  A    between atoms: C_7  and  C_9
REMARK    8  A    between atoms: C_14  and  O_15
REMARK    9  A    between atoms: O_15  and  C_16
REMARK   10  A    between atoms: C_16  and  C_17
REMARK   11  A    between atoms: C_17  and  O_18
REMARK   12  A    between atoms: O_18  and  C_19
REMARK                            x       y       z     vdW  Elec       q    Type
REMARK                         _______ _______ _______ _____ _____    ______ ____
ROOT
ATOM      1  N   UNL     1       4.616   2.765  18.035  0.00  0.00    +0.000 N 
ATOM      2  C   UNL     1       4.530   3.659  16.990  0.00  0.00    +0.000 C 
ATOM      3  O   UNL     1       3.629   3.602  16.154  0.00  0.00    +0.000 OA
ATOM      4  H   UNL     1       5.339   2.883  18.736  0.00  0.00    +0.000 HD
ENDROOT
BRANCH   2   5
ATOM      5  C   UNL     1       5.590   4.682  16.827  0.00  0.00    +0.000 A 
ATOM      6  C   UNL     1       5.626   5.699  17.796  0.00  0.00    +0.000 A 
ATOM      7  C   UNL     1       6.604   6.687  17.750  0.00  0.00    +0.000 A 
ATOM      8  C   UNL     1       7.525   6.632  16.726  0.00  0.00    +0.000 A 
ATOM      9  N   UNL     1       7.525   5.674  15.776  0.00  0.00    +0.000 NA
ATOM     10  C   UNL     1       6.569   4.707  15.835  0.00  0.00    +0.000 A 
BRANCH  10  11
ATOM     11  O   UNL     1       6.584   3.744  14.837  0.00  0.00    +0.000 OA
BRANCH  11  12
ATOM     12  C   UNL     1       5.901   4.198  13.654  0.00  0.00    +0.000 C 
BRANCH  12  13
ATOM     13  C   UNL     1       6.521   3.594  12.399  0.00  0.00    +0.000 C 
BRANCH  13  14
ATOM     14  O   UNL     1       5.613   2.618  11.874  0.00  0.00    +0.000 OA
ATOM     15  C   UNL     1       4.374   3.185  11.477  0.00  0.00    +0.000 C 
ENDBRANCH  13  14
ENDBRANCH  12  13
ENDBRANCH  11  12
ENDBRANCH  10  11
ENDBRANCH   2   5
BRANCH   1  16
ATOM     16  C   UNL     1       3.659   1.671  18.155  0.00  0.00    +0.000 C 
BRANCH  16  17
ATOM     17  C   UNL     1       2.464   2.021  19.066  0.00  0.00    +0.000 C 
BRANCH  17  18
ATOM     18  N   UNL     1       2.644   3.157  19.995  0.00  0.00    +0.000 NA
BRANCH  18  19
ATOM     19  C   UNL     1       1.698   4.260  19.723  0.00  0.00    +0.000 C 
ATOM     20  C   UNL     1       2.217   5.589  19.235  0.00  0.00    +0.000 C 
ATOM     21  C   UNL     1       1.457   4.696  18.303  0.00  0.00    +0.000 C 
ENDBRANCH  18  19
BRANCH  18  23
ATOM     22  C   UNL     1       1.292   2.485  22.004  0.00  0.00    +0.000 C 
ATOM     23  C   UNL     1       2.664   2.798  21.420  0.00  0.00    +0.000 C 
ENDBRANCH  18  23
ENDBRANCH  17  18
ENDBRANCH  16  17
ENDBRANCH   1  16
TORSDOF 10
ENDMDL
MODEL 6
REMARK VINA RESULT:      -5.7      3.686      5.530
REMARK  Name = 
REMARK  12 active torsions:
REMARK  status: ('A' for Active; 'I' for Inactive)
REMARK    1  A    between atoms: C_1  and  C_2
REMARK    2  A    between atoms: C_2  and  N_3
REMARK    3  A    between atoms: N_3  and  C_4
REMARK    4  A    between atoms: N_3  and  C_20
REMARK    5  A    between atoms: C_4  and  C_5
REMARK    6  A    between atoms: C_5  and  N_6
REMARK    7  A    between atoms: C_7  and  C_9
REMARK    8  A    between atoms: C_14  and  O_15
REMARK    9  A    between atoms: O_15  and  C_16
REMARK   10  A    between atoms: C_16  and  C_17
REMARK   11  A    between atoms: C_17  and  O_18
REMARK   12  A    between atoms: O_18  and  C_19
REMARK                            x       y       z     vdW  Elec       q    Type
REMARK                         _______ _______ _______ _____ _____    ______ ____
ROOT
ATOM      1  N   UNL     1       2.390   7.498  17.840  0.00  0.00    +0.000 N 
ATOM      2  C   UNL     1       2.432   6.507  18.796  0.00  0.00    +0.000 C 
ATOM      3  O   UNL     1       2.384   6.758  19.999  0.00  0.00    +0.000 OA
ATOM      4  H   UNL     1       2.372   7.246  16.858  0.00  0.00    +0.000 HD
ENDROOT
BRANCH   2   5
ATOM      5  C   UNL     1       2.608   5.099  18.367  0.00  0.00    +0.000 A 
ATOM      6  C   UNL     1       1.601   4.200  18.761  0.00  0.00    +0.000 A 
ATOM      7  C   UNL     1       1.657   2.863  18.380  0.00  0.00    +0.000 A 
ATOM      8  C   UNL     1       2.728   2.458  17.613  0.00  0.00    +0.000 A 
ATOM      9  N   UNL     1       3.715   3.287  17.216  0.00  0.00    +0.000 NA
ATOM     10  C   UNL     1       3.646   4.595  17.587  0.00  0.00    +0.000 A 
BRANCH  10  11
ATOM     11  O   UNL     1       4.682   5.422  17.176  0.00  0.00    +0.000 OA
BRANCH  11  12
ATOM     12  C   UNL     1       5.899   5.140  17.892  0.00  0.00    +0.000 C 
BRANCH  12  13
ATOM     13  C   UNL     1       7.036   4.811  16.931  0.00  0.00    +0.000 C 
BRANCH  13  14
ATOM     14  O   UNL     1       6.848   5.576  15.735  0.00  0.00    +0.000 OA
ATOM     15  C   UNL     1       6.906   4.778  14.563  0.00  0.00    +0.000 C 
ENDBRANCH  13  14
ENDBRANCH  12  13
ENDBRANCH  11  12
ENDBRANCH  10  11
ENDBRANCH   2   5
BRANCH   1  16
ATOM     16  C   UNL     1       2.342   8.903  18.230  0.00  0.00    +0.000 C 
BRANCH  16  17
ATOM     17  C   UNL     1       0.988   9.566  17.903  0.00  0.00    +0.000 C 
BRANCH  17  18
ATOM     18  N   UNL     1       0.333  10.317  18.994  0.00  0.00    +0.000 NA
BRANCH  18  19
ATOM     19  C   UNL     1      -1.142  10.222  18.935  0.00  0.00    +0.000 C 
ATOM     20  C   UNL     1      -1.947  11.385  18.415  0.00  0.00    +0.000 C 
ATOM     21  C   UNL     1      -1.825  10.135  17.597  0.00  0.00    +0.000 C 
ENDBRANCH  18  19
BRANCH  18  23
ATOM     22  C   UNL     1      -0.054   9.108  21.164  0.00  0.00    +0.000 C 
ATOM     23  C   UNL     1       0.841  10.028  20.342  0.00  0.00    +0.000 C 
ENDBRANCH  18  23
ENDBRANCH  17  18
ENDBRANCH  16  17
ENDBRANCH   1  16
TORSDOF 10
ENDMDL
MODEL 7
REMARK VINA RESULT:      -5.7      3.564      5.435
REMARK  Name = 
REMARK  12 active torsions:
REMARK  status: ('A' for Active; 'I' for Inactive)
REMARK    1  A    between atoms: C_1  and  C_2
REMARK    2  A    between atoms: C_2  and  N_3
REMARK    3  A    between atoms: N_3  and  C_4
REMARK    4  A    between atoms: N_3  and  C_20
REMARK    5  A    between atoms: C_4  and  C_5
REMARK    6  A    between atoms: C_5  and  N_6
REMARK    7  A    between atoms: C_7  and  C_9
REMARK    8  A    between atoms: C_14  and  O_15
REMARK    9  A    between atoms: O_15  and  C_16
REMARK   10  A    between atoms: C_16  and  C_17
REMARK   11  A    between atoms: C_17  and  O_18
REMARK   12  A    between atoms: O_18  and  C_19
REMARK                            x       y       z     vdW  Elec       q    Type
REMARK                         _______ _______ _______ _____ _____    ______ ____
ROOT
ATOM      1  N   UNL     1       2.772   7.421  18.481  0.00  0.00    +0.000 N 
ATOM      2  C   UNL     1       3.601   6.549  17.810  0.00  0.00    +0.000 C 
ATOM      3  O   UNL     1       4.169   6.862  16.764  0.00  0.00    +0.000 OA
ATOM      4  H   UNL     1       2.371   7.146  19.370  0.00  0.00    +0.000 HD
ENDROOT
BRANCH   2   5
ATOM      5  C   UNL     1       3.764   5.168  18.324  0.00  0.00    +0.000 A 
ATOM      6  C   UNL     1       2.722   4.271  18.034  0.00  0.00    +0.000 A 
ATOM      7  C   UNL     1       2.796   2.943  18.443  0.00  0.00    +0.000 A 
ATOM      8  C   UNL     1       3.916   2.548  19.142  0.00  0.00    +0.000 A 
ATOM      9  N   UNL     1       4.936   3.378  19.443  0.00  0.00    +0.000 NA
ATOM     10  C   UNL     1       4.858   4.672  19.029  0.00  0.00    +0.000 A 
BRANCH  10  11
ATOM     11  O   UNL     1       5.915   5.506  19.366  0.00  0.00    +0.000 OA
BRANCH  11  12
ATOM     12  C   UNL     1       7.051   5.293  18.507  0.00  0.00    +0.000 C 
BRANCH  12  13
ATOM     13  C   UNL     1       7.407   6.565  17.746  0.00  0.00    +0.000 C 
BRANCH  13  14
ATOM     14  O   UNL     1       7.500   6.244  16.353  0.00  0.00    +0.000 OA
ATOM     15  C   UNL     1       7.073   4.921  16.069  0.00  0.00    +0.000 C 
ENDBRANCH  13  14
ENDBRANCH  12  13
ENDBRANCH  11  12
ENDBRANCH  10  11
ENDBRANCH   2   5
BRANCH   1  16
ATOM     16  C   UNL     1       2.493   8.746  17.937  0.00  0.00    +0.000 C 
BRANCH  16  17
ATOM     17  C   UNL     1       1.006   9.138  18.056  0.00  0.00    +0.000 C 
BRANCH  17  18
ATOM     18  N   UNL     1       0.604   9.864  19.279  0.00  0.00    +0.000 NA
BRANCH  18  19
ATOM     19  C   UNL     1      -0.822  10.254  19.256  0.00  0.00    +0.000 C 
ATOM     20  C   UNL     1      -1.211  11.643  18.816  0.00  0.00    +0.000 C 
ATOM     21  C   UNL     1      -1.510  10.469  17.935  0.00  0.00    +0.000 C 
ENDBRANCH  18  19
BRANCH  18  23
ATOM     22  C   UNL     1      -0.207   8.980  21.488  0.00  0.00    +0.000 C 
ATOM     23  C   UNL     1       0.966   9.205  20.542  0.00  0.00    +0.000 C 
ENDBRANCH  18  23
ENDBRANCH  17  18
ENDBRANCH  16  17
ENDBRANCH   1  16
TORSDOF 10
ENDMDL
MODEL 8
REMARK VINA RESULT:      -5.7      2.317      4.111
REMARK  Name = 
REMARK  12 active torsions:
REMARK  status: ('A' for Active; 'I' for Inactive)
REMARK    1  A    between atoms: C_1  and  C_2
REMARK    2  A    between atoms: C_2  and  N_3
REMARK    3  A    between atoms: N_3  and  C_4
REMARK    4  A    between atoms: N_3  and  C_20
REMARK    5  A    between atoms: C_4  and  C_5
REMARK    6  A    between atoms: C_5  and  N_6
REMARK    7  A    between atoms: C_7  and  C_9
REMARK    8  A    between atoms: C_14  and  O_15
REMARK    9  A    between atoms: O_15  and  C_16
REMARK   10  A    between atoms: C_16  and  C_17
REMARK   11  A    between atoms: C_17  and  O_18
REMARK   12  A    between atoms: O_18  and  C_19
REMARK                            x       y       z     vdW  Elec       q    Type
REMARK                         _______ _______ _______ _____ _____    ______ ____
ROOT
ATOM      1  N   UNL     1       4.733   2.891  18.687  0.00  0.00    +0.000 N 
ATOM      2  C   UNL     1       5.488   4.025  18.482  0.00  0.00    +0.000 C 
ATOM      3  O   UNL     1       6.032   4.625  19.408  0.00  0.00    +0.000 OA
ATOM      4  H   UNL     1       4.352   2.392  17.891  0.00  0.00    +0.000 HD
ENDROOT
BRANCH   2   5
ATOM      5  C   UNL     1       5.596   4.580  17.111  0.00  0.00    +0.000 A 
ATOM      6  C   UNL     1       6.136   3.725  16.135  0.00  0.00    +0.000 A 
ATOM      7  C   UNL     1       6.247   4.141  14.813  0.00  0.00    +0.000 A 
ATOM      8  C   UNL     1       5.817   5.412  14.500  0.00  0.00    +0.000 A 
ATOM      9  N   UNL     1       5.295   6.264  15.407  0.00  0.00    +0.000 NA
ATOM     10  C   UNL     1       5.182   5.844  16.697  0.00  0.00    +0.000 A 
BRANCH  10  11
ATOM     11  O   UNL     1       4.655   6.747  17.609  0.00  0.00    +0.000 OA
BRANCH  11  12
ATOM     12  C   UNL     1       3.301   7.104  17.279  0.00  0.00    +0.000 C 
BRANCH  12  13
ATOM     13  C   UNL     1       2.786   8.207  18.197  0.00  0.00    +0.000 C 
BRANCH  13  14
ATOM     14  O   UNL     1       2.039   9.138  17.406  0.00  0.00    +0.000 OA
ATOM     15  C   UNL     1       1.250  10.014  18.197  0.00  0.00    +0.000 C 
ENDBRANCH  13  14
ENDBRANCH  12  13
ENDBRANCH  11  12
ENDBRANCH  10  11
ENDBRANCH   2   5
BRANCH   1  16
ATOM     16  C   UNL     1       4.505   2.386  20.037  0.00  0.00    +0.000 C 
BRANCH  16  17
ATOM     17  C   UNL     1       3.086   2.696  20.557  0.00  0.00    +0.000 C 
BRANCH  17  18
ATOM     18  N   UNL     1       2.481   3.973  20.125  0.00  0.00    +0.000 NA
BRANCH  18  19
ATOM     19  C   UNL     1       1.274   3.771  19.296  0.00  0.00    +0.000 C 
ATOM     20  C   UNL     1       1.376   3.844  17.793  0.00  0.00    +0.000 C 
ATOM     21  C   UNL     1       1.148   2.523  18.464  0.00  0.00    +0.000 C 
ENDBRANCH  18  19
BRANCH  18  23
ATOM     22  C   UNL     1       1.499   6.198  20.758  0.00  0.00    +0.000 C 
ATOM     23  C   UNL     1       2.243   4.945  21.201  0.00  0.00    +0.000 C 
ENDBRANCH  18  23
ENDBRANCH  17  18
ENDBRANCH  16  17
ENDBRANCH   1  16
TORSDOF 10
ENDMDL
MODEL 9
REMARK VINA RESULT:      -5.7      1.266      1.754
REMARK  Name = 
REMARK  12 active torsions:
REMARK  status: ('A' for Active; 'I' for Inactive)
REMARK    1  A    between atoms: C_1  and  C_2
REMARK    2  A    between atoms: C_2  and  N_3
REMARK    3  A    between atoms: N_3  and  C_4
REMARK    4  A    between atoms: N_3  and  C_20
REMARK    5  A    between atoms: C_4  and  C_5
REMARK    6  A    between atoms: C_5  and  N_6
REMARK    7  A    between atoms: C_7  and  C_9
REMARK    8  A    between atoms: C_14  and  O_15
REMARK    9  A    between atoms: O_15  and  C_16
REMARK   10  A    between atoms: C_16  and  C_17
REMARK   11  A    between atoms: C_17  and  O_18
REMARK   12  A    between atoms: O_18  and  C_19
REMARK                            x       y       z     vdW  Elec       q    Type
REMARK                         _______ _______ _______ _____ _____    ______ ____
ROOT
ATOM      1  N   UNL     1       5.181   3.331  19.535  0.00  0.00    +0.000 N 
ATOM      2  C   UNL     1       5.140   3.833  18.253  0.00  0.00    +0.000 C 
ATOM      3  O   UNL     1       4.409   3.354  17.386  0.00  0.00    +0.000 OA
ATOM      4  H   UNL     1       5.751   3.792  20.235  0.00  0.00    +0.000 HD
ENDROOT
BRANCH   2   5
ATOM      5  C   UNL     1       6.051   4.943  17.884  0.00  0.00    +0.000 A 
ATOM      6  C   UNL     1       6.823   5.485  18.926  0.00  0.00    +0.000 A 
ATOM      7  C   UNL     1       7.733   6.506  18.675  0.00  0.00    +0.000 A 
ATOM      8  C   UNL     1       7.844   6.965  17.381  0.00  0.00    +0.000 A 
ATOM      9  N   UNL     1       7.120   6.475  16.353  0.00  0.00    +0.000 NA
ATOM     10  C   UNL     1       6.239   5.469  16.608  0.00  0.00    +0.000 A 
BRANCH  10  11
ATOM     11  O   UNL     1       5.498   4.994  15.535  0.00  0.00    +0.000 OA
BRANCH  11  12
ATOM     12  C   UNL     1       6.316   4.246  14.616  0.00  0.00    +0.000 C 
BRANCH  12  13
ATOM     13  C   UNL     1       5.563   3.958  13.323  0.00  0.00    +0.000 C 
BRANCH  13  14
ATOM     14  O   UNL     1       6.454   3.288  12.424  0.00  0.00    +0.000 OA
ATOM     15  C   UNL     1       5.800   2.296  11.646  0.00  0.00    +0.000 C 
ENDBRANCH  13  14
ENDBRANCH  12  13
ENDBRANCH  11  12
ENDBRANCH  10  11
ENDBRANCH   2   5
BRANCH   1  16
ATOM     16  C   UNL     1       4.388   2.162  19.899  0.00  0.00    +0.000 C 
BRANCH  16  17
ATOM     17  C   UNL     1       3.052   2.534  20.574  0.00  0.00    +0.000 C 
BRANCH  17  18
ATOM     18  N   UNL     1       2.411   3.791  20.136  0.00  0.00    +0.000 NA
BRANCH  18  19
ATOM     19  C   UNL     1       1.136   3.553  19.424  0.00  0.00    +0.000 C 
ATOM     20  C   UNL     1       1.092   3.642  17.919  0.00  0.00    +0.000 C 
ATOM     21  C   UNL     1       0.973   2.309  18.593  0.00  0.00    +0.000 C 
ENDBRANCH  18  19
BRANCH  18  23
ATOM     22  C   UNL     1       1.708   6.141  20.685  0.00  0.00    +0.000 C 
ATOM     23  C   UNL     1       2.265   4.813  21.182  0.00  0.00    +0.000 C 
ENDBRANCH  18  23
ENDBRANCH  17  18
ENDBRANCH  16  17
ENDBRANCH   1  16
TORSDOF 10
ENDMDL
