MODEL 1
REMARK VINA RESULT:      -7.0      0.000      0.000
REMARK  Name = 
REMARK  5 active torsions:
REMARK  status: ('A' for Active; 'I' for Inactive)
REMARK    1  A    between atoms: C_1  and  C_2
REMARK    2  A    between atoms: C_2  and  C_3
REMARK    3  A    between atoms: C_3  and  C_4
REMARK    4  A    between atoms: C_4  and  N_5
REMARK    5  A    between atoms: C_12  and  N_13
REMARK                            x       y       z     vdW  Elec       q    Type
REMARK                         _______ _______ _______ _____ _____    ______ ____
ROOT
ATOM      1  N   UNL     1       3.751   4.992  18.528  0.00  0.00    +0.000 N 
ATOM      2  C   UNL     1       4.208   5.671  17.400  0.00  0.00    +0.000 A 
ATOM      3  S   UNL     1       5.184   5.067  16.177  0.00  0.00    +0.000 S 
ATOM      4  N   UNL     1       3.810   6.977  17.261  0.00  0.00    +0.000 N 
ATOM      5  C   UNL     1       2.931   7.612  18.135  0.00  0.00    +0.000 A 
ATOM      6  C   UNL     1       2.409   8.867  17.836  0.00  0.00    +0.000 A 
ATOM      7  C   UNL     1       1.465   9.442  18.699  0.00  0.00    +0.000 A 
ATOM      8  C   UNL     1       1.060   8.811  19.884  0.00  0.00    +0.000 A 
ATOM      9  C   UNL     1       1.635   7.568  20.172  0.00  0.00    +0.000 A 
ATOM     10  C   UNL     1       2.551   6.975  19.299  0.00  0.00    +0.000 A 
ATOM     11  C   UNL     1       3.077   5.634  19.576  0.00  0.00    +0.000 A 
ATOM     12  O   UNL     1       2.890   5.142  20.687  0.00  0.00    +0.000 OA
ATOM     13  H   UNL     1       4.118   7.456  16.423  0.00  0.00    +0.000 HD
ENDROOT
BRANCH   8  14
ATOM     14  N   UNL     1       0.115   9.343  20.731  0.00  0.00    +0.000 N 
ATOM     15  C   UNL     1      -0.390  10.717  20.629  0.00  0.00    +0.000 C 
ATOM     16  C   UNL     1      -0.027  11.506  21.891  0.00  0.00    +0.000 C 
ATOM     17  O   UNL     1      -0.483  10.840  23.081  0.00  0.00    +0.000 OA
ATOM     18  C   UNL     1       0.104   9.531  23.180  0.00  0.00    +0.000 C 
ATOM     19  C   UNL     1      -0.261   8.649  21.974  0.00  0.00    +0.000 C 
ENDBRANCH   8  14
BRANCH   1  20
ATOM     20  C   UNL     1       3.973   3.550  18.743  0.00  0.00    +0.000 C 
BRANCH  20  21
ATOM     21  C   UNL     1       2.907   2.706  18.024  0.00  0.00    +0.000 C 
BRANCH  21  23
ATOM     22  C   UNL     1       0.694   2.770  19.206  0.00  0.00    +0.000 C 
ATOM     23  C   UNL     1       1.985   1.991  19.008  0.00  0.00    +0.000 C 
ENDBRANCH  21  23
ENDBRANCH  20  21
ENDBRANCH   1  20
TORSDOF 4
ENDMDL
MODEL 2
REMARK VINA RESULT:      -6.6      2.738      7.135
REMARK  Name = 
REMARK  5 active torsions:
REMARK  status: ('A' for Active; 'I' for Inactive)
REMARK    1  A    between atoms: C_1  and  C_2
REMARK    2  A    between atoms: C_2  and  C_3
REMARK    3  A    between atoms: C_3  and  C_4
REMARK    4  A    between atoms: C_4  and  N_5
REMARK    5  A    between atoms: C_12  and  N_13
REMARK                            x       y       z     vdW  Elec       q    Type
REMARK                         _______ _______ _______ _____ _____    ______ ____
ROOT
ATOM      1  N   UNL     1       0.154  11.291  20.537  0.00  0.00    +0.000 N 
ATOM      2  C   UNL     1       0.198  11.685  19.201  0.00  0.00    +0.000 A 
ATOM      3  S   UNL     1      -0.275  13.161  18.561  0.00  0.00    +0.000 S 
ATOM      4  N   UNL     1       0.694  10.773  18.304  0.00  0.00    +0.000 N 
ATOM      5  C   UNL     1       1.212   9.533  18.670  0.00  0.00    +0.000 A 
ATOM      6  C   UNL     1       1.881   8.737  17.745  0.00  0.00    +0.000 A 
ATOM      7  C   UNL     1       2.459   7.531  18.168  0.00  0.00    +0.000 A 
ATOM      8  C   UNL     1       2.349   7.077  19.490  0.00  0.00    +0.000 A 
ATOM      9  C   UNL     1       1.636   7.885  20.383  0.00  0.00    +0.000 A 
ATOM     10  C   UNL     1       1.086   9.103  19.976  0.00  0.00    +0.000 A 
ATOM     11  C   UNL     1       0.418   9.976  20.946  0.00  0.00    +0.000 A 
ATOM     12  O   UNL     1       0.141   9.526  22.057  0.00  0.00    +0.000 OA
ATOM     13  H   UNL     1       0.756  11.077  17.338  0.00  0.00    +0.000 HD
ENDROOT
BRANCH   8  14
ATOM     14  N   UNL     1       2.932   5.912  19.934  0.00  0.00    +0.000 N 
ATOM     15  C   UNL     1       4.206   5.393  19.424  0.00  0.00    +0.000 C 
ATOM     16  C   UNL     1       3.988   4.041  18.740  0.00  0.00    +0.000 C 
ATOM     17  O   UNL     1       3.325   3.108  19.611  0.00  0.00    +0.000 OA
ATOM     18  C   UNL     1       2.044   3.623  20.016  0.00  0.00    +0.000 C 
ATOM     19  C   UNL     1       2.178   4.959  20.765  0.00  0.00    +0.000 C 
ENDBRANCH   8  14
BRANCH   1  20
ATOM     20  C   UNL     1      -0.216  12.205  21.633  0.00  0.00    +0.000 C 
BRANCH  20  21
ATOM     21  C   UNL     1      -1.743  12.319  21.775  0.00  0.00    +0.000 C 
BRANCH  21  23
ATOM     22  C   UNL     1      -3.517  12.525  23.538  0.00  0.00    +0.000 C 
ATOM     23  C   UNL     1      -2.229  11.824  23.135  0.00  0.00    +0.000 C 
ENDBRANCH  21  23
ENDBRANCH  20  21
ENDBRANCH   1  20
TORSDOF 4
ENDMDL
MODEL 3
REMARK VINA RESULT:      -6.4      3.253      7.381
REMARK  Name = 
REMARK  5 active torsions:
REMARK  status: ('A' for Active; 'I' for Inactive)
REMARK    1  A    between atoms: C_1  and  C_2
REMARK    2  A    between atoms: C_2  and  C_3
REMARK    3  A    between atoms: C_3  and  C_4
REMARK    4  A    between atoms: C_4  and  N_5
REMARK    5  A    between atoms: C_12  and  N_13
REMARK                            x       y       z     vdW  Elec       q    Type
REMARK                         _______ _______ _______ _____ _____    ______ ____
ROOT
ATOM      1  N   UNL     1       0.803   9.561  19.442  0.00  0.00    +0.000 N 
ATOM      2  C   UNL     1       0.714   8.939  20.687  0.00  0.00    +0.000 A 
ATOM      3  S   UNL     1      -0.238   9.402  21.987  0.00  0.00    +0.000 S 
ATOM      4  N   UNL     1       1.478   7.815  20.871  0.00  0.00    +0.000 N 
ATOM      5  C   UNL     1       2.260   7.240  19.872  0.00  0.00    +0.000 A 
ATOM      6  C   UNL     1       2.853   5.995  20.056  0.00  0.00    +0.000 A 
ATOM      7  C   UNL     1       3.567   5.411  19.000  0.00  0.00    +0.000 A 
ATOM      8  C   UNL     1       3.740   6.062  17.770  0.00  0.00    +0.000 A 
ATOM      9  C   UNL     1       3.162   7.330  17.634  0.00  0.00    +0.000 A 
ATOM     10  C   UNL     1       2.422   7.902  18.671  0.00  0.00    +0.000 A 
ATOM     11  C   UNL     1       1.753   9.193  18.479  0.00  0.00    +0.000 A 
ATOM     12  O   UNL     1       2.039   9.868  17.492  0.00  0.00    +0.000 OA
ATOM     13  H   UNL     1       1.385   7.347  21.766  0.00  0.00    +0.000 HD
ENDROOT
BRANCH   8  14
ATOM     14  N   UNL     1       4.412   5.496  16.710  0.00  0.00    +0.000 N 
ATOM     15  C   UNL     1       4.473   4.052  16.462  0.00  0.00    +0.000 C 
ATOM     16  C   UNL     1       5.921   3.561  16.560  0.00  0.00    +0.000 C 
ATOM     17  O   UNL     1       6.791   4.306  15.690  0.00  0.00    +0.000 OA
ATOM     18  C   UNL     1       6.762   5.704  16.026  0.00  0.00    +0.000 C 
ATOM     19  C   UNL     1       5.347   6.292  15.898  0.00  0.00    +0.000 C 
ENDBRANCH   8  14
BRANCH   1  20
ATOM     20  C   UNL     1      -0.059  10.688  19.044  0.00  0.00    +0.000 C 
BRANCH  20  21
ATOM     21  C   UNL     1      -1.177  10.230  18.092  0.00  0.00    +0.000 C 
BRANCH  21  23
ATOM     22  C   UNL     1      -3.648  10.337  17.669  0.00  0.00    +0.000 C 
ATOM     23  C   UNL     1      -2.447  11.059  18.259  0.00  0.00    +0.000 C 
ENDBRANCH  21  23
ENDBRANCH  20  21
ENDBRANCH   1  20
TORSDOF 4
ENDMDL
MODEL 4
REMARK VINA RESULT:      -6.4      2.519      3.882
REMARK  Name = 
REMARK  5 active torsions:
REMARK  status: ('A' for Active; 'I' for Inactive)
REMARK    1  A    between atoms: C_1  and  C_2
REMARK    2  A    between atoms: C_2  and  C_3
REMARK    3  A    between atoms: C_3  and  C_4
REMARK    4  A    between atoms: C_4  and  N_5
REMARK    5  A    between atoms: C_12  and  N_13
REMARK                            x       y       z     vdW  Elec       q    Type
REMARK                         _______ _______ _______ _____ _____    ______ ____
ROOT
ATOM      1  N   UNL     1       3.869   6.431  18.042  0.00  0.00    +0.000 N 
ATOM      2  C   UNL     1       3.681   5.582  19.132  0.00  0.00    +0.000 A 
ATOM      3  S   UNL     1       4.465   4.131  19.436  0.00  0.00    +0.000 S 
ATOM      4  N   UNL     1       2.763   5.976  20.072  0.00  0.00    +0.000 N 
ATOM      5  C   UNL     1       2.084   7.192  20.025  0.00  0.00    +0.000 A 
ATOM      6  C   UNL     1       1.319   7.624  21.103  0.00  0.00    +0.000 A 
ATOM      7  C   UNL     1       0.714   8.889  21.054  0.00  0.00    +0.000 A 
ATOM      8  C   UNL     1       0.820   9.719  19.929  0.00  0.00    +0.000 A 
ATOM      9  C   UNL     1       1.566   9.235  18.848  0.00  0.00    +0.000 A 
ATOM     10  C   UNL     1       2.198   7.991  18.905  0.00  0.00    +0.000 A 
ATOM     11  C   UNL     1       3.045   7.539  17.797  0.00  0.00    +0.000 A 
ATOM     12  O   UNL     1       3.005   8.151  16.732  0.00  0.00    +0.000 OA
ATOM     13  H   UNL     1       2.654   5.373  20.879  0.00  0.00    +0.000 HD
ENDROOT
BRANCH   8  14
ATOM     14  N   UNL     1       0.260  10.976  19.869  0.00  0.00    +0.000 N 
ATOM     15  C   UNL     1      -1.145  11.225  19.531  0.00  0.00    +0.000 C 
ATOM     16  C   UNL     1      -1.240  12.033  18.233  0.00  0.00    +0.000 C 
ATOM     17  O   UNL     1      -0.469  13.245  18.308  0.00  0.00    +0.000 OA
ATOM     18  C   UNL     1       0.916  12.945  18.556  0.00  0.00    +0.000 C 
ATOM     19  C   UNL     1       1.106  12.180  19.876  0.00  0.00    +0.000 C 
ENDBRANCH   8  14
BRANCH   1  20
ATOM     20  C   UNL     1       4.917   6.218  17.029  0.00  0.00    +0.000 C 
BRANCH  20  21
ATOM     21  C   UNL     1       6.190   7.015  17.362  0.00  0.00    +0.000 C 
BRANCH  21  23
ATOM     22  C   UNL     1       7.294   4.780  17.072  0.00  0.00    +0.000 C 
ATOM     23  C   UNL     1       7.331   6.107  17.813  0.00  0.00    +0.000 C 
ENDBRANCH  21  23
ENDBRANCH  20  21
ENDBRANCH   1  20
TORSDOF 4
ENDMDL
MODEL 5
REMARK VINA RESULT:      -6.4      3.073      7.081
REMARK  Name = 
REMARK  5 active torsions:
REMARK  status: ('A' for Active; 'I' for Inactive)
REMARK    1  A    between atoms: C_1  and  C_2
REMARK    2  A    between atoms: C_2  and  C_3
REMARK    3  A    between atoms: C_3  and  C_4
REMARK    4  A    between atoms: C_4  and  N_5
REMARK    5  A    between atoms: C_12  and  N_13
REMARK                            x       y       z     vdW  Elec       q    Type
REMARK                         _______ _______ _______ _____ _____    ______ ____
ROOT
ATOM      1  N   UNL     1       0.739  10.131  19.269  0.00  0.00    +0.000 N 
ATOM      2  C   UNL     1       0.450   9.984  20.625  0.00  0.00    +0.000 A 
ATOM      3  S   UNL     1      -0.364  11.067  21.614  0.00  0.00    +0.000 S 
ATOM      4  N   UNL     1       0.863   8.820  21.222  0.00  0.00    +0.000 N 
ATOM      5  C   UNL     1       1.474   7.775  20.534  0.00  0.00    +0.000 A 
ATOM      6  C   UNL     1       1.690   6.545  21.148  0.00  0.00    +0.000 A 
ATOM      7  C   UNL     1       2.235   5.490  20.402  0.00  0.00    +0.000 A 
ATOM      8  C   UNL     1       2.612   5.647  19.061  0.00  0.00    +0.000 A 
ATOM      9  C   UNL     1       2.417   6.908  18.487  0.00  0.00    +0.000 A 
ATOM     10  C   UNL     1       1.844   7.953  19.216  0.00  0.00    +0.000 A 
ATOM     11  C   UNL     1       1.569   9.241  18.573  0.00  0.00    +0.000 A 
ATOM     12  O   UNL     1       2.056   9.468  17.467  0.00  0.00    +0.000 OA
ATOM     13  H   UNL     1       0.621   8.703  22.200  0.00  0.00    +0.000 HD
ENDROOT
BRANCH   8  14
ATOM     14  N   UNL     1       3.122   4.618  18.300  0.00  0.00    +0.000 N 
ATOM     15  C   UNL     1       2.319   3.816  17.371  0.00  0.00    +0.000 C 
ATOM     16  C   UNL     1       2.292   2.354  17.825  0.00  0.00    +0.000 C 
ATOM     17  O   UNL     1       3.620   1.829  17.997  0.00  0.00    +0.000 OA
ATOM     18  C   UNL     1       4.340   2.596  18.978  0.00  0.00    +0.000 C 
ATOM     19  C   UNL     1       4.462   4.073  18.570  0.00  0.00    +0.000 C 
ENDBRANCH   8  14
BRANCH   1  20
ATOM     20  C   UNL     1       0.237  11.255  18.458  0.00  0.00    +0.000 C 
BRANCH  20  21
ATOM     21  C   UNL     1      -1.280  11.146  18.227  0.00  0.00    +0.000 C 
BRANCH  21  23
ATOM     22  C   UNL     1      -2.512  10.450  16.155  0.00  0.00    +0.000 C 
ATOM     23  C   UNL     1      -1.636   9.982  17.306  0.00  0.00    +0.000 C 
ENDBRANCH  21  23
ENDBRANCH  20  21
ENDBRANCH   1  20
TORSDOF 4
ENDMDL
MODEL 6
REMARK VINA RESULT:      -6.4      2.029      3.607
REMARK  Name = 
REMARK  5 active torsions:
REMARK  status: ('A' for Active; 'I' for Inactive)
REMARK    1  A    between atoms: C_1  and  C_2
REMARK    2  A    between atoms: C_2  and  C_3
REMARK    3  A    between atoms: C_3  and  C_4
REMARK    4  A    between atoms: C_4  and  N_5
REMARK    5  A    between atoms: C_12  and  N_13
REMARK                            x       y       z     vdW  Elec       q    Type
REMARK                         _______ _______ _______ _____ _____    ______ ____
ROOT
ATOM      1  N   UNL     1       4.145   4.347  17.606  0.00  0.00    +0.000 N 
ATOM      2  C   UNL     1       3.574   3.261  18.268  0.00  0.00    +0.000 A 
ATOM      3  S   UNL     1       3.938   1.637  18.058  0.00  0.00    +0.000 S 
ATOM      4  N   UNL     1       2.616   3.545  19.208  0.00  0.00    +0.000 N 
ATOM      5  C   UNL     1       2.253   4.839  19.574  0.00  0.00    +0.000 A 
ATOM      6  C   UNL     1       1.425   5.066  20.669  0.00  0.00    +0.000 A 
ATOM      7  C   UNL     1       1.144   6.384  21.057  0.00  0.00    +0.000 A 
ATOM      8  C   UNL     1       1.639   7.488  20.348  0.00  0.00    +0.000 A 
ATOM      9  C   UNL     1       2.437   7.222  19.229  0.00  0.00    +0.000 A 
ATOM     10  C   UNL     1       2.747   5.911  18.858  0.00  0.00    +0.000 A 
ATOM     11  C   UNL     1       3.654   5.654  17.735  0.00  0.00    +0.000 A 
ATOM     12  O   UNL     1       3.949   6.583  16.986  0.00  0.00    +0.000 OA
ATOM     13  H   UNL     1       2.229   2.754  19.711  0.00  0.00    +0.000 HD
ENDROOT
BRANCH   8  14
ATOM     14  N   UNL     1       1.401   8.790  20.727  0.00  0.00    +0.000 N 
ATOM     15  C   UNL     1       1.310   9.229  22.123  0.00  0.00    +0.000 C 
ATOM     16  C   UNL     1      -0.094   9.766  22.416  0.00  0.00    +0.000 C 
ATOM     17  O   UNL     1      -0.467  10.802  21.490  0.00  0.00    +0.000 OA
ATOM     18  C   UNL     1      -0.445  10.301  20.142  0.00  0.00    +0.000 C 
ATOM     19  C   UNL     1       0.950   9.791  19.746  0.00  0.00    +0.000 C 
ENDBRANCH   8  14
BRANCH   1  20
ATOM     20  C   UNL     1       5.282   4.214  16.678  0.00  0.00    +0.000 C 
BRANCH  20  21
ATOM     21  C   UNL     1       6.611   4.575  17.364  0.00  0.00    +0.000 C 
BRANCH  21  23
ATOM     22  C   UNL     1       7.430   6.917  17.739  0.00  0.00    +0.000 C 
ATOM     23  C   UNL     1       7.271   5.795  16.726  0.00  0.00    +0.000 C 
ENDBRANCH  21  23
ENDBRANCH  20  21
ENDBRANCH   1  20
TORSDOF 4
ENDMDL
MODEL 7
REMARK VINA RESULT:      -6.4      1.309      1.664
REMARK  Name = 
REMARK  5 active torsions:
REMARK  status: ('A' for Active; 'I' for Inactive)
REMARK    1  A    between atoms: C_1  and  C_2
REMARK    2  A    between atoms: C_2  and  C_3
REMARK    3  A    between atoms: C_3  and  C_4
REMARK    4  A    between atoms: C_4  and  N_5
REMARK    5  A    between atoms: C_12  and  N_13
REMARK                            x       y       z     vdW  Elec       q    Type
REMARK                         _______ _______ _______ _____ _____    ______ ____
ROOT
ATOM      1  N   UNL     1       3.222   5.054  19.083  0.00  0.00    +0.000 N 
ATOM      2  C   UNL     1       3.873   5.412  17.903  0.00  0.00    +0.000 A 
ATOM      3  S   UNL     1       4.830   4.433  16.934  0.00  0.00    +0.000 S 
ATOM      4  N   UNL     1       3.707   6.704  17.473  0.00  0.00    +0.000 N 
ATOM      5  C   UNL     1       2.878   7.627  18.105  0.00  0.00    +0.000 A 
ATOM      6  C   UNL     1       2.594   8.855  17.515  0.00  0.00    +0.000 A 
ATOM      7  C   UNL     1       1.692   9.727  18.142  0.00  0.00    +0.000 A 
ATOM      8  C   UNL     1       1.095   9.419  19.373  0.00  0.00    +0.000 A 
ATOM      9  C   UNL     1       1.433   8.193  19.956  0.00  0.00    +0.000 A 
ATOM     10  C   UNL     1       2.306   7.306  19.321  0.00  0.00    +0.000 A 
ATOM     11  C   UNL     1       2.581   5.990  19.906  0.00  0.00    +0.000 A 
ATOM     12  O   UNL     1       2.227   5.770  21.063  0.00  0.00    +0.000 OA
ATOM     13  H   UNL     1       4.155   6.950  16.598  0.00  0.00    +0.000 HD
ENDROOT
BRANCH   8  14
ATOM     14  N   UNL     1       0.185  10.246  19.992  0.00  0.00    +0.000 N 
ATOM     15  C   UNL     1      -1.064  10.696  19.368  0.00  0.00    +0.000 C 
ATOM     16  C   UNL     1      -1.052  12.218  19.202  0.00  0.00    +0.000 C 
ATOM     17  O   UNL     1      -0.791  12.884  20.450  0.00  0.00    +0.000 OA
ATOM     18  C   UNL     1       0.482  12.475  20.980  0.00  0.00    +0.000 C 
ATOM     19  C   UNL     1       0.535  10.960  21.231  0.00  0.00    +0.000 C 
ENDBRANCH   8  14
BRANCH   1  20
ATOM     20  C   UNL     1       3.186   3.671  19.593  0.00  0.00    +0.000 C 
BRANCH  20  21
ATOM     21  C   UNL     1       1.989   2.893  19.021  0.00  0.00    +0.000 C 
BRANCH  21  23
ATOM     22  C   UNL     1       1.464   2.611  21.458  0.00  0.00    +0.000 C 
ATOM     23  C   UNL     1       0.884   2.703  20.056  0.00  0.00    +0.000 C 
ENDBRANCH  21  23
ENDBRANCH  20  21
ENDBRANCH   1  20
TORSDOF 4
ENDMDL
MODEL 8
REMARK VINA RESULT:      -6.3      2.196      3.717
REMARK  Name = 
REMARK  5 active torsions:
REMARK  status: ('A' for Active; 'I' for Inactive)
REMARK    1  A    between atoms: C_1  and  C_2
REMARK    2  A    between atoms: C_2  and  C_3
REMARK    3  A    between atoms: C_3  and  C_4
REMARK    4  A    between atoms: C_4  and  N_5
REMARK    5  A    between atoms: C_12  and  N_13
REMARK                            x       y       z     vdW  Elec       q    Type
REMARK                         _______ _______ _______ _____ _____    ______ ____
ROOT
ATOM      1  N   UNL     1       4.372   4.920  18.326  0.00  0.00    +0.000 N 
ATOM      2  C   UNL     1       3.903   4.077  19.333  0.00  0.00    +0.000 A 
ATOM      3  S   UNL     1       4.452   2.537  19.705  0.00  0.00    +0.000 S 
ATOM      4  N   UNL     1       2.889   4.560  20.119  0.00  0.00    +0.000 N 
ATOM      5  C   UNL     1       2.372   5.849  20.008  0.00  0.00    +0.000 A 
ATOM      6  C   UNL     1       1.487   6.348  20.958  0.00  0.00    +0.000 A 
ATOM      7  C   UNL     1       1.049   7.677  20.858  0.00  0.00    +0.000 A 
ATOM      8  C   UNL     1       1.442   8.511  19.802  0.00  0.00    +0.000 A 
ATOM      9  C   UNL     1       2.302   7.963  18.844  0.00  0.00    +0.000 A 
ATOM     10  C   UNL     1       2.768   6.651  18.956  0.00  0.00    +0.000 A 
ATOM     11  C   UNL     1       3.736   6.123  17.990  0.00  0.00    +0.000 A 
ATOM     12  O   UNL     1       3.950   6.757  16.958  0.00  0.00    +0.000 OA
ATOM     13  H   UNL     1       2.574   3.958  20.872  0.00  0.00    +0.000 HD
ENDROOT
BRANCH   8  14
ATOM     14  N   UNL     1       1.048   9.827  19.699  0.00  0.00    +0.000 N 
ATOM     15  C   UNL     1       0.960  10.742  20.842  0.00  0.00    +0.000 C 
ATOM     16  C   UNL     1      -0.490  11.195  21.043  0.00  0.00    +0.000 C 
ATOM     17  O   UNL     1      -1.038  11.763  19.840  0.00  0.00    +0.000 OA
ATOM     18  C   UNL     1      -1.007  10.800  18.771  0.00  0.00    +0.000 C 
ATOM     19  C   UNL     1       0.426  10.334  18.466  0.00  0.00    +0.000 C 
ENDBRANCH   8  14
BRANCH   1  20
ATOM     20  C   UNL     1       5.548   4.602  17.495  0.00  0.00    +0.000 C 
BRANCH  20  21
ATOM     21  C   UNL     1       6.816   5.286  18.035  0.00  0.00    +0.000 C 
BRANCH  21  23
ATOM     22  C   UNL     1       7.640   7.634  17.712  0.00  0.00    +0.000 C 
ATOM     23  C   UNL     1       7.391   6.292  17.041  0.00  0.00    +0.000 C 
ENDBRANCH  21  23
ENDBRANCH  20  21
ENDBRANCH   1  20
TORSDOF 4
ENDMDL
MODEL 9
REMARK VINA RESULT:      -6.3      1.031      1.230
REMARK  Name = 
REMARK  5 active torsions:
REMARK  status: ('A' for Active; 'I' for Inactive)
REMARK    1  A    between atoms: C_1  and  C_2
REMARK    2  A    between atoms: C_2  and  C_3
REMARK    3  A    between atoms: C_3  and  C_4
REMARK    4  A    between atoms: C_4  and  N_5
REMARK    5  A    between atoms: C_12  and  N_13
REMARK                            x       y       z     vdW  Elec       q    Type
REMARK                         _______ _______ _______ _____ _____    ______ ____
ROOT
ATOM      1  N   UNL     1       3.945   4.575  18.573  0.00  0.00    +0.000 N 
ATOM      2  C   UNL     1       4.549   5.082  17.423  0.00  0.00    +0.000 A 
ATOM      3  S   UNL     1       5.559   4.264  16.362  0.00  0.00    +0.000 S 
ATOM      4  N   UNL     1       4.282   6.390  17.110  0.00  0.00    +0.000 N 
ATOM      5  C   UNL     1       3.398   7.191  17.830  0.00  0.00    +0.000 A 
ATOM      6  C   UNL     1       3.016   8.441  17.353  0.00  0.00    +0.000 A 
ATOM      7  C   UNL     1       2.063   9.186  18.063  0.00  0.00    +0.000 A 
ATOM      8  C   UNL     1       1.511   8.729  19.268  0.00  0.00    +0.000 A 
ATOM      9  C   UNL     1       1.948   7.485  19.738  0.00  0.00    +0.000 A 
ATOM     10  C   UNL     1       2.872   6.724  19.018  0.00  0.00    +0.000 A 
ATOM     11  C   UNL     1       3.251   5.386  19.482  0.00  0.00    +0.000 A 
ATOM     12  O   UNL     1       2.934   5.041  20.619  0.00  0.00    +0.000 OA
ATOM     13  H   UNL     1       4.696   6.744  16.255  0.00  0.00    +0.000 HD
ENDROOT
BRANCH   8  14
ATOM     14  N   UNL     1       0.554   9.430  19.967  0.00  0.00    +0.000 N 
ATOM     15  C   UNL     1      -0.685   9.936  19.367  0.00  0.00    +0.000 C 
ATOM     16  C   UNL     1      -0.715  11.466  19.431  0.00  0.00    +0.000 C 
ATOM     17  O   UNL     1      -0.521  11.942  20.774  0.00  0.00    +0.000 OA
ATOM     18  C   UNL     1       0.745  11.491  21.289  0.00  0.00    +0.000 C 
ATOM     19  C   UNL     1       0.836   9.957  21.312  0.00  0.00    +0.000 C 
ENDBRANCH   8  14
BRANCH   1  20
ATOM     20  C   UNL     1       4.019   3.155  18.960  0.00  0.00    +0.000 C 
BRANCH  20  21
ATOM     21  C   UNL     1       2.927   2.326  18.262  0.00  0.00    +0.000 C 
BRANCH  21  23
ATOM     22  C   UNL     1       0.598   2.826  19.051  0.00  0.00    +0.000 C 
ATOM     23  C   UNL     1       1.811   1.925  19.222  0.00  0.00    +0.000 C 
ENDBRANCH  21  23
ENDBRANCH  20  21
ENDBRANCH   1  20
TORSDOF 4
ENDMDL
