MODEL 1
REMARK VINA RESULT:      -7.7      0.000      0.000
REMARK  Name = 
REMARK  5 active torsions:
REMARK  status: ('A' for Active; 'I' for Inactive)
REMARK    1  A    between atoms: C_1  and  C_2
REMARK    2  A    between atoms: C_2  and  C_3
REMARK    3  A    between atoms: C_3  and  C_4
REMARK    4  A    between atoms: C_4  and  C_5
REMARK    5  A    between atoms: C_8  and  C_9
REMARK                            x       y       z     vdW  Elec       q    Type
REMARK                         _______ _______ _______ _____ _____    ______ ____
ROOT
ATOM      1  C   UNL     1       3.689   4.917  18.070  0.00  0.00    +0.000 C 
ATOM      2  C   UNL     1       4.303   4.141  19.220  0.00  0.00    +0.000 C 
ATOM      3  O   UNL     1       5.475   4.077  19.556  0.00  0.00    +0.000 OA
ATOM      4  C   UNL     1       3.221   3.530  19.986  0.00  0.00    +0.000 A 
ATOM      5  C   UNL     1       3.290   2.931  21.233  0.00  0.00    +0.000 A 
ATOM      6  C   UNL     1       2.093   2.501  21.810  0.00  0.00    +0.000 A 
ATOM      7  C   UNL     1       0.867   2.671  21.136  0.00  0.00    +0.000 A 
ATOM      8  C   UNL     1       0.821   3.274  19.873  0.00  0.00    +0.000 A 
ATOM      9  C   UNL     1       2.016   3.698  19.318  0.00  0.00    +0.000 A 
ATOM     10  C   UNL     1       2.249   4.425  18.065  0.00  0.00    +0.000 C 
ATOM     11  O   UNL     1       1.370   4.637  17.249  0.00  0.00    +0.000 OA
ENDROOT
BRANCH   1  15
ATOM     12  C   UNL     1       6.343   4.824  14.644  0.00  0.00    +0.000 A 
ATOM     13  C   UNL     1       5.833   6.053  15.090  0.00  0.00    +0.000 A 
ATOM     14  C   UNL     1       4.916   6.114  16.151  0.00  0.00    +0.000 A 
ATOM     15  C   UNL     1       4.483   4.944  16.783  0.00  0.00    +0.000 A 
ATOM     16  C   UNL     1       4.908   3.714  16.249  0.00  0.00    +0.000 A 
ATOM     17  C   UNL     1       5.829   3.652  15.200  0.00  0.00    +0.000 A 
BRANCH  12  18
ATOM     18  C   UNL     1       7.470   4.761  13.636  0.00  0.00    +0.000 C 
BRANCH  18  19
ATOM     19  C   UNL     1       6.933   4.567  12.211  0.00  0.00    +0.000 C 
BRANCH  19  21
ATOM     20  C   UNL     1       4.965   3.087  11.708  0.00  0.00    +0.000 C 
ATOM     21  C   UNL     1       6.467   3.136  11.949  0.00  0.00    +0.000 C 
ENDBRANCH  19  21
ENDBRANCH  18  19
ENDBRANCH  12  18
ENDBRANCH   1  15
TORSDOF 4
ENDMDL
MODEL 2
REMARK VINA RESULT:      -7.7      0.646      1.286
REMARK  Name = 
REMARK  5 active torsions:
REMARK  status: ('A' for Active; 'I' for Inactive)
REMARK    1  A    between atoms: C_1  and  C_2
REMARK    2  A    between atoms: C_2  and  C_3
REMARK    3  A    between atoms: C_3  and  C_4
REMARK    4  A    between atoms: C_4  and  C_5
REMARK    5  A    between atoms: C_8  and  C_9
REMARK                            x       y       z     vdW  Elec       q    Type
REMARK                         _______ _______ _______ _____ _____    ______ ____
ROOT
ATOM      1  C   UNL     1       3.629   4.877  17.822  0.00  0.00    +0.000 C 
ATOM      2  C   UNL     1       4.127   4.714  19.246  0.00  0.00    +0.000 C 
ATOM      3  O   UNL     1       5.152   5.146  19.749  0.00  0.00    +0.000 OA
ATOM      4  C   UNL     1       3.098   4.018  20.012  0.00  0.00    +0.000 A 
ATOM      5  C   UNL     1       3.017   3.858  21.385  0.00  0.00    +0.000 A 
ATOM      6  C   UNL     1       1.877   3.232  21.897  0.00  0.00    +0.000 A 
ATOM      7  C   UNL     1       0.857   2.780  21.036  0.00  0.00    +0.000 A 
ATOM      8  C   UNL     1       0.962   2.947  19.650  0.00  0.00    +0.000 A 
ATOM      9  C   UNL     1       2.095   3.573  19.161  0.00  0.00    +0.000 A 
ATOM     10  C   UNL     1       2.424   3.948  17.781  0.00  0.00    +0.000 C 
ATOM     11  O   UNL     1       1.750   3.611  16.824  0.00  0.00    +0.000 OA
ENDROOT
BRANCH   1  15
ATOM     12  C   UNL     1       6.267   4.702  14.387  0.00  0.00    +0.000 A 
ATOM     13  C   UNL     1       6.181   3.598  15.249  0.00  0.00    +0.000 A 
ATOM     14  C   UNL     1       5.392   3.645  16.409  0.00  0.00    +0.000 A 
ATOM     15  C   UNL     1       4.678   4.803  16.735  0.00  0.00    +0.000 A 
ATOM     16  C   UNL     1       4.867   5.940  15.928  0.00  0.00    +0.000 A 
ATOM     17  C   UNL     1       5.643   5.891  14.767  0.00  0.00    +0.000 A 
BRANCH  12  18
ATOM     18  C   UNL     1       6.955   4.596  13.043  0.00  0.00    +0.000 C 
BRANCH  18  19
ATOM     19  C   UNL     1       6.386   3.434  12.216  0.00  0.00    +0.000 C 
BRANCH  19  21
ATOM     20  C   UNL     1       4.235   3.423  10.914  0.00  0.00    +0.000 C 
ATOM     21  C   UNL     1       4.863   3.345  12.299  0.00  0.00    +0.000 C 
ENDBRANCH  19  21
ENDBRANCH  18  19
ENDBRANCH  12  18
ENDBRANCH   1  15
TORSDOF 4
ENDMDL
MODEL 3
REMARK VINA RESULT:      -7.5      0.673      1.308
REMARK  Name = 
REMARK  5 active torsions:
REMARK  status: ('A' for Active; 'I' for Inactive)
REMARK    1  A    between atoms: C_1  and  C_2
REMARK    2  A    between atoms: C_2  and  C_3
REMARK    3  A    between atoms: C_3  and  C_4
REMARK    4  A    between atoms: C_4  and  C_5
REMARK    5  A    between atoms: C_8  and  C_9
REMARK                            x       y       z     vdW  Elec       q    Type
REMARK                         _______ _______ _______ _____ _____    ______ ____
ROOT
ATOM      1  C   UNL     1       3.941   4.712  18.055  0.00  0.00    +0.000 C 
ATOM      2  C   UNL     1       4.413   3.980  19.297  0.00  0.00    +0.000 C 
ATOM      3  O   UNL     1       5.544   3.890  19.745  0.00  0.00    +0.000 OA
ATOM      4  C   UNL     1       3.239   3.455  19.989  0.00  0.00    +0.000 A 
ATOM      5  C   UNL     1       3.167   2.926  21.268  0.00  0.00    +0.000 A 
ATOM      6  C   UNL     1       1.905   2.575  21.752  0.00  0.00    +0.000 A 
ATOM      7  C   UNL     1       0.755   2.753  20.957  0.00  0.00    +0.000 A 
ATOM      8  C   UNL     1       0.851   3.284  19.665  0.00  0.00    +0.000 A 
ATOM      9  C   UNL     1       2.109   3.630  19.203  0.00  0.00    +0.000 A 
ATOM     10  C   UNL     1       2.488   4.275  17.941  0.00  0.00    +0.000 C 
ATOM     11  O   UNL     1       1.698   4.474  17.035  0.00  0.00    +0.000 OA
ENDROOT
BRANCH   1  15
ATOM     12  C   UNL     1       6.143   4.520  14.326  0.00  0.00    +0.000 A 
ATOM     13  C   UNL     1       6.173   3.426  15.203  0.00  0.00    +0.000 A 
ATOM     14  C   UNL     1       5.531   3.479  16.450  0.00  0.00    +0.000 A 
ATOM     15  C   UNL     1       4.850   4.634  16.849  0.00  0.00    +0.000 A 
ATOM     16  C   UNL     1       4.929   5.764  16.014  0.00  0.00    +0.000 A 
ATOM     17  C   UNL     1       5.558   5.708  14.767  0.00  0.00    +0.000 A 
BRANCH  12  18
ATOM     18  C   UNL     1       6.663   4.405  12.909  0.00  0.00    +0.000 C 
BRANCH  18  19
ATOM     19  C   UNL     1       5.970   3.263  12.152  0.00  0.00    +0.000 C 
BRANCH  19  21
ATOM     20  C   UNL     1       6.332   1.022  11.072  0.00  0.00    +0.000 C 
ATOM     21  C   UNL     1       6.959   2.369  11.406  0.00  0.00    +0.000 C 
ENDBRANCH  19  21
ENDBRANCH  18  19
ENDBRANCH  12  18
ENDBRANCH   1  15
TORSDOF 4
ENDMDL
MODEL 4
REMARK VINA RESULT:      -7.4      1.558      1.922
REMARK  Name = 
REMARK  5 active torsions:
REMARK  status: ('A' for Active; 'I' for Inactive)
REMARK    1  A    between atoms: C_1  and  C_2
REMARK    2  A    between atoms: C_2  and  C_3
REMARK    3  A    between atoms: C_3  and  C_4
REMARK    4  A    between atoms: C_4  and  C_5
REMARK    5  A    between atoms: C_8  and  C_9
REMARK                            x       y       z     vdW  Elec       q    Type
REMARK                         _______ _______ _______ _____ _____    ______ ____
ROOT
ATOM      1  C   UNL     1       4.813   4.128  18.122  0.00  0.00    +0.000 C 
ATOM      2  C   UNL     1       3.904   2.915  18.199  0.00  0.00    +0.000 C 
ATOM      3  O   UNL     1       4.043   1.824  17.672  0.00  0.00    +0.000 OA
ATOM      4  C   UNL     1       2.827   3.213  19.138  0.00  0.00    +0.000 A 
ATOM      5  C   UNL     1       1.908   2.336  19.690  0.00  0.00    +0.000 A 
ATOM      6  C   UNL     1       1.026   2.842  20.648  0.00  0.00    +0.000 A 
ATOM      7  C   UNL     1       1.074   4.199  21.025  0.00  0.00    +0.000 A 
ATOM      8  C   UNL     1       2.007   5.071  20.449  0.00  0.00    +0.000 A 
ATOM      9  C   UNL     1       2.876   4.551  19.506  0.00  0.00    +0.000 A 
ATOM     10  C   UNL     1       3.992   5.206  18.814  0.00  0.00    +0.000 C 
ATOM     11  O   UNL     1       4.214   6.401  18.897  0.00  0.00    +0.000 OA
ENDROOT
BRANCH   1  15
ATOM     12  C   UNL     1       6.512   4.458  14.148  0.00  0.00    +0.000 A 
ATOM     13  C   UNL     1       7.344   4.595  15.269  0.00  0.00    +0.000 A 
ATOM     14  C   UNL     1       6.818   4.564  16.569  0.00  0.00    +0.000 A 
ATOM     15  C   UNL     1       5.444   4.404  16.776  0.00  0.00    +0.000 A 
ATOM     16  C   UNL     1       4.608   4.388  15.645  0.00  0.00    +0.000 A 
ATOM     17  C   UNL     1       5.131   4.407  14.349  0.00  0.00    +0.000 A 
BRANCH  12  18
ATOM     18  C   UNL     1       7.088   4.296  12.758  0.00  0.00    +0.000 C 
BRANCH  18  19
ATOM     19  C   UNL     1       6.271   3.293  11.930  0.00  0.00    +0.000 C 
BRANCH  19  21
ATOM     20  C   UNL     1       6.421   0.937  11.065  0.00  0.00    +0.000 C 
ATOM     21  C   UNL     1       7.150   2.265  11.220  0.00  0.00    +0.000 C 
ENDBRANCH  19  21
ENDBRANCH  18  19
ENDBRANCH  12  18
ENDBRANCH   1  15
TORSDOF 4
ENDMDL
MODEL 5
REMARK VINA RESULT:      -7.4      3.555      4.391
REMARK  Name = 
REMARK  5 active torsions:
REMARK  status: ('A' for Active; 'I' for Inactive)
REMARK    1  A    between atoms: C_1  and  C_2
REMARK    2  A    between atoms: C_2  and  C_3
REMARK    3  A    between atoms: C_3  and  C_4
REMARK    4  A    between atoms: C_4  and  C_5
REMARK    5  A    between atoms: C_8  and  C_9
REMARK                            x       y       z     vdW  Elec       q    Type
REMARK                         _______ _______ _______ _____ _____    ______ ____
ROOT
ATOM      1  C   UNL     1       2.291   6.644  18.533  0.00  0.00    +0.000 C 
ATOM      2  C   UNL     1       2.217   8.110  18.150  0.00  0.00    +0.000 C 
ATOM      3  O   UNL     1       2.475   8.631  17.077  0.00  0.00    +0.000 OA
ATOM      4  C   UNL     1       1.655   8.847  19.277  0.00  0.00    +0.000 A 
ATOM      5  C   UNL     1       1.196  10.154  19.299  0.00  0.00    +0.000 A 
ATOM      6  C   UNL     1       0.607  10.612  20.481  0.00  0.00    +0.000 A 
ATOM      7  C   UNL     1       0.495   9.768  21.603  0.00  0.00    +0.000 A 
ATOM      8  C   UNL     1       0.971   8.452  21.561  0.00  0.00    +0.000 A 
ATOM      9  C   UNL     1       1.547   8.014  20.382  0.00  0.00    +0.000 A 
ATOM     10  C   UNL     1       2.047   6.678  20.035  0.00  0.00    +0.000 C 
ATOM     11  O   UNL     1       2.139   5.774  20.846  0.00  0.00    +0.000 OA
ENDROOT
BRANCH   1  15
ATOM     12  C   UNL     1       5.615   4.704  16.539  0.00  0.00    +0.000 A 
ATOM     13  C   UNL     1       4.451   3.971  16.813  0.00  0.00    +0.000 A 
ATOM     14  C   UNL     1       3.383   4.546  17.520  0.00  0.00    +0.000 A 
ATOM     15  C   UNL     1       3.461   5.866  17.975  0.00  0.00    +0.000 A 
ATOM     16  C   UNL     1       4.678   6.550  17.798  0.00  0.00    +0.000 A 
ATOM     17  C   UNL     1       5.738   5.983  17.086  0.00  0.00    +0.000 A 
BRANCH  12  18
ATOM     18  C   UNL     1       6.686   4.162  15.617  0.00  0.00    +0.000 C 
BRANCH  18  19
ATOM     19  C   UNL     1       6.508   4.689  14.186  0.00  0.00    +0.000 C 
BRANCH  19  21
ATOM     20  C   UNL     1       6.532   3.355  12.055  0.00  0.00    +0.000 C 
ATOM     21  C   UNL     1       5.729   3.721  13.297  0.00  0.00    +0.000 C 
ENDBRANCH  19  21
ENDBRANCH  18  19
ENDBRANCH  12  18
ENDBRANCH   1  15
TORSDOF 4
ENDMDL
MODEL 6
REMARK VINA RESULT:      -7.2      4.477      6.862
REMARK  Name = 
REMARK  5 active torsions:
REMARK  status: ('A' for Active; 'I' for Inactive)
REMARK    1  A    between atoms: C_1  and  C_2
REMARK    2  A    between atoms: C_2  and  C_3
REMARK    3  A    between atoms: C_3  and  C_4
REMARK    4  A    between atoms: C_4  and  C_5
REMARK    5  A    between atoms: C_8  and  C_9
REMARK                            x       y       z     vdW  Elec       q    Type
REMARK                         _______ _______ _______ _____ _____    ______ ____
ROOT
ATOM      1  C   UNL     1       2.752   6.401  19.480  0.00  0.00    +0.000 C 
ATOM      2  C   UNL     1       3.451   5.968  18.205  0.00  0.00    +0.000 C 
ATOM      3  O   UNL     1       4.101   6.644  17.425  0.00  0.00    +0.000 OA
ATOM      4  C   UNL     1       3.325   4.518  18.087  0.00  0.00    +0.000 A 
ATOM      5  C   UNL     1       3.994   3.671  17.220  0.00  0.00    +0.000 A 
ATOM      6  C   UNL     1       3.777   2.298  17.361  0.00  0.00    +0.000 A 
ATOM      7  C   UNL     1       2.903   1.807  18.351  0.00  0.00    +0.000 A 
ATOM      8  C   UNL     1       2.232   2.681  19.214  0.00  0.00    +0.000 A 
ATOM      9  C   UNL     1       2.462   4.037  19.062  0.00  0.00    +0.000 A 
ATOM     10  C   UNL     1       1.966   5.157  19.870  0.00  0.00    +0.000 C 
ATOM     11  O   UNL     1       1.131   5.024  20.746  0.00  0.00    +0.000 OA
ENDROOT
BRANCH   1  15
ATOM     12  C   UNL     1       0.365  10.020  19.451  0.00  0.00    +0.000 A 
ATOM     13  C   UNL     1       1.034   9.624  18.283  0.00  0.00    +0.000 A 
ATOM     14  C   UNL     1       1.871   8.498  18.275  0.00  0.00    +0.000 A 
ATOM     15  C   UNL     1       2.065   7.748  19.440  0.00  0.00    +0.000 A 
ATOM     16  C   UNL     1       1.485   8.224  20.631  0.00  0.00    +0.000 A 
ATOM     17  C   UNL     1       0.642   9.339  20.638  0.00  0.00    +0.000 A 
BRANCH  12  18
ATOM     18  C   UNL     1      -0.684  11.110  19.424  0.00  0.00    +0.000 C 
BRANCH  18  19
ATOM     19  C   UNL     1      -1.342  11.215  18.041  0.00  0.00    +0.000 C 
BRANCH  19  21
ATOM     20  C   UNL     1      -2.638   9.838  16.385  0.00  0.00    +0.000 C 
ATOM     21  C   UNL     1      -2.476  10.210  17.853  0.00  0.00    +0.000 C 
ENDBRANCH  19  21
ENDBRANCH  18  19
ENDBRANCH  12  18
ENDBRANCH   1  15
TORSDOF 4
ENDMDL
MODEL 7
REMARK VINA RESULT:      -7.2      1.827      2.456
REMARK  Name = 
REMARK  5 active torsions:
REMARK  status: ('A' for Active; 'I' for Inactive)
REMARK    1  A    between atoms: C_1  and  C_2
REMARK    2  A    between atoms: C_2  and  C_3
REMARK    3  A    between atoms: C_3  and  C_4
REMARK    4  A    between atoms: C_4  and  C_5
REMARK    5  A    between atoms: C_8  and  C_9
REMARK                            x       y       z     vdW  Elec       q    Type
REMARK                         _______ _______ _______ _____ _____    ______ ____
ROOT
ATOM      1  C   UNL     1       5.184   5.183  17.825  0.00  0.00    +0.000 C 
ATOM      2  C   UNL     1       4.456   4.165  18.684  0.00  0.00    +0.000 C 
ATOM      3  O   UNL     1       4.722   2.987  18.861  0.00  0.00    +0.000 OA
ATOM      4  C   UNL     1       3.391   4.856  19.404  0.00  0.00    +0.000 A 
ATOM      5  C   UNL     1       2.629   4.385  20.460  0.00  0.00    +0.000 A 
ATOM      6  C   UNL     1       1.727   5.272  21.054  0.00  0.00    +0.000 A 
ATOM      7  C   UNL     1       1.604   6.595  20.582  0.00  0.00    +0.000 A 
ATOM      8  C   UNL     1       2.380   7.049  19.508  0.00  0.00    +0.000 A 
ATOM      9  C   UNL     1       3.270   6.158  18.936  0.00  0.00    +0.000 A 
ATOM     10  C   UNL     1       4.252   6.385  17.870  0.00  0.00    +0.000 C 
ATOM     11  O   UNL     1       4.309   7.421  17.231  0.00  0.00    +0.000 OA
ENDROOT
BRANCH   1  15
ATOM     12  C   UNL     1       6.604   4.197  13.850  0.00  0.00    +0.000 A 
ATOM     13  C   UNL     1       5.473   3.543  14.362  0.00  0.00    +0.000 A 
ATOM     14  C   UNL     1       5.027   3.785  15.670  0.00  0.00    +0.000 A 
ATOM     15  C   UNL     1       5.709   4.682  16.499  0.00  0.00    +0.000 A 
ATOM     16  C   UNL     1       6.908   5.239  16.016  0.00  0.00    +0.000 A 
ATOM     17  C   UNL     1       7.347   5.008  14.710  0.00  0.00    +0.000 A 
BRANCH  12  18
ATOM     18  C   UNL     1       6.977   4.090  12.387  0.00  0.00    +0.000 C 
BRANCH  18  19
ATOM     19  C   UNL     1       6.172   2.987  11.686  0.00  0.00    +0.000 C 
BRANCH  19  21
ATOM     20  C   UNL     1       6.304   0.542  11.117  0.00  0.00    +0.000 C 
ATOM     21  C   UNL     1       7.059   1.864  11.150  0.00  0.00    +0.000 C 
ENDBRANCH  19  21
ENDBRANCH  18  19
ENDBRANCH  12  18
ENDBRANCH   1  15
TORSDOF 4
ENDMDL
MODEL 8
REMARK VINA RESULT:      -7.1      3.423      4.891
REMARK  Name = 
REMARK  5 active torsions:
REMARK  status: ('A' for Active; 'I' for Inactive)
REMARK    1  A    between atoms: C_1  and  C_2
REMARK    2  A    between atoms: C_2  and  C_3
REMARK    3  A    between atoms: C_3  and  C_4
REMARK    4  A    between atoms: C_4  and  C_5
REMARK    5  A    between atoms: C_8  and  C_9
REMARK                            x       y       z     vdW  Elec       q    Type
REMARK                         _______ _______ _______ _____ _____    ______ ____
ROOT
ATOM      1  C   UNL     1       4.833   4.622  18.986  0.00  0.00    +0.000 C 
ATOM      2  C   UNL     1       4.325   3.573  18.014  0.00  0.00    +0.000 C 
ATOM      3  O   UNL     1       4.935   2.996  17.128  0.00  0.00    +0.000 OA
ATOM      4  C   UNL     1       2.949   3.246  18.376  0.00  0.00    +0.000 A 
ATOM      5  C   UNL     1       2.174   2.192  17.921  0.00  0.00    +0.000 A 
ATOM      6  C   UNL     1       0.909   2.028  18.490  0.00  0.00    +0.000 A 
ATOM      7  C   UNL     1       0.447   2.912  19.485  0.00  0.00    +0.000 A 
ATOM      8  C   UNL     1       1.245   3.975  19.926  0.00  0.00    +0.000 A 
ATOM      9  C   UNL     1       2.497   4.120  19.355  0.00  0.00    +0.000 A 
ATOM     10  C   UNL     1       3.558   5.079  19.681  0.00  0.00    +0.000 C 
ATOM     11  O   UNL     1       3.399   6.006  20.455  0.00  0.00    +0.000 OA
ENDROOT
BRANCH   1  15
ATOM     12  C   UNL     1       7.569   7.770  17.806  0.00  0.00    +0.000 A 
ATOM     13  C   UNL     1       6.329   7.655  17.161  0.00  0.00    +0.000 A 
ATOM     14  C   UNL     1       5.448   6.607  17.467  0.00  0.00    +0.000 A 
ATOM     15  C   UNL     1       5.794   5.644  18.421  0.00  0.00    +0.000 A 
ATOM     16  C   UNL     1       7.087   5.703  18.973  0.00  0.00    +0.000 A 
ATOM     17  C   UNL     1       7.961   6.753  18.678  0.00  0.00    +0.000 A 
BRANCH  12  18
ATOM     18  C   UNL     1       8.438   8.997  17.625  0.00  0.00    +0.000 C 
BRANCH  18  19
ATOM     19  C   UNL     1       8.989   9.492  18.970  0.00  0.00    +0.000 C 
BRANCH  19  21
ATOM     20  C   UNL     1      10.213  11.358  17.813  0.00  0.00    +0.000 C 
ATOM     21  C   UNL     1       9.288  10.991  18.965  0.00  0.00    +0.000 C 
ENDBRANCH  19  21
ENDBRANCH  18  19
ENDBRANCH  12  18
ENDBRANCH   1  15
TORSDOF 4
ENDMDL
MODEL 9
REMARK VINA RESULT:      -7.1      4.043      6.609
REMARK  Name = 
REMARK  5 active torsions:
REMARK  status: ('A' for Active; 'I' for Inactive)
REMARK    1  A    between atoms: C_1  and  C_2
REMARK    2  A    between atoms: C_2  and  C_3
REMARK    3  A    between atoms: C_3  and  C_4
REMARK    4  A    between atoms: C_4  and  C_5
REMARK    5  A    between atoms: C_8  and  C_9
REMARK                            x       y       z     vdW  Elec       q    Type
REMARK                         _______ _______ _______ _____ _____    ______ ____
ROOT
ATOM      1  C   UNL     1       3.104   6.000  18.181  0.00  0.00    +0.000 C 
ATOM      2  C   UNL     1       2.097   4.898  17.908  0.00  0.00    +0.000 C 
ATOM      3  O   UNL     1       1.024   4.972  17.331  0.00  0.00    +0.000 OA
ATOM      4  C   UNL     1       2.672   3.635  18.360  0.00  0.00    +0.000 A 
ATOM      5  C   UNL     1       2.217   2.351  18.107  0.00  0.00    +0.000 A 
ATOM      6  C   UNL     1       2.995   1.287  18.568  0.00  0.00    +0.000 A 
ATOM      7  C   UNL     1       4.195   1.524  19.269  0.00  0.00    +0.000 A 
ATOM      8  C   UNL     1       4.633   2.830  19.520  0.00  0.00    +0.000 A 
ATOM      9  C   UNL     1       3.852   3.871  19.051  0.00  0.00    +0.000 A 
ATOM     10  C   UNL     1       4.108   5.315  19.097  0.00  0.00    +0.000 C 
ATOM     11  O   UNL     1       5.039   5.804  19.712  0.00  0.00    +0.000 OA
ENDROOT
BRANCH   1  15
ATOM     12  C   UNL     1       1.030   9.640  19.296  0.00  0.00    +0.000 A 
ATOM     13  C   UNL     1       1.639   9.550  18.035  0.00  0.00    +0.000 A 
ATOM     14  C   UNL     1       2.379   8.415  17.668  0.00  0.00    +0.000 A 
ATOM     15  C   UNL     1       2.532   7.348  18.559  0.00  0.00    +0.000 A 
ATOM     16  C   UNL     1       2.020   7.501  19.860  0.00  0.00    +0.000 A 
ATOM     17  C   UNL     1       1.274   8.625  20.224  0.00  0.00    +0.000 A 
BRANCH  12  18
ATOM     18  C   UNL     1       0.076  10.766  19.629  0.00  0.00    +0.000 C 
BRANCH  18  19
ATOM     19  C   UNL     1      -0.800  11.128  18.421  0.00  0.00    +0.000 C 
BRANCH  19  21
ATOM     20  C   UNL     1      -2.234   9.960  16.718  0.00  0.00    +0.000 C 
ATOM     21  C   UNL     1      -1.937  10.131  18.202  0.00  0.00    +0.000 C 
ENDBRANCH  19  21
ENDBRANCH  18  19
ENDBRANCH  12  18
ENDBRANCH   1  15
TORSDOF 4
ENDMDL
