MODEL 1
REMARK VINA RESULT:      -7.5      0.000      0.000
REMARK  Name = 
REMARK  8 active torsions:
REMARK  status: ('A' for Active; 'I' for Inactive)
REMARK    1  A    between atoms: C_1  and  C_2
REMARK    2  A    between atoms: C_5  and  C_6
REMARK    3  A    between atoms: C_7  and  C_8
REMARK    4  A    between atoms: C_8  and  C_9
REMARK    5  A    between atoms: C_8  and  N_10
REMARK    6  A    between atoms: C_11  and  C_13
REMARK    7  A    between atoms: C_18  and  C_19
REMARK    8  A    between atoms: C_19  and  O_21
REMARK                            x       y       z     vdW  Elec       q    Type
REMARK                         _______ _______ _______ _____ _____    ______ ____
ROOT
ATOM      1  N   UNL     1       3.353   4.876  17.128  0.00  0.00    +0.000 N 
ATOM      2  C   UNL     1       4.412   4.120  16.658  0.00  0.00    +0.000 C 
ATOM      3  O   UNL     1       4.696   3.017  17.112  0.00  0.00    +0.000 OA
ATOM      4  H   UNL     1       3.124   5.742  16.656  0.00  0.00    +0.000 HD
ENDROOT
BRANCH   2   5
ATOM      5  C   UNL     1       5.203   4.783  15.513  0.00  0.00    +0.000 C 
ATOM      6  C   UNL     1       5.147   6.314  15.691  0.00  0.00    +0.000 C 
ATOM      7  C   UNL     1       6.189   6.836  16.641  0.00  0.00    +0.000 C 
ATOM      8  C   UNL     1       7.240   6.120  17.059  0.00  0.00    +0.000 C 
ATOM      9  C   UNL     1       7.532   4.719  16.598  0.00  0.00    +0.000 C 
ATOM     10  C   UNL     1       6.671   4.285  15.401  0.00  0.00    +0.000 C 
BRANCH  10  11
ATOM     11  C   UNL     1       7.338   4.789  14.119  0.00  0.00    +0.000 C 
ATOM     12  O   UNL     1       8.242   5.607  14.058  0.00  0.00    +0.000 OA
BRANCH  11  13
ATOM     13  O   UNL     1       6.844   4.224  12.991  0.00  0.00    +0.000 OA
ATOM     14  H   UNL     1       5.913   3.944  13.050  0.00  0.00    +0.000 HD
ENDBRANCH  11  13
ENDBRANCH  10  11
ENDBRANCH   2   5
BRANCH   1  15
ATOM     15  C   UNL     1       2.581   4.575  18.335  0.00  0.00    +0.000 C 
ATOM     16  C   UNL     1       1.321   3.757  18.002  0.00  0.00    +0.000 C 
BRANCH  15  23
ATOM     17  C   UNL     1       1.733   9.574  18.219  0.00  0.00    +0.000 C 
ATOM     18  C   UNL     1       1.821   8.308  19.021  0.00  0.00    +0.000 A 
ATOM     19  C   UNL     1       1.467   8.294  20.365  0.00  0.00    +0.000 A 
ATOM     20  C   UNL     1       1.535   7.105  21.090  0.00  0.00    +0.000 A 
ATOM     21  C   UNL     1       1.938   5.897  20.480  0.00  0.00    +0.000 A 
ATOM     22  C   UNL     1       1.970   4.668  21.347  0.00  0.00    +0.000 C 
ATOM     23  C   UNL     1       2.242   5.874  19.098  0.00  0.00    +0.000 A 
ATOM     24  C   UNL     1       2.215   7.108  18.406  0.00  0.00    +0.000 A 
ENDBRANCH  15  23
ENDBRANCH   1  15
TORSDOF 5
ENDMDL
MODEL 2
REMARK VINA RESULT:      -7.0      1.343      2.362
REMARK  Name = 
REMARK  8 active torsions:
REMARK  status: ('A' for Active; 'I' for Inactive)
REMARK    1  A    between atoms: C_1  and  C_2
REMARK    2  A    between atoms: C_5  and  C_6
REMARK    3  A    between atoms: C_7  and  C_8
REMARK    4  A    between atoms: C_8  and  C_9
REMARK    5  A    between atoms: C_8  and  N_10
REMARK    6  A    between atoms: C_11  and  C_13
REMARK    7  A    between atoms: C_18  and  C_19
REMARK    8  A    between atoms: C_19  and  O_21
REMARK                            x       y       z     vdW  Elec       q    Type
REMARK                         _______ _______ _______ _____ _____    ______ ____
ROOT
ATOM      1  N   UNL     1       3.417   6.004  18.473  0.00  0.00    +0.000 N 
ATOM      2  C   UNL     1       4.298   5.002  18.109  0.00  0.00    +0.000 C 
ATOM      3  O   UNL     1       4.479   3.995  18.786  0.00  0.00    +0.000 OA
ATOM      4  H   UNL     1       3.255   6.769  17.831  0.00  0.00    +0.000 HD
ENDROOT
BRANCH   2   5
ATOM      5  C   UNL     1       5.031   5.258  16.777  0.00  0.00    +0.000 C 
ATOM      6  C   UNL     1       5.361   6.761  16.671  0.00  0.00    +0.000 C 
ATOM      7  C   UNL     1       6.632   7.137  17.381  0.00  0.00    +0.000 C 
ATOM      8  C   UNL     1       7.541   6.248  17.802  0.00  0.00    +0.000 C 
ATOM      9  C   UNL     1       7.423   4.766  17.580  0.00  0.00    +0.000 C 
ATOM     10  C   UNL     1       6.307   4.390  16.592  0.00  0.00    +0.000 C 
BRANCH  10  11
ATOM     11  C   UNL     1       6.862   4.504  15.170  0.00  0.00    +0.000 C 
ATOM     12  O   UNL     1       7.692   5.315  14.790  0.00  0.00    +0.000 OA
BRANCH  11  13
ATOM     13  O   UNL     1       6.357   3.584  14.314  0.00  0.00    +0.000 OA
ATOM     14  H   UNL     1       5.902   2.836  14.742  0.00  0.00    +0.000 HD
ENDBRANCH  11  13
ENDBRANCH  10  11
ENDBRANCH   2   5
BRANCH   1  15
ATOM     15  C   UNL     1       2.760   6.106  19.778  0.00  0.00    +0.000 C 
ATOM     16  C   UNL     1       1.840   4.901  20.035  0.00  0.00    +0.000 C 
BRANCH  15  23
ATOM     17  C   UNL     1       0.171   9.379  22.661  0.00  0.00    +0.000 C 
ATOM     18  C   UNL     1       0.754   9.036  21.321  0.00  0.00    +0.000 A 
ATOM     19  C   UNL     1       0.735   9.959  20.282  0.00  0.00    +0.000 A 
ATOM     20  C   UNL     1       1.299   9.632  19.050  0.00  0.00    +0.000 A 
ATOM     21  C   UNL     1       1.917   8.380  18.836  0.00  0.00    +0.000 A 
ATOM     22  C   UNL     1       2.503   8.127  17.474  0.00  0.00    +0.000 C 
ATOM     23  C   UNL     1       2.004   7.448  19.898  0.00  0.00    +0.000 A 
ATOM     24  C   UNL     1       1.374   7.792  21.118  0.00  0.00    +0.000 A 
ENDBRANCH  15  23
ENDBRANCH   1  15
TORSDOF 5
ENDMDL
MODEL 3
REMARK VINA RESULT:      -6.9      2.664      6.505
REMARK  Name = 
REMARK  8 active torsions:
REMARK  status: ('A' for Active; 'I' for Inactive)
REMARK    1  A    between atoms: C_1  and  C_2
REMARK    2  A    between atoms: C_5  and  C_6
REMARK    3  A    between atoms: C_7  and  C_8
REMARK    4  A    between atoms: C_8  and  C_9
REMARK    5  A    between atoms: C_8  and  N_10
REMARK    6  A    between atoms: C_11  and  C_13
REMARK    7  A    between atoms: C_18  and  C_19
REMARK    8  A    between atoms: C_19  and  O_21
REMARK                            x       y       z     vdW  Elec       q    Type
REMARK                         _______ _______ _______ _____ _____    ______ ____
ROOT
ATOM      1  N   UNL     1       5.741   4.545  19.192  0.00  0.00    +0.000 N 
ATOM      2  C   UNL     1       4.819   3.515  19.126  0.00  0.00    +0.000 C 
ATOM      3  O   UNL     1       4.966   2.535  18.405  0.00  0.00    +0.000 OA
ATOM      4  H   UNL     1       5.598   5.285  19.868  0.00  0.00    +0.000 HD
ENDROOT
BRANCH   2   5
ATOM      5  C   UNL     1       3.593   3.705  20.042  0.00  0.00    +0.000 C 
ATOM      6  C   UNL     1       3.109   5.164  19.929  0.00  0.00    +0.000 C 
ATOM      7  C   UNL     1       2.199   5.396  18.754  0.00  0.00    +0.000 C 
ATOM      8  C   UNL     1       1.624   4.410  18.054  0.00  0.00    +0.000 C 
ATOM      9  C   UNL     1       1.782   2.951  18.381  0.00  0.00    +0.000 C 
ATOM     10  C   UNL     1       2.438   2.707  19.749  0.00  0.00    +0.000 C 
BRANCH  10  11
ATOM     11  C   UNL     1       1.351   2.775  20.825  0.00  0.00    +0.000 C 
ATOM     12  O   UNL     1       1.523   2.629  22.025  0.00  0.00    +0.000 OA
BRANCH  11  13
ATOM     13  O   UNL     1       0.117   3.039  20.333  0.00  0.00    +0.000 OA
ATOM     14  H   UNL     1      -0.420   3.640  20.881  0.00  0.00    +0.000 HD
ENDBRANCH  11  13
ENDBRANCH  10  11
ENDBRANCH   2   5
BRANCH   1  15
ATOM     15  C   UNL     1       6.875   4.711  18.281  0.00  0.00    +0.000 C 
ATOM     16  C   UNL     1       7.895   5.718  18.840  0.00  0.00    +0.000 C 
BRANCH  15  23
ATOM     17  C   UNL     1       6.466   3.580  13.354  0.00  0.00    +0.000 C 
ATOM     18  C   UNL     1       6.182   4.535  14.476  0.00  0.00    +0.000 A 
ATOM     19  C   UNL     1       5.383   5.654  14.271  0.00  0.00    +0.000 A 
ATOM     20  C   UNL     1       5.114   6.521  15.329  0.00  0.00    +0.000 A 
ATOM     21  C   UNL     1       5.619   6.275  16.625  0.00  0.00    +0.000 A 
ATOM     22  C   UNL     1       5.264   7.265  17.700  0.00  0.00    +0.000 C 
ATOM     23  C   UNL     1       6.382   5.109  16.872  0.00  0.00    +0.000 A 
ATOM     24  C   UNL     1       6.682   4.280  15.765  0.00  0.00    +0.000 A 
ENDBRANCH  15  23
ENDBRANCH   1  15
TORSDOF 5
ENDMDL
MODEL 4
REMARK VINA RESULT:      -6.6      2.018      3.358
REMARK  Name = 
REMARK  8 active torsions:
REMARK  status: ('A' for Active; 'I' for Inactive)
REMARK    1  A    between atoms: C_1  and  C_2
REMARK    2  A    between atoms: C_5  and  C_6
REMARK    3  A    between atoms: C_7  and  C_8
REMARK    4  A    between atoms: C_8  and  C_9
REMARK    5  A    between atoms: C_8  and  N_10
REMARK    6  A    between atoms: C_11  and  C_13
REMARK    7  A    between atoms: C_18  and  C_19
REMARK    8  A    between atoms: C_19  and  O_21
REMARK                            x       y       z     vdW  Elec       q    Type
REMARK                         _______ _______ _______ _____ _____    ______ ____
ROOT
ATOM      1  N   UNL     1       3.973   6.030  19.205  0.00  0.00    +0.000 N 
ATOM      2  C   UNL     1       4.935   5.040  19.131  0.00  0.00    +0.000 C 
ATOM      3  O   UNL     1       4.693   3.858  19.346  0.00  0.00    +0.000 OA
ATOM      4  H   UNL     1       4.222   6.974  18.938  0.00  0.00    +0.000 HD
ENDROOT
BRANCH   2   5
ATOM      5  C   UNL     1       6.340   5.551  18.752  0.00  0.00    +0.000 C 
ATOM      6  C   UNL     1       7.081   4.441  17.978  0.00  0.00    +0.000 C 
ATOM      7  C   UNL     1       6.750   4.423  16.511  0.00  0.00    +0.000 C 
ATOM      8  C   UNL     1       6.128   5.424  15.877  0.00  0.00    +0.000 C 
ATOM      9  C   UNL     1       5.719   6.708  16.542  0.00  0.00    +0.000 C 
ATOM     10  C   UNL     1       6.322   6.880  17.946  0.00  0.00    +0.000 C 
BRANCH  10  11
ATOM     11  C   UNL     1       7.728   7.466  17.799  0.00  0.00    +0.000 C 
ATOM     12  O   UNL     1       8.157   8.056  16.819  0.00  0.00    +0.000 OA
BRANCH  11  13
ATOM     13  O   UNL     1       8.507   7.293  18.893  0.00  0.00    +0.000 OA
ATOM     14  H   UNL     1       9.060   6.491  18.877  0.00  0.00    +0.000 HD
ENDBRANCH  11  13
ENDBRANCH  10  11
ENDBRANCH   2   5
BRANCH   1  15
ATOM     15  C   UNL     1       2.624   5.847  19.744  0.00  0.00    +0.000 C 
ATOM     16  C   UNL     1       1.804   4.878  18.874  0.00  0.00    +0.000 C 
BRANCH  15  23
ATOM     17  C   UNL     1       0.047   9.057  22.708  0.00  0.00    +0.000 C 
ATOM     18  C   UNL     1       0.674   8.767  21.375  0.00  0.00    +0.000 A 
ATOM     19  C   UNL     1       0.739   9.749  20.393  0.00  0.00    +0.000 A 
ATOM     20  C   UNL     1       1.342   9.469  19.168  0.00  0.00    +0.000 A 
ATOM     21  C   UNL     1       1.917   8.205  18.906  0.00  0.00    +0.000 A 
ATOM     22  C   UNL     1       2.551   8.006  17.556  0.00  0.00    +0.000 C 
ATOM     23  C   UNL     1       1.919   7.211  19.913  0.00  0.00    +0.000 A 
ATOM     24  C   UNL     1       1.251   7.510  21.124  0.00  0.00    +0.000 A 
ENDBRANCH  15  23
ENDBRANCH   1  15
TORSDOF 5
ENDMDL
MODEL 5
REMARK VINA RESULT:      -6.5      3.271      5.306
REMARK  Name = 
REMARK  8 active torsions:
REMARK  status: ('A' for Active; 'I' for Inactive)
REMARK    1  A    between atoms: C_1  and  C_2
REMARK    2  A    between atoms: C_5  and  C_6
REMARK    3  A    between atoms: C_7  and  C_8
REMARK    4  A    between atoms: C_8  and  C_9
REMARK    5  A    between atoms: C_8  and  N_10
REMARK    6  A    between atoms: C_11  and  C_13
REMARK    7  A    between atoms: C_18  and  C_19
REMARK    8  A    between atoms: C_19  and  O_21
REMARK                            x       y       z     vdW  Elec       q    Type
REMARK                         _______ _______ _______ _____ _____    ______ ____
ROOT
ATOM      1  N   UNL     1       2.118   7.734  19.251  0.00  0.00    +0.000 N 
ATOM      2  C   UNL     1       2.934   6.914  18.493  0.00  0.00    +0.000 C 
ATOM      3  O   UNL     1       3.240   7.167  17.333  0.00  0.00    +0.000 OA
ATOM      4  H   UNL     1       1.970   7.508  20.227  0.00  0.00    +0.000 HD
ENDROOT
BRANCH   2   5
ATOM      5  C   UNL     1       3.429   5.655  19.233  0.00  0.00    +0.000 C 
ATOM      6  C   UNL     1       2.420   5.302  20.345  0.00  0.00    +0.000 C 
ATOM      7  C   UNL     1       1.257   4.488  19.850  0.00  0.00    +0.000 C 
ATOM      8  C   UNL     1       1.231   3.875  18.659  0.00  0.00    +0.000 C 
ATOM      9  C   UNL     1       2.378   3.890  17.688  0.00  0.00    +0.000 C 
ATOM     10  C   UNL     1       3.678   4.440  18.297  0.00  0.00    +0.000 C 
BRANCH  10  11
ATOM     11  C   UNL     1       4.387   3.300  19.033  0.00  0.00    +0.000 C 
ATOM     12  O   UNL     1       3.898   2.216  19.309  0.00  0.00    +0.000 OA
BRANCH  11  13
ATOM     13  O   UNL     1       5.670   3.581  19.363  0.00  0.00    +0.000 OA
ATOM     14  H   UNL     1       6.339   3.128  18.818  0.00  0.00    +0.000 HD
ENDBRANCH  11  13
ENDBRANCH  10  11
ENDBRANCH   2   5
BRANCH   1  15
ATOM     15  C   UNL     1       1.353   8.867  18.728  0.00  0.00    +0.000 C 
ATOM     16  C   UNL     1       2.274   9.892  18.043  0.00  0.00    +0.000 C 
BRANCH  15  23
ATOM     17  C   UNL     1       0.390   9.389  23.681  0.00  0.00    +0.000 C 
ATOM     18  C   UNL     1       0.057   9.760  22.265  0.00  0.00    +0.000 A 
ATOM     19  C   UNL     1      -0.879  10.752  21.993  0.00  0.00    +0.000 A 
ATOM     20  C   UNL     1      -1.162  11.099  20.673  0.00  0.00    +0.000 A 
ATOM     21  C   UNL     1      -0.498  10.477  19.593  0.00  0.00    +0.000 A 
ATOM     22  C   UNL     1      -0.869  10.928  18.207  0.00  0.00    +0.000 C 
ATOM     23  C   UNL     1       0.504   9.510  19.847  0.00  0.00    +0.000 A 
ATOM     24  C   UNL     1       0.728   9.143  21.196  0.00  0.00    +0.000 A 
ENDBRANCH  15  23
ENDBRANCH   1  15
TORSDOF 5
ENDMDL
MODEL 6
REMARK VINA RESULT:      -6.4      2.931      6.572
REMARK  Name = 
REMARK  8 active torsions:
REMARK  status: ('A' for Active; 'I' for Inactive)
REMARK    1  A    between atoms: C_1  and  C_2
REMARK    2  A    between atoms: C_5  and  C_6
REMARK    3  A    between atoms: C_7  and  C_8
REMARK    4  A    between atoms: C_8  and  C_9
REMARK    5  A    between atoms: C_8  and  N_10
REMARK    6  A    between atoms: C_11  and  C_13
REMARK    7  A    between atoms: C_18  and  C_19
REMARK    8  A    between atoms: C_19  and  O_21
REMARK                            x       y       z     vdW  Elec       q    Type
REMARK                         _______ _______ _______ _____ _____    ______ ____
ROOT
ATOM      1  N   UNL     1       3.454   6.070  18.114  0.00  0.00    +0.000 N 
ATOM      2  C   UNL     1       3.602   5.374  19.299  0.00  0.00    +0.000 C 
ATOM      3  O   UNL     1       4.604   5.456  20.001  0.00  0.00    +0.000 OA
ATOM      4  H   UNL     1       2.569   6.019  17.624  0.00  0.00    +0.000 HD
ENDROOT
BRANCH   2   5
ATOM      5  C   UNL     1       2.395   4.486  19.666  0.00  0.00    +0.000 C 
ATOM      6  C   UNL     1       1.880   3.794  18.387  0.00  0.00    +0.000 C 
ATOM      7  C   UNL     1       2.634   2.537  18.052  0.00  0.00    +0.000 C 
ATOM      8  C   UNL     1       3.454   1.912  18.906  0.00  0.00    +0.000 C 
ATOM      9  C   UNL     1       3.691   2.365  20.319  0.00  0.00    +0.000 C 
ATOM     10  C   UNL     1       2.702   3.448  20.780  0.00  0.00    +0.000 C 
BRANCH  10  11
ATOM     11  C   UNL     1       1.427   2.758  21.272  0.00  0.00    +0.000 C 
ATOM     12  O   UNL     1       1.337   2.039  22.255  0.00  0.00    +0.000 OA
BRANCH  11  13
ATOM     13  O   UNL     1       0.338   3.024  20.512  0.00  0.00    +0.000 OA
ATOM     14  H   UNL     1      -0.220   3.752  20.840  0.00  0.00    +0.000 HD
ENDBRANCH  11  13
ENDBRANCH  10  11
ENDBRANCH   2   5
BRANCH   1  15
ATOM     15  C   UNL     1       4.523   6.810  17.440  0.00  0.00    +0.000 C 
ATOM     16  C   UNL     1       3.951   7.919  16.540  0.00  0.00    +0.000 C 
BRANCH  15  23
ATOM     17  C   UNL     1       5.229   3.826  13.399  0.00  0.00    +0.000 C 
ATOM     18  C   UNL     1       5.769   4.403  14.675  0.00  0.00    +0.000 A 
ATOM     19  C   UNL     1       7.090   4.185  15.049  0.00  0.00    +0.000 A 
ATOM     20  C   UNL     1       7.581   4.745  16.227  0.00  0.00    +0.000 A 
ATOM     21  C   UNL     1       6.768   5.555  17.048  0.00  0.00    +0.000 A 
ATOM     22  C   UNL     1       7.394   6.119  18.294  0.00  0.00    +0.000 C 
ATOM     23  C   UNL     1       5.438   5.843  16.656  0.00  0.00    +0.000 A 
ATOM     24  C   UNL     1       4.956   5.216  15.483  0.00  0.00    +0.000 A 
ENDBRANCH  15  23
ENDBRANCH   1  15
TORSDOF 5
ENDMDL
MODEL 7
REMARK VINA RESULT:      -6.4      2.641      6.506
REMARK  Name = 
REMARK  8 active torsions:
REMARK  status: ('A' for Active; 'I' for Inactive)
REMARK    1  A    between atoms: C_1  and  C_2
REMARK    2  A    between atoms: C_5  and  C_6
REMARK    3  A    between atoms: C_7  and  C_8
REMARK    4  A    between atoms: C_8  and  C_9
REMARK    5  A    between atoms: C_8  and  N_10
REMARK    6  A    between atoms: C_11  and  C_13
REMARK    7  A    between atoms: C_18  and  C_19
REMARK    8  A    between atoms: C_19  and  O_21
REMARK                            x       y       z     vdW  Elec       q    Type
REMARK                         _______ _______ _______ _____ _____    ______ ____
ROOT
ATOM      1  N   UNL     1       3.913   5.263  18.304  0.00  0.00    +0.000 N 
ATOM      2  C   UNL     1       4.405   4.238  19.092  0.00  0.00    +0.000 C 
ATOM      3  O   UNL     1       5.545   4.231  19.542  0.00  0.00    +0.000 OA
ATOM      4  H   UNL     1       2.938   5.245  18.032  0.00  0.00    +0.000 HD
ENDROOT
BRANCH   2   5
ATOM      5  C   UNL     1       3.394   3.105  19.358  0.00  0.00    +0.000 C 
ATOM      6  C   UNL     1       3.206   2.953  20.881  0.00  0.00    +0.000 C 
ATOM      7  C   UNL     1       2.198   3.912  21.450  0.00  0.00    +0.000 C 
ATOM      8  C   UNL     1       1.335   4.614  20.704  0.00  0.00    +0.000 C 
ATOM      9  C   UNL     1       1.240   4.499  19.209  0.00  0.00    +0.000 C 
ATOM     10  C   UNL     1       2.029   3.307  18.643  0.00  0.00    +0.000 C 
BRANCH  10  11
ATOM     11  C   UNL     1       1.152   2.057  18.741  0.00  0.00    +0.000 C 
ATOM     12  O   UNL     1      -0.047   2.006  18.515  0.00  0.00    +0.000 OA
BRANCH  11  13
ATOM     13  O   UNL     1       1.832   0.943  19.102  0.00  0.00    +0.000 OA
ATOM     14  H   UNL     1       1.370   0.105  18.915  0.00  0.00    +0.000 HD
ENDBRANCH  11  13
ENDBRANCH  10  11
ENDBRANCH   2   5
BRANCH   1  15
ATOM     15  C   UNL     1       4.722   6.342  17.735  0.00  0.00    +0.000 C 
ATOM     16  C   UNL     1       3.839   7.505  17.250  0.00  0.00    +0.000 C 
BRANCH  15  23
ATOM     17  C   UNL     1       5.174   3.804  13.366  0.00  0.00    +0.000 C 
ATOM     18  C   UNL     1       5.833   4.570  14.477  0.00  0.00    +0.000 A 
ATOM     19  C   UNL     1       7.183   4.896  14.410  0.00  0.00    +0.000 A 
ATOM     20  C   UNL     1       7.774   5.625  15.441  0.00  0.00    +0.000 A 
ATOM     21  C   UNL     1       7.022   6.065  16.552  0.00  0.00    +0.000 A 
ATOM     22  C   UNL     1       7.752   6.852  17.606  0.00  0.00    +0.000 C 
ATOM     23  C   UNL     1       5.633   5.799  16.611  0.00  0.00    +0.000 A 
ATOM     24  C   UNL     1       5.077   5.012  15.576  0.00  0.00    +0.000 A 
ENDBRANCH  15  23
ENDBRANCH   1  15
TORSDOF 5
ENDMDL
MODEL 8
REMARK VINA RESULT:      -6.3      2.849      6.551
REMARK  Name = 
REMARK  8 active torsions:
REMARK  status: ('A' for Active; 'I' for Inactive)
REMARK    1  A    between atoms: C_1  and  C_2
REMARK    2  A    between atoms: C_5  and  C_6
REMARK    3  A    between atoms: C_7  and  C_8
REMARK    4  A    between atoms: C_8  and  C_9
REMARK    5  A    between atoms: C_8  and  N_10
REMARK    6  A    between atoms: C_11  and  C_13
REMARK    7  A    between atoms: C_18  and  C_19
REMARK    8  A    between atoms: C_19  and  O_21
REMARK                            x       y       z     vdW  Elec       q    Type
REMARK                         _______ _______ _______ _____ _____    ______ ____
ROOT
ATOM      1  N   UNL     1       3.766   5.380  18.672  0.00  0.00    +0.000 N 
ATOM      2  C   UNL     1       2.446   5.059  18.414  0.00  0.00    +0.000 C 
ATOM      3  O   UNL     1       1.821   5.519  17.465  0.00  0.00    +0.000 OA
ATOM      4  H   UNL     1       4.247   4.903  19.424  0.00  0.00    +0.000 HD
ENDROOT
BRANCH   2   5
ATOM      5  C   UNL     1       1.828   4.068  19.421  0.00  0.00    +0.000 C 
ATOM      6  C   UNL     1       1.113   2.946  18.641  0.00  0.00    +0.000 C 
ATOM      7  C   UNL     1       2.040   1.844  18.208  0.00  0.00    +0.000 C 
ATOM      8  C   UNL     1       3.279   1.683  18.688  0.00  0.00    +0.000 C 
ATOM      9  C   UNL     1       3.883   2.559  19.750  0.00  0.00    +0.000 C 
ATOM     10  C   UNL     1       2.857   3.482  20.427  0.00  0.00    +0.000 C 
BRANCH  10  11
ATOM     11  C   UNL     1       2.165   2.696  21.544  0.00  0.00    +0.000 C 
ATOM     12  O   UNL     1       2.722   1.998  22.378  0.00  0.00    +0.000 OA
BRANCH  11  13
ATOM     13  O   UNL     1       0.819   2.845  21.559  0.00  0.00    +0.000 OA
ATOM     14  H   UNL     1       0.491   3.632  21.089  0.00  0.00    +0.000 HD
ENDBRANCH  11  13
ENDBRANCH  10  11
ENDBRANCH   2   5
BRANCH   1  15
ATOM     15  C   UNL     1       4.514   6.445  18.001  0.00  0.00    +0.000 C 
ATOM     16  C   UNL     1       3.566   7.498  17.400  0.00  0.00    +0.000 C 
BRANCH  15  23
ATOM     17  C   UNL     1       5.114   3.960  13.620  0.00  0.00    +0.000 C 
ATOM     18  C   UNL     1       5.740   4.649  14.798  0.00  0.00    +0.000 A 
ATOM     19  C   UNL     1       7.113   4.866  14.846  0.00  0.00    +0.000 A 
ATOM     20  C   UNL     1       7.675   5.525  15.938  0.00  0.00    +0.000 A 
ATOM     21  C   UNL     1       6.873   6.004  16.998  0.00  0.00    +0.000 A 
ATOM     22  C   UNL     1       7.575   6.710  18.125  0.00  0.00    +0.000 C 
ATOM     23  C   UNL     1       5.467   5.851  16.940  0.00  0.00    +0.000 A 
ATOM     24  C   UNL     1       4.935   5.131  15.844  0.00  0.00    +0.000 A 
ENDBRANCH  15  23
ENDBRANCH   1  15
TORSDOF 5
ENDMDL
MODEL 9
REMARK VINA RESULT:      -6.3      3.311      5.205
REMARK  Name = 
REMARK  8 active torsions:
REMARK  status: ('A' for Active; 'I' for Inactive)
REMARK    1  A    between atoms: C_1  and  C_2
REMARK    2  A    between atoms: C_5  and  C_6
REMARK    3  A    between atoms: C_7  and  C_8
REMARK    4  A    between atoms: C_8  and  C_9
REMARK    5  A    between atoms: C_8  and  N_10
REMARK    6  A    between atoms: C_11  and  C_13
REMARK    7  A    between atoms: C_18  and  C_19
REMARK    8  A    between atoms: C_19  and  O_21
REMARK                            x       y       z     vdW  Elec       q    Type
REMARK                         _______ _______ _______ _____ _____    ______ ____
ROOT
ATOM      1  N   UNL     1       2.395   7.045  19.181  0.00  0.00    +0.000 N 
ATOM      2  C   UNL     1       3.016   6.024  18.485  0.00  0.00    +0.000 C 
ATOM      3  O   UNL     1       3.256   6.084  17.285  0.00  0.00    +0.000 OA
ATOM      4  H   UNL     1       2.299   6.964  20.185  0.00  0.00    +0.000 HD
ENDROOT
BRANCH   2   5
ATOM      5  C   UNL     1       3.383   4.802  19.351  0.00  0.00    +0.000 C 
ATOM      6  C   UNL     1       2.316   4.633  20.452  0.00  0.00    +0.000 C 
ATOM      7  C   UNL     1       1.105   3.872  19.988  0.00  0.00    +0.000 C 
ATOM      8  C   UNL     1       1.063   3.158  18.856  0.00  0.00    +0.000 C 
ATOM      9  C   UNL     1       2.235   2.993  17.930  0.00  0.00    +0.000 C 
ATOM     10  C   UNL     1       3.558   3.491  18.535  0.00  0.00    +0.000 C 
BRANCH  10  11
ATOM     11  C   UNL     1       4.148   2.369  19.393  0.00  0.00    +0.000 C 
ATOM     12  O   UNL     1       4.551   2.483  20.541  0.00  0.00    +0.000 OA
BRANCH  11  13
ATOM     13  O   UNL     1       4.182   1.168  18.769  0.00  0.00    +0.000 OA
ATOM     14  H   UNL     1       4.707   1.150  17.948  0.00  0.00    +0.000 HD
ENDBRANCH  11  13
ENDBRANCH  10  11
ENDBRANCH   2   5
BRANCH   1  15
ATOM     15  C   UNL     1       1.763   8.213  18.564  0.00  0.00    +0.000 C 
ATOM     16  C   UNL     1       2.808   9.129  17.903  0.00  0.00    +0.000 C 
BRANCH  15  23
ATOM     17  C   UNL     1       0.785   9.315  23.418  0.00  0.00    +0.000 C 
ATOM     18  C   UNL     1       0.446   9.505  21.968  0.00  0.00    +0.000 A 
ATOM     19  C   UNL     1      -0.509  10.437  21.579  0.00  0.00    +0.000 A 
ATOM     20  C   UNL     1      -0.798  10.615  20.227  0.00  0.00    +0.000 A 
ATOM     21  C   UNL     1      -0.120   9.879  19.229  0.00  0.00    +0.000 A 
ATOM     22  C   UNL     1      -0.499  10.151  17.799  0.00  0.00    +0.000 C 
ATOM     23  C   UNL     1       0.900   8.970  19.598  0.00  0.00    +0.000 A 
ATOM     24  C   UNL     1       1.130   8.775  20.980  0.00  0.00    +0.000 A 
ENDBRANCH  15  23
ENDBRANCH   1  15
TORSDOF 5
ENDMDL
