MODEL 1
REMARK VINA RESULT:      -9.2      0.000      0.000
REMARK  Name = 
REMARK  9 active torsions:
REMARK  status: ('A' for Active; 'I' for Inactive)
REMARK    1  A    between atoms: C_2  and  C_11
REMARK    2  A    between atoms: N_3  and  C_4
REMARK    3  A    between atoms: C_4  and  C_5
REMARK    4  A    between atoms: C_14  and  C_15
REMARK    5  A    between atoms: C_15  and  S_16
REMARK    6  A    between atoms: S_16  and  C_17
REMARK    7  A    between atoms: C_26  and  C_27
REMARK    8  A    between atoms: N_29  and  C_30
REMARK    9  A    between atoms: C_30  and  C_31
REMARK                            x       y       z     vdW  Elec       q    Type
REMARK                         _______ _______ _______ _____ _____    ______ ____
ROOT
ATOM      1  C   UNL     1       7.379   6.697  17.077  0.00  0.00    +0.000 A 
ATOM      2  O   UNL     1       7.965   6.494  15.863  0.00  0.00    +0.000 OA
ATOM      3  N   UNL     1       7.177   5.643  15.108  0.00  0.00    +0.000 NA
ATOM      4  C   UNL     1       6.079   5.350  15.835  0.00  0.00    +0.000 A 
ATOM      5  C   UNL     1       6.181   5.992  17.118  0.00  0.00    +0.000 A 
ENDROOT
BRANCH   1   7
ATOM      6  O   UNL     1       8.461   6.978  19.144  0.00  0.00    +0.000 OA
ATOM      7  C   UNL     1       8.066   7.479  18.100  0.00  0.00    +0.000 C 
ATOM      8  N   UNL     1       8.246   8.841  17.873  0.00  0.00    +0.000 N 
ATOM      9  H   UNL     1       7.722   9.292  17.136  0.00  0.00    +0.000 HD
BRANCH   8  10
ATOM     10  C   UNL     1       8.803   9.660  18.940  0.00  0.00    +0.000 C 
BRANCH  10  11
ATOM     11  C   UNL     1       9.416  10.931  18.417  0.00  0.00    +0.000 A 
ATOM     12  C   UNL     1       8.619  11.986  17.949  0.00  0.00    +0.000 A 
ATOM     13  C   UNL     1       9.207  13.129  17.399  0.00  0.00    +0.000 A 
ATOM     14  C   UNL     1      10.595  13.231  17.323  0.00  0.00    +0.000 A 
ATOM     15  C   UNL     1      11.397  12.206  17.818  0.00  0.00    +0.000 A 
ATOM     16  C   UNL     1      10.811  11.061  18.363  0.00  0.00    +0.000 A 
ENDBRANCH  10  11
ENDBRANCH   8  10
ENDBRANCH   1   7
BRANCH   5  17
ATOM     17  C   UNL     1       5.269   6.015  18.250  0.00  0.00    +0.000 C 
ATOM     18  O   UNL     1       5.590   5.589  19.328  0.00  0.00    +0.000 OA
ATOM     19  N   UNL     1       4.018   6.584  18.020  0.00  0.00    +0.000 N 
ATOM     20  H   UNL     1       3.896   7.261  17.289  0.00  0.00    +0.000 HD
BRANCH  19  21
ATOM     21  C   UNL     1       3.073   6.613  19.115  0.00  0.00    +0.000 C 
BRANCH  21  22
ATOM     22  C   UNL     1       2.223   7.855  19.102  0.00  0.00    +0.000 A 
ATOM     23  C   UNL     1       1.513   8.230  20.251  0.00  0.00    +0.000 A 
ATOM     24  C   UNL     1       0.658   9.333  20.229  0.00  0.00    +0.000 A 
ATOM     25  C   UNL     1       0.514  10.079  19.062  0.00  0.00    +0.000 A 
ATOM     26  C   UNL     1       1.231   9.731  17.919  0.00  0.00    +0.000 A 
ATOM     27  C   UNL     1       2.085   8.626  17.938  0.00  0.00    +0.000 A 
ENDBRANCH  21  22
ENDBRANCH  19  21
ENDBRANCH   5  17
BRANCH   4  28
ATOM     28  C   UNL     1       5.004   4.436  15.201  0.00  0.00    +0.000 C 
BRANCH  28  29
ATOM     29  S   UNL     1       4.700   2.853  16.144  0.00  0.00    +0.000 S 
BRANCH  29  30
ATOM     30  C   UNL     1       3.949   3.181  17.707  0.00  0.00    +0.000 A 
ATOM     31  N   UNL     1       2.704   3.550  17.808  0.00  0.00    +0.000 NA
ATOM     32  C   UNL     1       2.309   3.221  19.080  0.00  0.00    +0.000 A 
ATOM     33  C   UNL     1       1.008   3.225  19.598  0.00  0.00    +0.000 A 
ATOM     34  C   UNL     1       0.796   2.858  20.926  0.00  0.00    +0.000 A 
ATOM     35  C   UNL     1       1.881   2.528  21.739  0.00  0.00    +0.000 A 
ATOM     36  C   UNL     1       3.201   2.479  21.228  0.00  0.00    +0.000 A 
ATOM     37  C   UNL     1       3.374   2.788  19.872  0.00  0.00    +0.000 A 
ATOM     38  N   UNL     1       4.440   2.740  18.950  0.00  0.00    +0.000 N 
ATOM     39  H   UNL     1       5.336   2.314  19.138  0.00  0.00    +0.000 HD
ENDBRANCH  29  30
ENDBRANCH  28  29
ENDBRANCH   4  28
TORSDOF 9
ENDMDL
MODEL 2
REMARK VINA RESULT:      -8.7      2.131      8.777
REMARK  Name = 
REMARK  9 active torsions:
REMARK  status: ('A' for Active; 'I' for Inactive)
REMARK    1  A    between atoms: C_2  and  C_11
REMARK    2  A    between atoms: N_3  and  C_4
REMARK    3  A    between atoms: C_4  and  C_5
REMARK    4  A    between atoms: C_14  and  C_15
REMARK    5  A    between atoms: C_15  and  S_16
REMARK    6  A    between atoms: S_16  and  C_17
REMARK    7  A    between atoms: C_26  and  C_27
REMARK    8  A    between atoms: N_29  and  C_30
REMARK    9  A    between atoms: C_30  and  C_31
REMARK                            x       y       z     vdW  Elec       q    Type
REMARK                         _______ _______ _______ _____ _____    ______ ____
ROOT
ATOM      1  C   UNL     1       6.395   5.094  18.154  0.00  0.00    +0.000 A 
ATOM      2  O   UNL     1       7.669   5.047  18.639  0.00  0.00    +0.000 OA
ATOM      3  N   UNL     1       8.273   6.280  18.467  0.00  0.00    +0.000 NA
ATOM      4  C   UNL     1       7.362   7.107  17.915  0.00  0.00    +0.000 A 
ATOM      5  C   UNL     1       6.146   6.376  17.678  0.00  0.00    +0.000 A 
ENDROOT
BRANCH   1   7
ATOM      6  O   UNL     1       5.071   3.470  17.092  0.00  0.00    +0.000 OA
ATOM      7  C   UNL     1       5.578   3.885  18.125  0.00  0.00    +0.000 C 
ATOM      8  N   UNL     1       5.361   3.211  19.324  0.00  0.00    +0.000 N 
ATOM      9  H   UNL     1       5.576   3.674  20.196  0.00  0.00    +0.000 HD
BRANCH   8  10
ATOM     10  C   UNL     1       4.437   2.087  19.336  0.00  0.00    +0.000 C 
BRANCH  10  11
ATOM     11  C   UNL     1       3.027   2.516  19.640  0.00  0.00    +0.000 A 
ATOM     12  C   UNL     1       1.999   2.369  18.697  0.00  0.00    +0.000 A 
ATOM     13  C   UNL     1       0.712   2.842  18.970  0.00  0.00    +0.000 A 
ATOM     14  C   UNL     1       0.438   3.452  20.193  0.00  0.00    +0.000 A 
ATOM     15  C   UNL     1       1.441   3.570  21.152  0.00  0.00    +0.000 A 
ATOM     16  C   UNL     1       2.729   3.104  20.879  0.00  0.00    +0.000 A 
ENDBRANCH  10  11
ENDBRANCH   8  10
ENDBRANCH   1   7
BRANCH   5  17
ATOM     17  C   UNL     1       4.869   6.799  17.127  0.00  0.00    +0.000 C 
ATOM     18  O   UNL     1       4.683   6.863  15.941  0.00  0.00    +0.000 OA
ATOM     19  N   UNL     1       3.869   7.095  18.050  0.00  0.00    +0.000 N 
ATOM     20  H   UNL     1       3.886   6.682  18.966  0.00  0.00    +0.000 HD
BRANCH  19  21
ATOM     21  C   UNL     1       2.587   7.535  17.547  0.00  0.00    +0.000 C 
BRANCH  21  22
ATOM     22  C   UNL     1       1.864   8.424  18.524  0.00  0.00    +0.000 A 
ATOM     23  C   UNL     1       1.757   8.044  19.869  0.00  0.00    +0.000 A 
ATOM     24  C   UNL     1       1.021   8.817  20.768  0.00  0.00    +0.000 A 
ATOM     25  C   UNL     1       0.394   9.983  20.334  0.00  0.00    +0.000 A 
ATOM     26  C   UNL     1       0.511  10.383  19.004  0.00  0.00    +0.000 A 
ATOM     27  C   UNL     1       1.245   9.610  18.102  0.00  0.00    +0.000 A 
ENDBRANCH  21  22
ENDBRANCH  19  21
ENDBRANCH   5  17
BRANCH   4  28
ATOM     28  C   UNL     1       7.773   8.575  17.650  0.00  0.00    +0.000 C 
BRANCH  28  29
ATOM     29  S   UNL     1       8.889   9.299  18.962  0.00  0.00    +0.000 S 
BRANCH  29  30
ATOM     30  C   UNL     1       9.482  10.890  18.481  0.00  0.00    +0.000 A 
ATOM     31  N   UNL     1       8.708  11.772  17.918  0.00  0.00    +0.000 NA
ATOM     32  C   UNL     1       9.286  12.994  18.149  0.00  0.00    +0.000 A 
ATOM     33  C   UNL     1       8.729  14.259  17.927  0.00  0.00    +0.000 A 
ATOM     34  C   UNL     1       9.473  15.400  18.224  0.00  0.00    +0.000 A 
ATOM     35  C   UNL     1      10.778  15.275  18.702  0.00  0.00    +0.000 A 
ATOM     36  C   UNL     1      11.350  14.008  18.971  0.00  0.00    +0.000 A 
ATOM     37  C   UNL     1      10.553  12.881  18.726  0.00  0.00    +0.000 A 
ATOM     38  N   UNL     1      10.657  11.495  18.964  0.00  0.00    +0.000 N 
ATOM     39  H   UNL     1      11.382  11.067  19.523  0.00  0.00    +0.000 HD
ENDBRANCH  29  30
ENDBRANCH  28  29
ENDBRANCH   4  28
TORSDOF 9
ENDMDL
MODEL 3
REMARK VINA RESULT:      -8.6      4.258      7.872
REMARK  Name = 
REMARK  9 active torsions:
REMARK  status: ('A' for Active; 'I' for Inactive)
REMARK    1  A    between atoms: C_2  and  C_11
REMARK    2  A    between atoms: N_3  and  C_4
REMARK    3  A    between atoms: C_4  and  C_5
REMARK    4  A    between atoms: C_14  and  C_15
REMARK    5  A    between atoms: C_15  and  S_16
REMARK    6  A    between atoms: S_16  and  C_17
REMARK    7  A    between atoms: C_26  and  C_27
REMARK    8  A    between atoms: N_29  and  C_30
REMARK    9  A    between atoms: C_30  and  C_31
REMARK                            x       y       z     vdW  Elec       q    Type
REMARK                         _______ _______ _______ _____ _____    ______ ____
ROOT
ATOM      1  C   UNL     1       1.602   8.728  19.022  0.00  0.00    +0.000 A 
ATOM      2  O   UNL     1       2.486   8.060  18.227  0.00  0.00    +0.000 OA
ATOM      3  N   UNL     1       2.866   6.883  18.848  0.00  0.00    +0.000 NA
ATOM      4  C   UNL     1       2.185   6.797  20.009  0.00  0.00    +0.000 A 
ATOM      5  C   UNL     1       1.377   7.975  20.169  0.00  0.00    +0.000 A 
ENDROOT
BRANCH   1   7
ATOM      6  O   UNL     1       1.852  11.038  18.677  0.00  0.00    +0.000 OA
ATOM      7  C   UNL     1       1.128  10.054  18.636  0.00  0.00    +0.000 C 
ATOM      8  N   UNL     1      -0.199  10.184  18.235  0.00  0.00    +0.000 N 
ATOM      9  H   UNL     1      -0.848   9.433  18.424  0.00  0.00    +0.000 HD
BRANCH   8  10
ATOM     10  C   UNL     1      -0.724  11.518  17.982  0.00  0.00    +0.000 C 
BRANCH  10  11
ATOM     11  C   UNL     1      -2.206  11.501  17.717  0.00  0.00    +0.000 A 
ATOM     12  C   UNL     1      -3.130  11.828  18.720  0.00  0.00    +0.000 A 
ATOM     13  C   UNL     1      -4.504  11.735  18.476  0.00  0.00    +0.000 A 
ATOM     14  C   UNL     1      -4.964  11.328  17.225  0.00  0.00    +0.000 A 
ATOM     15  C   UNL     1      -4.056  11.037  16.210  0.00  0.00    +0.000 A 
ATOM     16  C   UNL     1      -2.684  11.123  16.453  0.00  0.00    +0.000 A 
ENDBRANCH  10  11
ENDBRANCH   8  10
ENDBRANCH   1   7
BRANCH   5  17
ATOM     17  C   UNL     1       0.453   8.365  21.221  0.00  0.00    +0.000 C 
ATOM     18  O   UNL     1      -0.583   7.780  21.400  0.00  0.00    +0.000 OA
ATOM     19  N   UNL     1       0.850   9.430  22.025  0.00  0.00    +0.000 N 
ATOM     20  H   UNL     1       1.825   9.646  22.136  0.00  0.00    +0.000 HD
BRANCH  19  21
ATOM     21  C   UNL     1      -0.047   9.862  23.075  0.00  0.00    +0.000 C 
BRANCH  21  22
ATOM     22  C   UNL     1      -0.780  11.127  22.716  0.00  0.00    +0.000 A 
ATOM     23  C   UNL     1      -2.017  11.411  23.310  0.00  0.00    +0.000 A 
ATOM     24  C   UNL     1      -2.746  12.538  22.926  0.00  0.00    +0.000 A 
ATOM     25  C   UNL     1      -2.239  13.398  21.955  0.00  0.00    +0.000 A 
ATOM     26  C   UNL     1      -0.999  13.139  21.373  0.00  0.00    +0.000 A 
ATOM     27  C   UNL     1      -0.270  12.010  21.753  0.00  0.00    +0.000 A 
ENDBRANCH  21  22
ENDBRANCH  19  21
ENDBRANCH   5  17
BRANCH   4  28
ATOM     28  C   UNL     1       2.399   5.543  20.890  0.00  0.00    +0.000 C 
BRANCH  28  29
ATOM     29  S   UNL     1       2.362   3.934  19.941  0.00  0.00    +0.000 S 
BRANCH  29  30
ATOM     30  C   UNL     1       3.782   3.778  18.905  0.00  0.00    +0.000 A 
ATOM     31  N   UNL     1       3.678   3.567  17.624  0.00  0.00    +0.000 NA
ATOM     32  C   UNL     1       4.854   4.004  17.067  0.00  0.00    +0.000 A 
ATOM     33  C   UNL     1       5.142   4.183  15.709  0.00  0.00    +0.000 A 
ATOM     34  C   UNL     1       6.402   4.639  15.327  0.00  0.00    +0.000 A 
ATOM     35  C   UNL     1       7.378   4.878  16.295  0.00  0.00    +0.000 A 
ATOM     36  C   UNL     1       7.100   4.742  17.676  0.00  0.00    +0.000 A 
ATOM     37  C   UNL     1       5.804   4.346  18.032  0.00  0.00    +0.000 A 
ATOM     38  N   UNL     1       5.077   4.219  19.234  0.00  0.00    +0.000 N 
ATOM     39  H   UNL     1       5.403   4.544  20.133  0.00  0.00    +0.000 HD
ENDBRANCH  29  30
ENDBRANCH  28  29
ENDBRANCH   4  28
TORSDOF 9
ENDMDL
MODEL 4
REMARK VINA RESULT:      -8.5      4.209      8.459
REMARK  Name = 
REMARK  9 active torsions:
REMARK  status: ('A' for Active; 'I' for Inactive)
REMARK    1  A    between atoms: C_2  and  C_11
REMARK    2  A    between atoms: N_3  and  C_4
REMARK    3  A    between atoms: C_4  and  C_5
REMARK    4  A    between atoms: C_14  and  C_15
REMARK    5  A    between atoms: C_15  and  S_16
REMARK    6  A    between atoms: S_16  and  C_17
REMARK    7  A    between atoms: C_26  and  C_27
REMARK    8  A    between atoms: N_29  and  C_30
REMARK    9  A    between atoms: C_30  and  C_31
REMARK                            x       y       z     vdW  Elec       q    Type
REMARK                         _______ _______ _______ _____ _____    ______ ____
ROOT
ATOM      1  C   UNL     1       1.007   9.475  19.232  0.00  0.00    +0.000 A 
ATOM      2  O   UNL     1       1.923   8.936  18.377  0.00  0.00    +0.000 OA
ATOM      3  N   UNL     1       2.431   7.770  18.922  0.00  0.00    +0.000 NA
ATOM      4  C   UNL     1       1.800   7.559  20.095  0.00  0.00    +0.000 A 
ATOM      5  C   UNL     1       0.891   8.646  20.342  0.00  0.00    +0.000 A 
ENDROOT
BRANCH   1   7
ATOM      6  O   UNL     1       0.786  11.803  19.458  0.00  0.00    +0.000 OA
ATOM      7  C   UNL     1       0.399  10.768  18.933  0.00  0.00    +0.000 C 
ATOM      8  N   UNL     1      -0.667  10.799  18.039  0.00  0.00    +0.000 N 
ATOM      9  H   UNL     1      -1.131   9.936  17.793  0.00  0.00    +0.000 HD
BRANCH   8  10
ATOM     10  C   UNL     1      -1.373  12.057  17.837  0.00  0.00    +0.000 C 
BRANCH  10  11
ATOM     11  C   UNL     1      -2.822  11.962  18.233  0.00  0.00    +0.000 A 
ATOM     12  C   UNL     1      -3.262  12.383  19.497  0.00  0.00    +0.000 A 
ATOM     13  C   UNL     1      -4.598  12.218  19.874  0.00  0.00    +0.000 A 
ATOM     14  C   UNL     1      -5.508  11.645  18.987  0.00  0.00    +0.000 A 
ATOM     15  C   UNL     1      -5.091  11.258  17.716  0.00  0.00    +0.000 A 
ATOM     16  C   UNL     1      -3.755  11.416  17.339  0.00  0.00    +0.000 A 
ENDBRANCH  10  11
ENDBRANCH   8  10
ENDBRANCH   1   7
BRANCH   5  17
ATOM     17  C   UNL     1      -0.030   8.890  21.439  0.00  0.00    +0.000 C 
ATOM     18  O   UNL     1      -0.822   8.058  21.796  0.00  0.00    +0.000 OA
ATOM     19  N   UNL     1       0.077  10.128  22.069  0.00  0.00    +0.000 N 
ATOM     20  H   UNL     1       0.944  10.634  22.046  0.00  0.00    +0.000 HD
BRANCH  19  21
ATOM     21  C   UNL     1      -0.831  10.420  23.156  0.00  0.00    +0.000 C 
BRANCH  21  22
ATOM     22  C   UNL     1      -1.465  11.778  23.021  0.00  0.00    +0.000 A 
ATOM     23  C   UNL     1      -2.796  11.973  23.416  0.00  0.00    +0.000 A 
ATOM     24  C   UNL     1      -3.421  13.205  23.222  0.00  0.00    +0.000 A 
ATOM     25  C   UNL     1      -2.720  14.258  22.640  0.00  0.00    +0.000 A 
ATOM     26  C   UNL     1      -1.390  14.085  22.263  0.00  0.00    +0.000 A 
ATOM     27  C   UNL     1      -0.762  12.852  22.454  0.00  0.00    +0.000 A 
ENDBRANCH  21  22
ENDBRANCH  19  21
ENDBRANCH   5  17
BRANCH   4  28
ATOM     28  C   UNL     1       2.158   6.287  20.900  0.00  0.00    +0.000 C 
BRANCH  28  29
ATOM     29  S   UNL     1       2.148   4.719  19.884  0.00  0.00    +0.000 S 
BRANCH  29  30
ATOM     30  C   UNL     1       3.650   4.544  18.975  0.00  0.00    +0.000 A 
ATOM     31  N   UNL     1       3.707   3.864  17.866  0.00  0.00    +0.000 NA
ATOM     32  C   UNL     1       4.798   4.339  17.181  0.00  0.00    +0.000 A 
ATOM     33  C   UNL     1       5.154   4.076  15.853  0.00  0.00    +0.000 A 
ATOM     34  C   UNL     1       6.307   4.651  15.324  0.00  0.00    +0.000 A 
ATOM     35  C   UNL     1       7.119   5.452  16.129  0.00  0.00    +0.000 A 
ATOM     36  C   UNL     1       6.760   5.764  17.462  0.00  0.00    +0.000 A 
ATOM     37  C   UNL     1       5.560   5.225  17.945  0.00  0.00    +0.000 A 
ATOM     38  N   UNL     1       4.779   5.372  19.111  0.00  0.00    +0.000 N 
ATOM     39  H   UNL     1       4.945   6.069  19.822  0.00  0.00    +0.000 HD
ENDBRANCH  29  30
ENDBRANCH  28  29
ENDBRANCH   4  28
TORSDOF 9
ENDMDL
MODEL 5
REMARK VINA RESULT:      -8.5      6.057     10.424
REMARK  Name = 
REMARK  9 active torsions:
REMARK  status: ('A' for Active; 'I' for Inactive)
REMARK    1  A    between atoms: C_2  and  C_11
REMARK    2  A    between atoms: N_3  and  C_4
REMARK    3  A    between atoms: C_4  and  C_5
REMARK    4  A    between atoms: C_14  and  C_15
REMARK    5  A    between atoms: C_15  and  S_16
REMARK    6  A    between atoms: S_16  and  C_17
REMARK    7  A    between atoms: C_26  and  C_27
REMARK    8  A    between atoms: N_29  and  C_30
REMARK    9  A    between atoms: C_30  and  C_31
REMARK                            x       y       z     vdW  Elec       q    Type
REMARK                         _______ _______ _______ _____ _____    ______ ____
ROOT
ATOM      1  C   UNL     1       0.624   9.545  21.193  0.00  0.00    +0.000 A 
ATOM      2  O   UNL     1       0.604   9.187  22.509  0.00  0.00    +0.000 OA
ATOM      3  N   UNL     1       0.012  10.193  23.251  0.00  0.00    +0.000 NA
ATOM      4  C   UNL     1      -0.376  11.159  22.394  0.00  0.00    +0.000 A 
ATOM      5  C   UNL     1       0.020  10.791  21.061  0.00  0.00    +0.000 A 
ENDROOT
BRANCH   1   7
ATOM      6  O   UNL     1       1.342   8.990  19.027  0.00  0.00    +0.000 OA
ATOM      7  C   UNL     1       1.291   8.695  20.212  0.00  0.00    +0.000 C 
ATOM      8  N   UNL     1       1.861   7.505  20.657  0.00  0.00    +0.000 N 
ATOM      9  H   UNL     1       1.618   7.153  21.572  0.00  0.00    +0.000 HD
BRANCH   8  10
ATOM     10  C   UNL     1       2.406   6.581  19.672  0.00  0.00    +0.000 C 
BRANCH  10  11
ATOM     11  C   UNL     1       2.057   5.151  19.984  0.00  0.00    +0.000 A 
ATOM     12  C   UNL     1       1.481   4.313  19.017  0.00  0.00    +0.000 A 
ATOM     13  C   UNL     1       1.095   3.011  19.346  0.00  0.00    +0.000 A 
ATOM     14  C   UNL     1       1.294   2.530  20.640  0.00  0.00    +0.000 A 
ATOM     15  C   UNL     1       1.899   3.339  21.598  0.00  0.00    +0.000 A 
ATOM     16  C   UNL     1       2.279   4.643  21.272  0.00  0.00    +0.000 A 
ENDBRANCH  10  11
ENDBRANCH   8  10
ENDBRANCH   1   7
BRANCH   5  17
ATOM     17  C   UNL     1      -0.173  11.463  19.787  0.00  0.00    +0.000 C 
ATOM     18  O   UNL     1       0.747  11.949  19.185  0.00  0.00    +0.000 OA
ATOM     19  N   UNL     1      -1.475  11.485  19.293  0.00  0.00    +0.000 N 
ATOM     20  H   UNL     1      -2.134  10.778  19.570  0.00  0.00    +0.000 HD
BRANCH  19  21
ATOM     21  C   UNL     1      -1.716  12.157  18.036  0.00  0.00    +0.000 C 
BRANCH  21  22
ATOM     22  C   UNL     1      -2.273  11.230  16.989  0.00  0.00    +0.000 A 
ATOM     23  C   UNL     1      -1.875   9.886  16.961  0.00  0.00    +0.000 A 
ATOM     24  C   UNL     1      -2.320   9.036  15.948  0.00  0.00    +0.000 A 
ATOM     25  C   UNL     1      -3.176   9.517  14.960  0.00  0.00    +0.000 A 
ATOM     26  C   UNL     1      -3.597  10.845  14.990  0.00  0.00    +0.000 A 
ATOM     27  C   UNL     1      -3.151  11.699  16.001  0.00  0.00    +0.000 A 
ENDBRANCH  21  22
ENDBRANCH  19  21
ENDBRANCH   5  17
BRANCH   4  28
ATOM     28  C   UNL     1      -1.107  12.396  22.968  0.00  0.00    +0.000 C 
BRANCH  28  29
ATOM     29  S   UNL     1      -2.843  12.043  23.561  0.00  0.00    +0.000 S 
BRANCH  29  30
ATOM     30  C   UNL     1      -4.037  12.556  22.368  0.00  0.00    +0.000 A 
ATOM     31  N   UNL     1      -3.748  12.653  21.103  0.00  0.00    +0.000 NA
ATOM     32  C   UNL     1      -4.938  12.556  20.428  0.00  0.00    +0.000 A 
ATOM     33  C   UNL     1      -5.130  12.394  19.050  0.00  0.00    +0.000 A 
ATOM     34  C   UNL     1      -6.424  12.314  18.541  0.00  0.00    +0.000 A 
ATOM     35  C   UNL     1      -7.519  12.434  19.398  0.00  0.00    +0.000 A 
ATOM     36  C   UNL     1      -7.351  12.559  20.798  0.00  0.00    +0.000 A 
ATOM     37  C   UNL     1      -6.039  12.569  21.287  0.00  0.00    +0.000 A 
ATOM     38  N   UNL     1      -5.431  12.542  22.560  0.00  0.00    +0.000 N 
ATOM     39  H   UNL     1      -5.929  12.381  23.424  0.00  0.00    +0.000 HD
ENDBRANCH  29  30
ENDBRANCH  28  29
ENDBRANCH   4  28
TORSDOF 9
ENDMDL
MODEL 6
REMARK VINA RESULT:      -8.5      4.199      8.319
REMARK  Name = 
REMARK  9 active torsions:
REMARK  status: ('A' for Active; 'I' for Inactive)
REMARK    1  A    between atoms: C_2  and  C_11
REMARK    2  A    between atoms: N_3  and  C_4
REMARK    3  A    between atoms: C_4  and  C_5
REMARK    4  A    between atoms: C_14  and  C_15
REMARK    5  A    between atoms: C_15  and  S_16
REMARK    6  A    between atoms: S_16  and  C_17
REMARK    7  A    between atoms: C_26  and  C_27
REMARK    8  A    between atoms: N_29  and  C_30
REMARK    9  A    between atoms: C_30  and  C_31
REMARK                            x       y       z     vdW  Elec       q    Type
REMARK                         _______ _______ _______ _____ _____    ______ ____
ROOT
ATOM      1  C   UNL     1       1.228   9.269  19.169  0.00  0.00    +0.000 A 
ATOM      2  O   UNL     1       2.142   8.698  18.335  0.00  0.00    +0.000 OA
ATOM      3  N   UNL     1       2.600   7.517  18.891  0.00  0.00    +0.000 NA
ATOM      4  C   UNL     1       1.938   7.329  20.052  0.00  0.00    +0.000 A 
ATOM      5  C   UNL     1       1.061   8.447  20.278  0.00  0.00    +0.000 A 
ENDROOT
BRANCH   1   7
ATOM      6  O   UNL     1       1.262  11.618  19.123  0.00  0.00    +0.000 OA
ATOM      7  C   UNL     1       0.670  10.581  18.856  0.00  0.00    +0.000 C 
ATOM      8  N   UNL     1      -0.586  10.633  18.257  0.00  0.00    +0.000 N 
ATOM      9  H   UNL     1      -1.166   9.805  18.253  0.00  0.00    +0.000 HD
BRANCH   8  10
ATOM     10  C   UNL     1      -1.215  11.931  18.066  0.00  0.00    +0.000 C 
BRANCH  10  11
ATOM     11  C   UNL     1      -2.698  11.885  18.323  0.00  0.00    +0.000 A 
ATOM     12  C   UNL     1      -3.592  11.417  17.349  0.00  0.00    +0.000 A 
ATOM     13  C   UNL     1      -4.971  11.451  17.578  0.00  0.00    +0.000 A 
ATOM     14  C   UNL     1      -5.466  11.940  18.786  0.00  0.00    +0.000 A 
ATOM     15  C   UNL     1      -4.586  12.372  19.775  0.00  0.00    +0.000 A 
ATOM     16  C   UNL     1      -3.209  12.344  19.546  0.00  0.00    +0.000 A 
ENDBRANCH  10  11
ENDBRANCH   8  10
ENDBRANCH   1   7
BRANCH   5  17
ATOM     17  C   UNL     1       0.126   8.724  21.355  0.00  0.00    +0.000 C 
ATOM     18  O   UNL     1      -0.714   7.928  21.683  0.00  0.00    +0.000 OA
ATOM     19  N   UNL     1       0.278   9.948  22.002  0.00  0.00    +0.000 N 
ATOM     20  H   UNL     1       1.170  10.412  22.007  0.00  0.00    +0.000 HD
BRANCH  19  21
ATOM     21  C   UNL     1      -0.641  10.273  23.070  0.00  0.00    +0.000 C 
BRANCH  21  22
ATOM     22  C   UNL     1      -1.288  11.618  22.878  0.00  0.00    +0.000 A 
ATOM     23  C   UNL     1      -0.578  12.654  22.256  0.00  0.00    +0.000 A 
ATOM     24  C   UNL     1      -1.135  13.929  22.144  0.00  0.00    +0.000 A 
ATOM     25  C   UNL     1      -2.411  14.178  22.643  0.00  0.00    +0.000 A 
ATOM     26  C   UNL     1      -3.136  13.151  23.244  0.00  0.00    +0.000 A 
ATOM     27  C   UNL     1      -2.580  11.875  23.360  0.00  0.00    +0.000 A 
ENDBRANCH  21  22
ENDBRANCH  19  21
ENDBRANCH   5  17
BRANCH   4  28
ATOM     28  C   UNL     1       2.236   6.048  20.865  0.00  0.00    +0.000 C 
BRANCH  28  29
ATOM     29  S   UNL     1       2.175   4.477  19.856  0.00  0.00    +0.000 S 
BRANCH  29  30
ATOM     30  C   UNL     1       3.669   4.251  18.945  0.00  0.00    +0.000 A 
ATOM     31  N   UNL     1       3.686   3.658  17.786  0.00  0.00    +0.000 NA
ATOM     32  C   UNL     1       4.820   4.093  17.149  0.00  0.00    +0.000 A 
ATOM     33  C   UNL     1       5.171   3.907  15.806  0.00  0.00    +0.000 A 
ATOM     34  C   UNL     1       6.374   4.426  15.331  0.00  0.00    +0.000 A 
ATOM     35  C   UNL     1       7.237   5.092  16.202  0.00  0.00    +0.000 A 
ATOM     36  C   UNL     1       6.888   5.327  17.554  0.00  0.00    +0.000 A 
ATOM     37  C   UNL     1       5.642   4.852  17.985  0.00  0.00    +0.000 A 
ATOM     38  N   UNL     1       4.861   4.971  19.154  0.00  0.00    +0.000 N 
ATOM     39  H   UNL     1       5.074   5.594  19.919  0.00  0.00    +0.000 HD
ENDBRANCH  29  30
ENDBRANCH  28  29
ENDBRANCH   4  28
TORSDOF 9
ENDMDL
MODEL 7
REMARK VINA RESULT:      -8.4      5.712     10.671
REMARK  Name = 
REMARK  9 active torsions:
REMARK  status: ('A' for Active; 'I' for Inactive)
REMARK    1  A    between atoms: C_2  and  C_11
REMARK    2  A    between atoms: N_3  and  C_4
REMARK    3  A    between atoms: C_4  and  C_5
REMARK    4  A    between atoms: C_14  and  C_15
REMARK    5  A    between atoms: C_15  and  S_16
REMARK    6  A    between atoms: S_16  and  C_17
REMARK    7  A    between atoms: C_26  and  C_27
REMARK    8  A    between atoms: N_29  and  C_30
REMARK    9  A    between atoms: C_30  and  C_31
REMARK                            x       y       z     vdW  Elec       q    Type
REMARK                         _______ _______ _______ _____ _____    ______ ____
ROOT
ATOM      1  C   UNL     1       0.622   9.320  21.110  0.00  0.00    +0.000 A 
ATOM      2  O   UNL     1       0.255   8.747  22.291  0.00  0.00    +0.000 OA
ATOM      3  N   UNL     1      -0.400   9.682  23.073  0.00  0.00    +0.000 NA
ATOM      4  C   UNL     1      -0.481  10.825  22.361  0.00  0.00    +0.000 A 
ATOM      5  C   UNL     1       0.185  10.640  21.100  0.00  0.00    +0.000 A 
ENDROOT
BRANCH   1   7
ATOM      6  O   UNL     1       1.554   8.934  18.988  0.00  0.00    +0.000 OA
ATOM      7  C   UNL     1       1.422   8.568  20.148  0.00  0.00    +0.000 C 
ATOM      8  N   UNL     1       2.026   7.390  20.578  0.00  0.00    +0.000 N 
ATOM      9  H   UNL     1       1.730   6.972  21.449  0.00  0.00    +0.000 HD
BRANCH   8  10
ATOM     10  C   UNL     1       2.710   6.558  19.598  0.00  0.00    +0.000 C 
BRANCH  10  11
ATOM     11  C   UNL     1       2.070   5.203  19.460  0.00  0.00    +0.000 A 
ATOM     12  C   UNL     1       1.478   4.561  20.558  0.00  0.00    +0.000 A 
ATOM     13  C   UNL     1       0.955   3.271  20.427  0.00  0.00    +0.000 A 
ATOM     14  C   UNL     1       1.005   2.619  19.196  0.00  0.00    +0.000 A 
ATOM     15  C   UNL     1       1.556   3.261  18.090  0.00  0.00    +0.000 A 
ATOM     16  C   UNL     1       2.086   4.547  18.220  0.00  0.00    +0.000 A 
ENDBRANCH  10  11
ENDBRANCH   8  10
ENDBRANCH   1   7
BRANCH   5  17
ATOM     17  C   UNL     1       0.365  11.542  19.974  0.00  0.00    +0.000 C 
ATOM     18  O   UNL     1      -0.474  11.661  19.120  0.00  0.00    +0.000 OA
ATOM     19  N   UNL     1       1.548  12.277  19.957  0.00  0.00    +0.000 N 
ATOM     20  H   UNL     1       2.035  12.473  20.814  0.00  0.00    +0.000 HD
BRANCH  19  21
ATOM     21  C   UNL     1       1.776  13.175  18.847  0.00  0.00    +0.000 C 
BRANCH  21  22
ATOM     22  C   UNL     1       2.953  14.083  19.079  0.00  0.00    +0.000 A 
ATOM     23  C   UNL     1       3.485  14.226  20.368  0.00  0.00    +0.000 A 
ATOM     24  C   UNL     1       4.523  15.125  20.613  0.00  0.00    +0.000 A 
ATOM     25  C   UNL     1       5.048  15.884  19.570  0.00  0.00    +0.000 A 
ATOM     26  C   UNL     1       4.544  15.736  18.279  0.00  0.00    +0.000 A 
ATOM     27  C   UNL     1       3.503  14.838  18.032  0.00  0.00    +0.000 A 
ENDBRANCH  21  22
ENDBRANCH  19  21
ENDBRANCH   5  17
BRANCH   4  28
ATOM     28  C   UNL     1      -1.210  12.032  22.996  0.00  0.00    +0.000 C 
BRANCH  28  29
ATOM     29  S   UNL     1      -2.462  12.841  21.870  0.00  0.00    +0.000 S 
BRANCH  29  30
ATOM     30  C   UNL     1      -1.816  14.323  21.164  0.00  0.00    +0.000 A 
ATOM     31  N   UNL     1      -1.067  15.140  21.847  0.00  0.00    +0.000 NA
ATOM     32  C   UNL     1      -0.341  15.855  20.928  0.00  0.00    +0.000 A 
ATOM     33  C   UNL     1       0.747  16.702  21.170  0.00  0.00    +0.000 A 
ATOM     34  C   UNL     1       1.365  17.349  20.102  0.00  0.00    +0.000 A 
ATOM     35  C   UNL     1       0.874  17.181  18.807  0.00  0.00    +0.000 A 
ATOM     36  C   UNL     1      -0.200  16.300  18.532  0.00  0.00    +0.000 A 
ATOM     37  C   UNL     1      -0.757  15.612  19.617  0.00  0.00    +0.000 A 
ATOM     38  N   UNL     1      -1.708  14.583  19.785  0.00  0.00    +0.000 N 
ATOM     39  H   UNL     1      -2.102  14.044  19.028  0.00  0.00    +0.000 HD
ENDBRANCH  29  30
ENDBRANCH  28  29
ENDBRANCH   4  28
TORSDOF 9
ENDMDL
MODEL 8
REMARK VINA RESULT:      -8.4      5.714     10.564
REMARK  Name = 
REMARK  9 active torsions:
REMARK  status: ('A' for Active; 'I' for Inactive)
REMARK    1  A    between atoms: C_2  and  C_11
REMARK    2  A    between atoms: N_3  and  C_4
REMARK    3  A    between atoms: C_4  and  C_5
REMARK    4  A    between atoms: C_14  and  C_15
REMARK    5  A    between atoms: C_15  and  S_16
REMARK    6  A    between atoms: S_16  and  C_17
REMARK    7  A    between atoms: C_26  and  C_27
REMARK    8  A    between atoms: N_29  and  C_30
REMARK    9  A    between atoms: C_30  and  C_31
REMARK                            x       y       z     vdW  Elec       q    Type
REMARK                         _______ _______ _______ _____ _____    ______ ____
ROOT
ATOM      1  C   UNL     1       0.697   9.408  21.115  0.00  0.00    +0.000 A 
ATOM      2  O   UNL     1       0.866   9.179  22.448  0.00  0.00    +0.000 OA
ATOM      3  N   UNL     1       0.074  10.055  23.170  0.00  0.00    +0.000 NA
ATOM      4  C   UNL     1      -0.621  10.801  22.286  0.00  0.00    +0.000 A 
ATOM      5  C   UNL     1      -0.232  10.430  20.952  0.00  0.00    +0.000 A 
ENDROOT
BRANCH   1   7
ATOM      6  O   UNL     1       1.730   9.128  19.023  0.00  0.00    +0.000 OA
ATOM      7  C   UNL     1       1.502   8.680  20.139  0.00  0.00    +0.000 C 
ATOM      8  N   UNL     1       1.996   7.430  20.499  0.00  0.00    +0.000 N 
ATOM      9  H   UNL     1       1.619   6.966  21.314  0.00  0.00    +0.000 HD
BRANCH   8  10
ATOM     10  C   UNL     1       2.681   6.633  19.492  0.00  0.00    +0.000 C 
BRANCH  10  11
ATOM     11  C   UNL     1       2.108   5.246  19.382  0.00  0.00    +0.000 A 
ATOM     12  C   UNL     1       2.077   4.564  18.157  0.00  0.00    +0.000 A 
ATOM     13  C   UNL     1       1.473   3.307  18.060  0.00  0.00    +0.000 A 
ATOM     14  C   UNL     1       0.909   2.715  19.189  0.00  0.00    +0.000 A 
ATOM     15  C   UNL     1       0.967   3.365  20.419  0.00  0.00    +0.000 A 
ATOM     16  C   UNL     1       1.564   4.624  20.516  0.00  0.00    +0.000 A 
ENDBRANCH  10  11
ENDBRANCH   8  10
ENDBRANCH   1   7
BRANCH   5  17
ATOM     17  C   UNL     1      -0.688  10.907  19.657  0.00  0.00    +0.000 C 
ATOM     18  O   UNL     1      -0.129  11.803  19.081  0.00  0.00    +0.000 OA
ATOM     19  N   UNL     1      -1.788  10.249  19.111  0.00  0.00    +0.000 N 
ATOM     20  H   UNL     1      -1.995   9.303  19.376  0.00  0.00    +0.000 HD
BRANCH  19  21
ATOM     21  C   UNL     1      -2.286  10.702  17.831  0.00  0.00    +0.000 C 
BRANCH  21  22
ATOM     22  C   UNL     1      -3.583  11.455  17.956  0.00  0.00    +0.000 A 
ATOM     23  C   UNL     1      -3.958  12.003  19.190  0.00  0.00    +0.000 A 
ATOM     24  C   UNL     1      -5.194  12.633  19.340  0.00  0.00    +0.000 A 
ATOM     25  C   UNL     1      -6.063  12.731  18.256  0.00  0.00    +0.000 A 
ATOM     26  C   UNL     1      -5.692  12.210  17.017  0.00  0.00    +0.000 A 
ATOM     27  C   UNL     1      -4.456  11.577  16.865  0.00  0.00    +0.000 A 
ENDBRANCH  21  22
ENDBRANCH  19  21
ENDBRANCH   5  17
BRANCH   4  28
ATOM     28  C   UNL     1      -1.621  11.845  22.836  0.00  0.00    +0.000 C 
BRANCH  28  29
ATOM     29  S   UNL     1      -0.920  13.572  22.966  0.00  0.00    +0.000 S 
BRANCH  29  30
ATOM     30  C   UNL     1      -0.445  14.183  21.381  0.00  0.00    +0.000 A 
ATOM     31  N   UNL     1      -1.228  14.947  20.675  0.00  0.00    +0.000 NA
ATOM     32  C   UNL     1      -0.415  15.638  19.812  0.00  0.00    +0.000 A 
ATOM     33  C   UNL     1      -0.757  16.726  19.001  0.00  0.00    +0.000 A 
ATOM     34  C   UNL     1       0.210  17.304  18.182  0.00  0.00    +0.000 A 
ATOM     35  C   UNL     1       1.500  16.772  18.144  0.00  0.00    +0.000 A 
ATOM     36  C   UNL     1       1.881  15.697  18.983  0.00  0.00    +0.000 A 
ATOM     37  C   UNL     1       0.904  15.180  19.845  0.00  0.00    +0.000 A 
ATOM     38  N   UNL     1       0.876  14.244  20.900  0.00  0.00    +0.000 N 
ATOM     39  H   UNL     1       1.698  13.829  21.314  0.00  0.00    +0.000 HD
ENDBRANCH  29  30
ENDBRANCH  28  29
ENDBRANCH   4  28
TORSDOF 9
ENDMDL
MODEL 9
REMARK VINA RESULT:      -8.3      4.560      7.684
REMARK  Name = 
REMARK  9 active torsions:
REMARK  status: ('A' for Active; 'I' for Inactive)
REMARK    1  A    between atoms: C_2  and  C_11
REMARK    2  A    between atoms: N_3  and  C_4
REMARK    3  A    between atoms: C_4  and  C_5
REMARK    4  A    between atoms: C_14  and  C_15
REMARK    5  A    between atoms: C_15  and  S_16
REMARK    6  A    between atoms: S_16  and  C_17
REMARK    7  A    between atoms: C_26  and  C_27
REMARK    8  A    between atoms: N_29  and  C_30
REMARK    9  A    between atoms: C_30  and  C_31
REMARK                            x       y       z     vdW  Elec       q    Type
REMARK                         _______ _______ _______ _____ _____    ______ ____
ROOT
ATOM      1  C   UNL     1       1.614   7.468  20.429  0.00  0.00    +0.000 A 
ATOM      2  O   UNL     1       2.246   6.314  20.786  0.00  0.00    +0.000 OA
ATOM      3  N   UNL     1       3.085   5.912  19.761  0.00  0.00    +0.000 NA
ATOM      4  C   UNL     1       3.009   6.839  18.784  0.00  0.00    +0.000 A 
ATOM      5  C   UNL     1       2.057   7.846  19.166  0.00  0.00    +0.000 A 
ENDROOT
BRANCH   1   7
ATOM      6  O   UNL     1      -0.578   7.701  21.240  0.00  0.00    +0.000 OA
ATOM      7  C   UNL     1       0.594   8.045  21.299  0.00  0.00    +0.000 C 
ATOM      8  N   UNL     1       0.984   9.030  22.202  0.00  0.00    +0.000 N 
ATOM      9  H   UNL     1       1.885   9.474  22.090  0.00  0.00    +0.000 HD
BRANCH   8  10
ATOM     10  C   UNL     1      -0.042   9.712  22.978  0.00  0.00    +0.000 C 
BRANCH  10  11
ATOM     11  C   UNL     1      -0.380  11.062  22.405  0.00  0.00    +0.000 A 
ATOM     12  C   UNL     1       0.517  11.748  21.573  0.00  0.00    +0.000 A 
ATOM     13  C   UNL     1       0.215  13.033  21.111  0.00  0.00    +0.000 A 
ATOM     14  C   UNL     1      -0.990  13.637  21.465  0.00  0.00    +0.000 A 
ATOM     15  C   UNL     1      -1.905  12.951  22.260  0.00  0.00    +0.000 A 
ATOM     16  C   UNL     1      -1.603  11.670  22.728  0.00  0.00    +0.000 A 
ENDBRANCH  10  11
ENDBRANCH   8  10
ENDBRANCH   1   7
BRANCH   5  17
ATOM     17  C   UNL     1       1.625   9.058  18.488  0.00  0.00    +0.000 C 
ATOM     18  O   UNL     1       2.271   9.550  17.601  0.00  0.00    +0.000 OA
ATOM     19  N   UNL     1       0.410   9.596  18.905  0.00  0.00    +0.000 N 
ATOM     20  H   UNL     1      -0.284   9.009  19.333  0.00  0.00    +0.000 HD
BRANCH  19  21
ATOM     21  C   UNL     1      -0.051  10.811  18.270  0.00  0.00    +0.000 C 
BRANCH  21  22
ATOM     22  C   UNL     1      -1.528  10.780  17.982  0.00  0.00    +0.000 A 
ATOM     23  C   UNL     1      -2.021   9.996  16.931  0.00  0.00    +0.000 A 
ATOM     24  C   UNL     1      -3.377  10.021  16.602  0.00  0.00    +0.000 A 
ATOM     25  C   UNL     1      -4.255  10.822  17.327  0.00  0.00    +0.000 A 
ATOM     26  C   UNL     1      -3.781  11.590  18.389  0.00  0.00    +0.000 A 
ATOM     27  C   UNL     1      -2.424  11.569  18.719  0.00  0.00    +0.000 A 
ENDBRANCH  21  22
ENDBRANCH  19  21
ENDBRANCH   5  17
BRANCH   4  28
ATOM     28  C   UNL     1       3.889   6.649  17.526  0.00  0.00    +0.000 C 
BRANCH  28  29
ATOM     29  S   UNL     1       5.542   5.849  17.870  0.00  0.00    +0.000 S 
BRANCH  29  30
ATOM     30  C   UNL     1       6.197   5.097  16.414  0.00  0.00    +0.000 A 
ATOM     31  N   UNL     1       5.576   4.132  15.799  0.00  0.00    +0.000 NA
ATOM     32  C   UNL     1       6.037   4.141  14.507  0.00  0.00    +0.000 A 
ATOM     33  C   UNL     1       5.524   3.436  13.411  0.00  0.00    +0.000 A 
ATOM     34  C   UNL     1       6.130   3.570  12.163  0.00  0.00    +0.000 A 
ATOM     35  C   UNL     1       7.263   4.371  12.021  0.00  0.00    +0.000 A 
ATOM     36  C   UNL     1       7.777   5.124  13.105  0.00  0.00    +0.000 A 
ATOM     37  C   UNL     1       7.107   5.021  14.331  0.00  0.00    +0.000 A 
ATOM     38  N   UNL     1       7.183   5.663  15.584  0.00  0.00    +0.000 N 
ATOM     39  H   UNL     1       7.744   6.482  15.771  0.00  0.00    +0.000 HD
ENDBRANCH  29  30
ENDBRANCH  28  29
ENDBRANCH   4  28
TORSDOF 9
ENDMDL
