MODEL 1
REMARK VINA RESULT:      -6.8      0.000      0.000
REMARK  Name = 
REMARK  6 active torsions:
REMARK  status: ('A' for Active; 'I' for Inactive)
REMARK    1  A    between atoms: N_4  and  C1*_5
REMARK    2  A    between atoms: C4*_7  and  C5*_8
REMARK    3  A    between atoms: C5*_8  and  O5*_9
REMARK    4  A    between atoms: C3*_10  and  O3*_11
REMARK    5  A    between atoms: C2*_12  and  O2*_13
REMARK    6  A    between atoms: C_16  and  S_17
REMARK                            x       y       z     vdW  Elec       q    Type
REMARK                         _______ _______ _______ _____ _____    ______ ____
ROOT
ATOM      1  C1* UNL     1       3.078   3.802  18.182  0.00  0.00    +0.000 C 
ATOM      2  O4* UNL     1       1.981   4.421  18.882  0.00  0.00    +0.000 OA
ATOM      3  C4* UNL     1       1.513   3.496  19.891  0.00  0.00    +0.000 C 
ATOM      4  C3* UNL     1       2.165   2.155  19.559  0.00  0.00    +0.000 C 
ATOM      5  C2* UNL     1       3.502   2.570  18.976  0.00  0.00    +0.000 C 
ENDROOT
BRANCH   1   9
ATOM      6  O   UNL     1       7.065   5.290  19.847  0.00  0.00    +0.000 OA
ATOM      7  C   UNL     1       6.241   5.464  18.899  0.00  0.00    +0.000 A 
ATOM      8  N   UNL     1       5.168   4.653  18.953  0.00  0.00    +0.000 NA
ATOM      9  N   UNL     1       4.223   4.706  18.035  0.00  0.00    +0.000 N 
ATOM     10  C   UNL     1       4.308   5.544  16.995  0.00  0.00    +0.000 A 
ATOM     11  C   UNL     1       5.373   6.412  16.872  0.00  0.00    +0.000 A 
ATOM     12  C   UNL     1       6.359   6.386  17.849  0.00  0.00    +0.000 A 
BRANCH  12  13
ATOM     13  S   UNL     1       7.729   7.540  17.698  0.00  0.00    +0.000 S 
ATOM     14  H   UNL     1       7.983   7.372  16.396  0.00  0.00    +0.000 HD
ENDBRANCH  12  13
ENDBRANCH   1   9
BRANCH   4  15
ATOM     15  O3* UNL     1       1.468   1.485  18.491  0.00  0.00    +0.000 OA
ATOM     16  H3* UNL     1       0.530   1.752  18.513  0.00  0.00    +0.000 HD
ENDBRANCH   4  15
BRANCH   5  17
ATOM     17  O2* UNL     1       4.065   1.554  18.140  0.00  0.00    +0.000 OA
ATOM     18  H2* UNL     1       4.182   0.767  18.717  0.00  0.00    +0.000 HD
ENDBRANCH   5  17
BRANCH   3  19
ATOM     19  C5* UNL     1       1.881   4.016  21.284  0.00  0.00    +0.000 C 
BRANCH  19  20
ATOM     20  O5* UNL     1       2.061   2.915  22.168  0.00  0.00    +0.000 OA
ATOM     21  H5* UNL     1       2.141   2.115  21.610  0.00  0.00    +0.000 HD
ENDBRANCH  19  20
ENDBRANCH   3  19
TORSDOF 6
ENDMDL
MODEL 2
REMARK VINA RESULT:      -6.8      1.300      1.373
REMARK  Name = 
REMARK  6 active torsions:
REMARK  status: ('A' for Active; 'I' for Inactive)
REMARK    1  A    between atoms: N_4  and  C1*_5
REMARK    2  A    between atoms: C4*_7  and  C5*_8
REMARK    3  A    between atoms: C5*_8  and  O5*_9
REMARK    4  A    between atoms: C3*_10  and  O3*_11
REMARK    5  A    between atoms: C2*_12  and  O2*_13
REMARK    6  A    between atoms: C_16  and  S_17
REMARK                            x       y       z     vdW  Elec       q    Type
REMARK                         _______ _______ _______ _____ _____    ______ ____
ROOT
ATOM      1  C1* UNL     1       4.253   3.366  17.908  0.00  0.00    +0.000 C 
ATOM      2  O4* UNL     1       2.922   3.685  17.454  0.00  0.00    +0.000 OA
ATOM      3  C4* UNL     1       1.981   3.163  18.420  0.00  0.00    +0.000 C 
ATOM      4  C3* UNL     1       2.787   2.228  19.321  0.00  0.00    +0.000 C 
ATOM      5  C2* UNL     1       4.151   2.889  19.354  0.00  0.00    +0.000 C 
ENDROOT
BRANCH   1   9
ATOM      6  O   UNL     1       8.054   5.398  19.428  0.00  0.00    +0.000 OA
ATOM      7  C   UNL     1       7.081   5.549  18.627  0.00  0.00    +0.000 A 
ATOM      8  N   UNL     1       6.216   4.518  18.621  0.00  0.00    +0.000 NA
ATOM      9  N   UNL     1       5.155   4.519  17.837  0.00  0.00    +0.000 N 
ATOM     10  C   UNL     1       4.913   5.530  16.993  0.00  0.00    +0.000 A 
ATOM     11  C   UNL     1       5.749   6.627  16.947  0.00  0.00    +0.000 A 
ATOM     12  C   UNL     1       6.852   6.649  17.789  0.00  0.00    +0.000 A 
BRANCH  12  13
ATOM     13  S   UNL     1       7.920   8.095  17.744  0.00  0.00    +0.000 S 
ATOM     14  H   UNL     1       9.099   7.468  17.824  0.00  0.00    +0.000 HD
ENDBRANCH  12  13
ENDBRANCH   1   9
BRANCH   4  15
ATOM     15  O3* UNL     1       2.993   0.947  18.693  0.00  0.00    +0.000 OA
ATOM     16  H3* UNL     1       3.950   0.817  18.552  0.00  0.00    +0.000 HD
ENDBRANCH   4  15
BRANCH   5  17
ATOM     17  O2* UNL     1       5.189   1.967  19.695  0.00  0.00    +0.000 OA
ATOM     18  H2* UNL     1       5.230   1.321  18.955  0.00  0.00    +0.000 HD
ENDBRANCH   5  17
BRANCH   3  19
ATOM     19  C5* UNL     1       1.326   4.318  19.185  0.00  0.00    +0.000 C 
BRANCH  19  20
ATOM     20  O5* UNL     1       0.559   3.796  20.264  0.00  0.00    +0.000 OA
ATOM     21  H5* UNL     1       1.167   3.258  20.810  0.00  0.00    +0.000 HD
ENDBRANCH  19  20
ENDBRANCH   3  19
TORSDOF 6
ENDMDL
MODEL 3
REMARK VINA RESULT:      -6.6      3.144      5.522
REMARK  Name = 
REMARK  6 active torsions:
REMARK  status: ('A' for Active; 'I' for Inactive)
REMARK    1  A    between atoms: N_4  and  C1*_5
REMARK    2  A    between atoms: C4*_7  and  C5*_8
REMARK    3  A    between atoms: C5*_8  and  O5*_9
REMARK    4  A    between atoms: C3*_10  and  O3*_11
REMARK    5  A    between atoms: C2*_12  and  O2*_13
REMARK    6  A    between atoms: C_16  and  S_17
REMARK                            x       y       z     vdW  Elec       q    Type
REMARK                         _______ _______ _______ _____ _____    ______ ____
ROOT
ATOM      1  C1* UNL     1       5.501   5.575  17.799  0.00  0.00    +0.000 C 
ATOM      2  O4* UNL     1       4.871   5.814  16.524  0.00  0.00    +0.000 OA
ATOM      3  C4* UNL     1       5.801   5.432  15.485  0.00  0.00    +0.000 C 
ATOM      4  C3* UNL     1       7.150   5.254  16.180  0.00  0.00    +0.000 C 
ATOM      5  C2* UNL     1       6.753   4.739  17.550  0.00  0.00    +0.000 C 
ENDROOT
BRANCH   1   9
ATOM      6  O   UNL     1       4.780   1.876  20.383  0.00  0.00    +0.000 OA
ATOM      7  C   UNL     1       4.256   2.976  20.029  0.00  0.00    +0.000 A 
ATOM      8  N   UNL     1       5.019   3.696  19.185  0.00  0.00    +0.000 NA
ATOM      9  N   UNL     1       4.618   4.867  18.730  0.00  0.00    +0.000 N 
ATOM     10  C   UNL     1       3.452   5.402  19.114  0.00  0.00    +0.000 A 
ATOM     11  C   UNL     1       2.611   4.723  19.970  0.00  0.00    +0.000 A 
ATOM     12  C   UNL     1       3.009   3.476  20.432  0.00  0.00    +0.000 A 
BRANCH  12  13
ATOM     13  S   UNL     1       1.894   2.583  21.524  0.00  0.00    +0.000 S 
ATOM     14  H   UNL     1       2.793   1.784  22.108  0.00  0.00    +0.000 HD
ENDBRANCH  12  13
ENDBRANCH   1   9
BRANCH   4  15
ATOM     15  O3* UNL     1       7.790   6.523  16.414  0.00  0.00    +0.000 OA
ATOM     16  H3* UNL     1       7.144   7.235  16.248  0.00  0.00    +0.000 HD
ENDBRANCH   4  15
BRANCH   5  17
ATOM     17  O2* UNL     1       7.767   4.978  18.530  0.00  0.00    +0.000 OA
ATOM     18  H2* UNL     1       7.549   4.394  19.291  0.00  0.00    +0.000 HD
ENDBRANCH   5  17
BRANCH   3  19
ATOM     19  C5* UNL     1       5.309   4.159  14.788  0.00  0.00    +0.000 C 
BRANCH  19  20
ATOM     20  O5* UNL     1       6.394   3.549  14.098  0.00  0.00    +0.000 OA
ATOM     21  H5* UNL     1       6.104   3.417  13.173  0.00  0.00    +0.000 HD
ENDBRANCH  19  20
ENDBRANCH   3  19
TORSDOF 6
ENDMDL
MODEL 4
REMARK VINA RESULT:      -6.6      2.965      5.641
REMARK  Name = 
REMARK  6 active torsions:
REMARK  status: ('A' for Active; 'I' for Inactive)
REMARK    1  A    between atoms: N_4  and  C1*_5
REMARK    2  A    between atoms: C4*_7  and  C5*_8
REMARK    3  A    between atoms: C5*_8  and  O5*_9
REMARK    4  A    between atoms: C3*_10  and  O3*_11
REMARK    5  A    between atoms: C2*_12  and  O2*_13
REMARK    6  A    between atoms: C_16  and  S_17
REMARK                            x       y       z     vdW  Elec       q    Type
REMARK                         _______ _______ _______ _____ _____    ______ ____
ROOT
ATOM      1  C1* UNL     1       5.709   4.515  17.333  0.00  0.00    +0.000 C 
ATOM      2  O4* UNL     1       6.904   4.197  18.074  0.00  0.00    +0.000 OA
ATOM      3  C4* UNL     1       7.770   5.355  18.048  0.00  0.00    +0.000 C 
ATOM      4  C3* UNL     1       7.188   6.284  16.984  0.00  0.00    +0.000 C 
ATOM      5  C2* UNL     1       5.698   6.021  17.089  0.00  0.00    +0.000 C 
ENDROOT
BRANCH   1   9
ATOM      6  O   UNL     1       1.150   4.190  17.317  0.00  0.00    +0.000 OA
ATOM      7  C   UNL     1       2.173   3.982  18.038  0.00  0.00    +0.000 A 
ATOM      8  N   UNL     1       3.336   4.295  17.437  0.00  0.00    +0.000 NA
ATOM      9  N   UNL     1       4.491   4.129  18.052  0.00  0.00    +0.000 N 
ATOM     10  C   UNL     1       4.556   3.613  19.286  0.00  0.00    +0.000 A 
ATOM     11  C   UNL     1       3.407   3.274  19.972  0.00  0.00    +0.000 A 
ATOM     12  C   UNL     1       2.185   3.473  19.345  0.00  0.00    +0.000 A 
BRANCH  12  13
ATOM     13  S   UNL     1       0.691   3.058  20.255  0.00  0.00    +0.000 S 
ATOM     14  H   UNL     1       0.879   3.857  21.311  0.00  0.00    +0.000 HD
ENDBRANCH  12  13
ENDBRANCH   1   9
BRANCH   4  15
ATOM     15  O3* UNL     1       7.563   5.861  15.659  0.00  0.00    +0.000 OA
ATOM     16  H3* UNL     1       7.737   6.653  15.114  0.00  0.00    +0.000 HD
ENDBRANCH   4  15
BRANCH   5  17
ATOM     17  O2* UNL     1       5.003   6.371  15.889  0.00  0.00    +0.000 OA
ATOM     18  H2* UNL     1       5.671   6.792  15.304  0.00  0.00    +0.000 HD
ENDBRANCH   5  17
BRANCH   3  19
ATOM     19  C5* UNL     1       7.825   5.994  19.440  0.00  0.00    +0.000 C 
BRANCH  19  20
ATOM     20  O5* UNL     1       8.616   5.183  20.301  0.00  0.00    +0.000 OA
ATOM     21  H5* UNL     1       8.926   5.760  21.028  0.00  0.00    +0.000 HD
ENDBRANCH  19  20
ENDBRANCH   3  19
TORSDOF 6
ENDMDL
MODEL 5
REMARK VINA RESULT:      -6.5      1.271      1.644
REMARK  Name = 
REMARK  6 active torsions:
REMARK  status: ('A' for Active; 'I' for Inactive)
REMARK    1  A    between atoms: N_4  and  C1*_5
REMARK    2  A    between atoms: C4*_7  and  C5*_8
REMARK    3  A    between atoms: C5*_8  and  O5*_9
REMARK    4  A    between atoms: C3*_10  and  O3*_11
REMARK    5  A    between atoms: C2*_12  and  O2*_13
REMARK    6  A    between atoms: C_16  and  S_17
REMARK                            x       y       z     vdW  Elec       q    Type
REMARK                         _______ _______ _______ _____ _____    ______ ____
ROOT
ATOM      1  C1* UNL     1       2.974   3.804  18.199  0.00  0.00    +0.000 C 
ATOM      2  O4* UNL     1       1.904   4.398  18.962  0.00  0.00    +0.000 OA
ATOM      3  C4* UNL     1       1.454   3.428  19.935  0.00  0.00    +0.000 C 
ATOM      4  C3* UNL     1       2.080   2.098  19.516  0.00  0.00    +0.000 C 
ATOM      5  C2* UNL     1       3.405   2.528  18.917  0.00  0.00    +0.000 C 
ENDROOT
BRANCH   1   9
ATOM      6  O   UNL     1       5.245   6.818  15.623  0.00  0.00    +0.000 OA
ATOM      7  C   UNL     1       5.279   6.221  16.742  0.00  0.00    +0.000 A 
ATOM      8  N   UNL     1       4.239   5.390  16.947  0.00  0.00    +0.000 NA
ATOM      9  N   UNL     1       4.125   4.701  18.066  0.00  0.00    +0.000 N 
ATOM     10  C   UNL     1       5.019   4.824  19.055  0.00  0.00    +0.000 A 
ATOM     11  C   UNL     1       6.116   5.649  18.917  0.00  0.00    +0.000 A 
ATOM     12  C   UNL     1       6.262   6.357  17.732  0.00  0.00    +0.000 A 
BRANCH  12  13
ATOM     13  S   UNL     1       7.710   7.407  17.548  0.00  0.00    +0.000 S 
ATOM     14  H   UNL     1       7.591   8.103  18.683  0.00  0.00    +0.000 HD
ENDBRANCH  12  13
ENDBRANCH   1   9
BRANCH   4  15
ATOM     15  O3* UNL     1       1.345   1.492  18.436  0.00  0.00    +0.000 OA
ATOM     16  H3* UNL     1       0.964   2.198  17.880  0.00  0.00    +0.000 HD
ENDBRANCH   4  15
BRANCH   5  17
ATOM     17  O2* UNL     1       3.931   1.550  18.015  0.00  0.00    +0.000 OA
ATOM     18  H2* UNL     1       3.829   0.684  18.469  0.00  0.00    +0.000 HD
ENDBRANCH   5  17
BRANCH   3  19
ATOM     19  C5* UNL     1       1.867   3.872  21.342  0.00  0.00    +0.000 C 
BRANCH  19  20
ATOM     20  O5* UNL     1       1.907   2.739  22.203  0.00  0.00    +0.000 OA
ATOM     21  H5* UNL     1       0.985   2.426  22.302  0.00  0.00    +0.000 HD
ENDBRANCH  19  20
ENDBRANCH   3  19
TORSDOF 6
ENDMDL
MODEL 6
REMARK VINA RESULT:      -6.5      1.969      2.920
REMARK  Name = 
REMARK  6 active torsions:
REMARK  status: ('A' for Active; 'I' for Inactive)
REMARK    1  A    between atoms: N_4  and  C1*_5
REMARK    2  A    between atoms: C4*_7  and  C5*_8
REMARK    3  A    between atoms: C5*_8  and  O5*_9
REMARK    4  A    between atoms: C3*_10  and  O3*_11
REMARK    5  A    between atoms: C2*_12  and  O2*_13
REMARK    6  A    between atoms: C_16  and  S_17
REMARK                            x       y       z     vdW  Elec       q    Type
REMARK                         _______ _______ _______ _____ _____    ______ ____
ROOT
ATOM      1  C1* UNL     1       4.092   4.073  19.479  0.00  0.00    +0.000 C 
ATOM      2  O4* UNL     1       3.641   2.721  19.691  0.00  0.00    +0.000 OA
ATOM      3  C4* UNL     1       2.255   2.769  20.100  0.00  0.00    +0.000 C 
ATOM      4  C3* UNL     1       1.973   4.231  20.442  0.00  0.00    +0.000 C 
ATOM      5  C2* UNL     1       2.864   4.978  19.468  0.00  0.00    +0.000 C 
ENDROOT
BRANCH   1   9
ATOM      6  O   UNL     1       8.129   4.390  17.360  0.00  0.00    +0.000 OA
ATOM      7  C   UNL     1       6.877   4.398  17.151  0.00  0.00    +0.000 A 
ATOM      8  N   UNL     1       6.138   4.244  18.266  0.00  0.00    +0.000 NA
ATOM      9  N   UNL     1       4.820   4.224  18.216  0.00  0.00    +0.000 N 
ATOM     10  C   UNL     1       4.166   4.323  17.052  0.00  0.00    +0.000 A 
ATOM     11  C   UNL     1       4.851   4.491  15.867  0.00  0.00    +0.000 A 
ATOM     12  C   UNL     1       6.238   4.543  15.911  0.00  0.00    +0.000 A 
BRANCH  12  13
ATOM     13  S   UNL     1       7.124   4.792  14.367  0.00  0.00    +0.000 S 
ATOM     14  H   UNL     1       6.139   5.367  13.669  0.00  0.00    +0.000 HD
ENDBRANCH  12  13
ENDBRANCH   1   9
BRANCH   4  15
ATOM     15  O3* UNL     1       2.467   4.566  21.753  0.00  0.00    +0.000 OA
ATOM     16  H3* UNL     1       1.708   4.647  22.362  0.00  0.00    +0.000 HD
ENDBRANCH   4  15
BRANCH   5  17
ATOM     17  O2* UNL     1       3.162   6.303  19.917  0.00  0.00    +0.000 OA
ATOM     18  H2* UNL     1       2.402   6.860  19.635  0.00  0.00    +0.000 HD
ENDBRANCH   5  17
BRANCH   3  19
ATOM     19  C5* UNL     1       1.362   2.229  18.978  0.00  0.00    +0.000 C 
BRANCH  19  20
ATOM     20  O5* UNL     1       2.170   1.587  17.999  0.00  0.00    +0.000 OA
ATOM     21  H5* UNL     1       2.532   0.779  18.415  0.00  0.00    +0.000 HD
ENDBRANCH  19  20
ENDBRANCH   3  19
TORSDOF 6
ENDMDL
MODEL 7
REMARK VINA RESULT:      -6.4      1.036      1.036
REMARK  Name = 
REMARK  6 active torsions:
REMARK  status: ('A' for Active; 'I' for Inactive)
REMARK    1  A    between atoms: N_4  and  C1*_5
REMARK    2  A    between atoms: C4*_7  and  C5*_8
REMARK    3  A    between atoms: C5*_8  and  O5*_9
REMARK    4  A    between atoms: C3*_10  and  O3*_11
REMARK    5  A    between atoms: C2*_12  and  O2*_13
REMARK    6  A    between atoms: C_16  and  S_17
REMARK                            x       y       z     vdW  Elec       q    Type
REMARK                         _______ _______ _______ _____ _____    ______ ____
ROOT
ATOM      1  C1* UNL     1       2.276   3.999  18.277  0.00  0.00    +0.000 C 
ATOM      2  O4* UNL     1       1.479   4.533  19.353  0.00  0.00    +0.000 OA
ATOM      3  C4* UNL     1       1.077   3.433  20.202  0.00  0.00    +0.000 C 
ATOM      4  C3* UNL     1       1.394   2.163  19.414  0.00  0.00    +0.000 C 
ATOM      5  C2* UNL     1       2.631   2.558  18.630  0.00  0.00    +0.000 C 
ENDROOT
BRANCH   1   9
ATOM      6  O   UNL     1       6.827   4.183  18.644  0.00  0.00    +0.000 OA
ATOM      7  C   UNL     1       5.818   4.854  18.269  0.00  0.00    +0.000 A 
ATOM      8  N   UNL     1       4.648   4.206  18.415  0.00  0.00    +0.000 NA
ATOM      9  N   UNL     1       3.507   4.767  18.064  0.00  0.00    +0.000 N 
ATOM     10  C   UNL     1       3.469   5.989  17.519  0.00  0.00    +0.000 A 
ATOM     11  C   UNL     1       4.625   6.720  17.343  0.00  0.00    +0.000 A 
ATOM     12  C   UNL     1       5.829   6.151  17.737  0.00  0.00    +0.000 A 
BRANCH  12  13
ATOM     13  S   UNL     1       7.328   7.122  17.533  0.00  0.00    +0.000 S 
ATOM     14  H   UNL     1       6.761   8.299  17.251  0.00  0.00    +0.000 HD
ENDBRANCH  12  13
ENDBRANCH   1   9
BRANCH   4  15
ATOM     15  O3* UNL     1       0.380   1.892  18.428  0.00  0.00    +0.000 OA
ATOM     16  H3* UNL     1       0.816   1.658  17.586  0.00  0.00    +0.000 HD
ENDBRANCH   4  15
BRANCH   5  17
ATOM     17  O2* UNL     1       2.814   1.744  17.468  0.00  0.00    +0.000 OA
ATOM     18  H2* UNL     1       2.010   1.875  16.918  0.00  0.00    +0.000 HD
ENDBRANCH   5  17
BRANCH   3  19
ATOM     19  C5* UNL     1       1.816   3.512  21.541  0.00  0.00    +0.000 C 
BRANCH  19  20
ATOM     20  O5* UNL     1       2.570   4.718  21.594  0.00  0.00    +0.000 OA
ATOM     21  H5* UNL     1       2.458   5.161  20.729  0.00  0.00    +0.000 HD
ENDBRANCH  19  20
ENDBRANCH   3  19
TORSDOF 6
ENDMDL
MODEL 8
REMARK VINA RESULT:      -6.3      2.961      5.465
REMARK  Name = 
REMARK  6 active torsions:
REMARK  status: ('A' for Active; 'I' for Inactive)
REMARK    1  A    between atoms: N_4  and  C1*_5
REMARK    2  A    between atoms: C4*_7  and  C5*_8
REMARK    3  A    between atoms: C5*_8  and  O5*_9
REMARK    4  A    between atoms: C3*_10  and  O3*_11
REMARK    5  A    between atoms: C2*_12  and  O2*_13
REMARK    6  A    between atoms: C_16  and  S_17
REMARK                            x       y       z     vdW  Elec       q    Type
REMARK                         _______ _______ _______ _____ _____    ______ ____
ROOT
ATOM      1  C1* UNL     1       5.732   4.536  17.756  0.00  0.00    +0.000 C 
ATOM      2  O4* UNL     1       7.039   4.320  18.324  0.00  0.00    +0.000 OA
ATOM      3  C4* UNL     1       7.819   5.522  18.123  0.00  0.00    +0.000 C 
ATOM      4  C3* UNL     1       7.033   6.365  17.121  0.00  0.00    +0.000 C 
ATOM      5  C2* UNL     1       5.594   6.026  17.457  0.00  0.00    +0.000 C 
ENDROOT
BRANCH   1   9
ATOM      6  O   UNL     1       2.175   5.758  20.353  0.00  0.00    +0.000 OA
ATOM      7  C   UNL     1       2.861   4.754  19.991  0.00  0.00    +0.000 A 
ATOM      8  N   UNL     1       3.859   5.055  19.138  0.00  0.00    +0.000 NA
ATOM      9  N   UNL     1       4.658   4.120  18.663  0.00  0.00    +0.000 N 
ATOM     10  C   UNL     1       4.490   2.830  18.984  0.00  0.00    +0.000 A 
ATOM     11  C   UNL     1       3.496   2.443  19.858  0.00  0.00    +0.000 A 
ATOM     12  C   UNL     1       2.667   3.423  20.387  0.00  0.00    +0.000 A 
BRANCH  12  13
ATOM     13  S   UNL     1       1.392   2.914  21.548  0.00  0.00    +0.000 S 
ATOM     14  H   UNL     1       1.513   1.591  21.401  0.00  0.00    +0.000 HD
ENDBRANCH  12  13
ENDBRANCH   1   9
BRANCH   4  15
ATOM     15  O3* UNL     1       7.236   5.900  15.773  0.00  0.00    +0.000 OA
ATOM     16  H3* UNL     1       8.004   5.297  15.762  0.00  0.00    +0.000 HD
ENDBRANCH   4  15
BRANCH   5  17
ATOM     17  O2* UNL     1       4.710   6.279  16.360  0.00  0.00    +0.000 OA
ATOM     18  H2* UNL     1       3.869   6.595  16.760  0.00  0.00    +0.000 HD
ENDBRANCH   5  17
BRANCH   3  19
ATOM     19  C5* UNL     1       8.038   6.229  19.465  0.00  0.00    +0.000 C 
BRANCH  19  20
ATOM     20  O5* UNL     1       8.024   5.268  20.514  0.00  0.00    +0.000 OA
ATOM     21  H5* UNL     1       8.196   5.754  21.346  0.00  0.00    +0.000 HD
ENDBRANCH  19  20
ENDBRANCH   3  19
TORSDOF 6
ENDMDL
MODEL 9
REMARK VINA RESULT:      -6.2      2.896      5.520
REMARK  Name = 
REMARK  6 active torsions:
REMARK  status: ('A' for Active; 'I' for Inactive)
REMARK    1  A    between atoms: N_4  and  C1*_5
REMARK    2  A    between atoms: C4*_7  and  C5*_8
REMARK    3  A    between atoms: C5*_8  and  O5*_9
REMARK    4  A    between atoms: C3*_10  and  O3*_11
REMARK    5  A    between atoms: C2*_12  and  O2*_13
REMARK    6  A    between atoms: C_16  and  S_17
REMARK                            x       y       z     vdW  Elec       q    Type
REMARK                         _______ _______ _______ _____ _____    ______ ____
ROOT
ATOM      1  C1* UNL     1       5.785   4.598  17.587  0.00  0.00    +0.000 C 
ATOM      2  O4* UNL     1       7.054   4.363  18.229  0.00  0.00    +0.000 OA
ATOM      3  C4* UNL     1       7.873   5.542  18.050  0.00  0.00    +0.000 C 
ATOM      4  C3* UNL     1       7.163   6.384  16.991  0.00  0.00    +0.000 C 
ATOM      5  C2* UNL     1       5.700   6.085  17.254  0.00  0.00    +0.000 C 
ENDROOT
BRANCH   1   9
ATOM      6  O   UNL     1       2.684   1.442  18.731  0.00  0.00    +0.000 OA
ATOM      7  C   UNL     1       3.074   2.619  19.004  0.00  0.00    +0.000 A 
ATOM      8  N   UNL     1       4.126   3.028  18.272  0.00  0.00    +0.000 NA
ATOM      9  N   UNL     1       4.654   4.225  18.442  0.00  0.00    +0.000 N 
ATOM     10  C   UNL     1       4.185   5.068  19.370  0.00  0.00    +0.000 A 
ATOM     11  C   UNL     1       3.104   4.725  20.155  0.00  0.00    +0.000 A 
ATOM     12  C   UNL     1       2.522   3.479  19.965  0.00  0.00    +0.000 A 
BRANCH  12  13
ATOM     13  S   UNL     1       1.095   3.050  20.970  0.00  0.00    +0.000 S 
ATOM     14  H   UNL     1       1.326   3.875  21.997  0.00  0.00    +0.000 HD
ENDBRANCH  12  13
ENDBRANCH   1   9
BRANCH   4  15
ATOM     15  O3* UNL     1       7.428   5.887  15.665  0.00  0.00    +0.000 OA
ATOM     16  H3* UNL     1       7.169   6.570  15.017  0.00  0.00    +0.000 HD
ENDBRANCH   4  15
BRANCH   5  17
ATOM     17  O2* UNL     1       4.884   6.337  16.106  0.00  0.00    +0.000 OA
ATOM     18  H2* UNL     1       4.461   5.478  15.883  0.00  0.00    +0.000 HD
ENDBRANCH   5  17
BRANCH   3  19
ATOM     19  C5* UNL     1       8.036   6.270  19.389  0.00  0.00    +0.000 C 
BRANCH  19  20
ATOM     20  O5* UNL     1       7.942   5.330  20.453  0.00  0.00    +0.000 OA
ATOM     21  H5* UNL     1       7.250   5.659  21.062  0.00  0.00    +0.000 HD
ENDBRANCH  19  20
ENDBRANCH   3  19
TORSDOF 6
ENDMDL
