MODEL 1
REMARK VINA RESULT:      -7.5      0.000      0.000
REMARK  Name = 
REMARK  13 active torsions:
REMARK  status: ('A' for Active; 'I' for Inactive)
REMARK    1  A    between atoms: C_1  and  C_2
REMARK    2  A    between atoms: C_2  and  C_3
REMARK    3  A    between atoms: C_2  and  C_4
REMARK    4  A    between atoms: C_4  and  N_5
REMARK    5  A    between atoms: C_6  and  N_7
REMARK    6  A    between atoms: C_8  and  C_9
REMARK    7  A    between atoms: C_9  and  C_11
REMARK    8  A    between atoms: C_11  and  S_12
REMARK    9  A    between atoms: S_12  and  C_13
REMARK   10  A    between atoms: C_16  and  C_17
REMARK   11  A    between atoms: C_17  and  O_18
REMARK   12  A    between atoms: O_18  and  C_19
REMARK   13  A    between atoms: N_29  and  C_30
REMARK                            x       y       z     vdW  Elec       q    Type
REMARK                         _______ _______ _______ _____ _____    ______ ____
ROOT
ATOM      1  C   UNL     1       5.475   4.113  17.085  0.00  0.00    +0.000 C 
ATOM      2  O   UNL     1       5.036   3.146  16.448  0.00  0.00    +0.000 OA
ENDROOT
BRANCH   1   5
ATOM      3  N   UNL     1       3.147   5.222  19.854  0.00  0.00    +0.000 N 
ATOM      4  C   UNL     1       4.042   4.460  19.099  0.00  0.00    +0.000 A 
ATOM      5  C   UNL     1       4.512   4.942  17.919  0.00  0.00    +0.000 A 
ATOM      6  C   UNL     1       4.083   6.293  17.479  0.00  0.00    +0.000 A 
ATOM      7  O   UNL     1       4.519   6.770  16.433  0.00  0.00    +0.000 OA
ATOM      8  N   UNL     1       3.192   6.969  18.277  0.00  0.00    +0.000 N 
ATOM      9  C   UNL     1       2.729   8.289  17.880  0.00  0.00    +0.000 C 
ATOM     10  C   UNL     1       2.676   6.471  19.455  0.00  0.00    +0.000 A 
ATOM     11  O   UNL     1       1.845   7.104  20.106  0.00  0.00    +0.000 OA
BRANCH   4  12
ATOM     12  N   UNL     1       4.396   3.209  19.583  0.00  0.00    +0.000 N 
ATOM     13  H   UNL     1       5.128   2.751  19.051  0.00  0.00    +0.000 HD
ATOM     14  H   UNL     1       3.592   2.583  19.723  0.00  0.00    +0.000 HD
ENDBRANCH   4  12
BRANCH   3  15
ATOM     15  C   UNL     1       2.580   4.682  21.108  0.00  0.00    +0.000 C 
BRANCH  15  17
ATOM     16  C   UNL     1       0.979   3.603  19.426  0.00  0.00    +0.000 C 
ATOM     17  C   UNL     1       1.291   3.854  20.902  0.00  0.00    +0.000 C 
ATOM     18  C   UNL     1       1.412   2.511  21.629  0.00  0.00    +0.000 C 
ENDBRANCH  15  17
ENDBRANCH   3  15
ENDBRANCH   1   5
BRANCH   1  19
ATOM     19  C   UNL     1       6.971   4.443  17.091  0.00  0.00    +0.000 C 
BRANCH  19  20
ATOM     20  S   UNL     1       7.443   5.279  18.646  0.00  0.00    +0.000 S 
BRANCH  20  21
ATOM     21  C   UNL     1       7.806   6.878  18.083  0.00  0.00    +0.000 A 
ATOM     22  N   UNL     1       7.769   7.278  16.830  0.00  0.00    +0.000 NA
ATOM     23  N   UNL     1       8.048   8.633  16.834  0.00  0.00    +0.000 NA
ATOM     24  C   UNL     1       8.248   8.965  18.093  0.00  0.00    +0.000 A 
ATOM     25  O   UNL     1       8.114   7.897  18.944  0.00  0.00    +0.000 OA
BRANCH  24  26
ATOM     26  C   UNL     1       8.408  10.301  18.725  0.00  0.00    +0.000 C 
BRANCH  26  27
ATOM     27  O   UNL     1       9.552  10.274  19.580  0.00  0.00    +0.000 OA
BRANCH  27  28
ATOM     28  C   UNL     1      10.037  11.491  20.001  0.00  0.00    +0.000 A 
ATOM     29  C   UNL     1       9.381  11.989  21.139  0.00  0.00    +0.000 A 
ATOM     30  C   UNL     1       9.703  13.241  21.675  0.00  0.00    +0.000 A 
ATOM     31  C   UNL     1      10.687  14.019  21.079  0.00  0.00    +0.000 A 
ATOM     32  C   UNL     1      11.339  13.546  19.942  0.00  0.00    +0.000 A 
ATOM     33  C   UNL     1      11.014  12.298  19.392  0.00  0.00    +0.000 A 
ATOM     34 CL   UNL     1      11.833  11.928  17.916  0.00  0.00    +0.000 Cl
ENDBRANCH  27  28
ENDBRANCH  26  27
ENDBRANCH  24  26
ENDBRANCH  20  21
ENDBRANCH  19  20
ENDBRANCH   1  19
TORSDOF 10
ENDMDL
MODEL 2
REMARK VINA RESULT:      -7.5      4.484      7.647
REMARK  Name = 
REMARK  13 active torsions:
REMARK  status: ('A' for Active; 'I' for Inactive)
REMARK    1  A    between atoms: C_1  and  C_2
REMARK    2  A    between atoms: C_2  and  C_3
REMARK    3  A    between atoms: C_2  and  C_4
REMARK    4  A    between atoms: C_4  and  N_5
REMARK    5  A    between atoms: C_6  and  N_7
REMARK    6  A    between atoms: C_8  and  C_9
REMARK    7  A    between atoms: C_9  and  C_11
REMARK    8  A    between atoms: C_11  and  S_12
REMARK    9  A    between atoms: S_12  and  C_13
REMARK   10  A    between atoms: C_16  and  C_17
REMARK   11  A    between atoms: C_17  and  O_18
REMARK   12  A    between atoms: O_18  and  C_19
REMARK   13  A    between atoms: N_29  and  C_30
REMARK                            x       y       z     vdW  Elec       q    Type
REMARK                         _______ _______ _______ _____ _____    ______ ____
ROOT
ATOM      1  C   UNL     1       3.800   3.651  18.963  0.00  0.00    +0.000 C 
ATOM      2  O   UNL     1       4.071   2.497  19.320  0.00  0.00    +0.000 OA
ENDROOT
BRANCH   1   5
ATOM      3  N   UNL     1       5.726   5.311  16.160  0.00  0.00    +0.000 N 
ATOM      4  C   UNL     1       4.754   4.587  16.854  0.00  0.00    +0.000 A 
ATOM      5  C   UNL     1       4.848   4.450  18.202  0.00  0.00    +0.000 A 
ATOM      6  C   UNL     1       5.973   5.110  18.910  0.00  0.00    +0.000 A 
ATOM      7  O   UNL     1       6.064   5.032  20.133  0.00  0.00    +0.000 OA
ATOM      8  N   UNL     1       6.890   5.792  18.149  0.00  0.00    +0.000 N 
ATOM      9  C   UNL     1       8.020   6.442  18.794  0.00  0.00    +0.000 C 
ATOM     10  C   UNL     1       6.828   5.901  16.775  0.00  0.00    +0.000 A 
ATOM     11  O   UNL     1       7.704   6.489  16.141  0.00  0.00    +0.000 OA
BRANCH   4  12
ATOM     12  N   UNL     1       3.731   4.005  16.118  0.00  0.00    +0.000 N 
ATOM     13  H   UNL     1       3.578   3.025  16.327  0.00  0.00    +0.000 HD
ATOM     14  H   UNL     1       3.819   4.159  15.105  0.00  0.00    +0.000 HD
ENDBRANCH   4  12
BRANCH   3  15
ATOM     15  C   UNL     1       5.670   5.414  14.686  0.00  0.00    +0.000 C 
BRANCH  15  17
ATOM     16  C   UNL     1       5.588   3.488  13.001  0.00  0.00    +0.000 C 
ATOM     17  C   UNL     1       6.461   4.305  13.954  0.00  0.00    +0.000 C 
ATOM     18  C   UNL     1       7.623   4.925  13.171  0.00  0.00    +0.000 C 
ENDBRANCH  15  17
ENDBRANCH   3  15
ENDBRANCH   1   5
BRANCH   1  19
ATOM     19  C   UNL     1       2.417   4.256  19.222  0.00  0.00    +0.000 C 
BRANCH  19  20
ATOM     20  S   UNL     1       2.499   5.516  20.542  0.00  0.00    +0.000 S 
BRANCH  20  21
ATOM     21  C   UNL     1       2.288   6.980  19.638  0.00  0.00    +0.000 A 
ATOM     22  N   UNL     1       2.810   7.235  18.456  0.00  0.00    +0.000 NA
ATOM     23  N   UNL     1       2.330   8.472  18.065  0.00  0.00    +0.000 NA
ATOM     24  C   UNL     1       1.555   8.893  19.044  0.00  0.00    +0.000 A 
ATOM     25  O   UNL     1       1.485   7.997  20.080  0.00  0.00    +0.000 OA
BRANCH  24  26
ATOM     26  C   UNL     1       0.637  10.061  19.113  0.00  0.00    +0.000 C 
BRANCH  26  27
ATOM     27  O   UNL     1       0.990  10.861  20.243  0.00  0.00    +0.000 OA
BRANCH  27  28
ATOM     28  C   UNL     1      -0.030  11.200  21.102  0.00  0.00    +0.000 A 
ATOM     29  C   UNL     1      -0.750  12.335  20.691  0.00  0.00    +0.000 A 
ATOM     30  C   UNL     1      -1.787  12.860  21.471  0.00  0.00    +0.000 A 
ATOM     31  C   UNL     1      -2.120  12.259  22.678  0.00  0.00    +0.000 A 
ATOM     32  C   UNL     1      -1.408  11.141  23.106  0.00  0.00    +0.000 A 
ATOM     33  C   UNL     1      -0.360  10.616  22.337  0.00  0.00    +0.000 A 
ATOM     34 CL   UNL     1       0.489   9.307  23.078  0.00  0.00    +0.000 Cl
ENDBRANCH  27  28
ENDBRANCH  26  27
ENDBRANCH  24  26
ENDBRANCH  20  21
ENDBRANCH  19  20
ENDBRANCH   1  19
TORSDOF 10
ENDMDL
MODEL 3
REMARK VINA RESULT:      -7.4      1.948      3.188
REMARK  Name = 
REMARK  13 active torsions:
REMARK  status: ('A' for Active; 'I' for Inactive)
REMARK    1  A    between atoms: C_1  and  C_2
REMARK    2  A    between atoms: C_2  and  C_3
REMARK    3  A    between atoms: C_2  and  C_4
REMARK    4  A    between atoms: C_4  and  N_5
REMARK    5  A    between atoms: C_6  and  N_7
REMARK    6  A    between atoms: C_8  and  C_9
REMARK    7  A    between atoms: C_9  and  C_11
REMARK    8  A    between atoms: C_11  and  S_12
REMARK    9  A    between atoms: S_12  and  C_13
REMARK   10  A    between atoms: C_16  and  C_17
REMARK   11  A    between atoms: C_17  and  O_18
REMARK   12  A    between atoms: O_18  and  C_19
REMARK   13  A    between atoms: N_29  and  C_30
REMARK                            x       y       z     vdW  Elec       q    Type
REMARK                         _______ _______ _______ _____ _____    ______ ____
ROOT
ATOM      1  C   UNL     1       4.560   4.817  16.400  0.00  0.00    +0.000 C 
ATOM      2  O   UNL     1       4.486   5.711  15.547  0.00  0.00    +0.000 OA
ENDROOT
BRANCH   1   5
ATOM      3  N   UNL     1       2.474   5.742  19.419  0.00  0.00    +0.000 N 
ATOM      4  C   UNL     1       3.423   5.796  18.395  0.00  0.00    +0.000 A 
ATOM      5  C   UNL     1       3.520   4.772  17.509  0.00  0.00    +0.000 A 
ATOM      6  C   UNL     1       2.581   3.629  17.634  0.00  0.00    +0.000 A 
ATOM      7  O   UNL     1       2.622   2.705  16.824  0.00  0.00    +0.000 OA
ATOM      8  N   UNL     1       1.686   3.652  18.676  0.00  0.00    +0.000 N 
ATOM      9  C   UNL     1       0.757   2.548  18.850  0.00  0.00    +0.000 C 
ATOM     10  C   UNL     1       1.609   4.666  19.607  0.00  0.00    +0.000 A 
ATOM     11  O   UNL     1       0.816   4.612  20.547  0.00  0.00    +0.000 OA
BRANCH   4  12
ATOM     12  N   UNL     1       4.261   6.902  18.346  0.00  0.00    +0.000 N 
ATOM     13  H   UNL     1       4.311   7.342  17.434  0.00  0.00    +0.000 HD
ATOM     14  H   UNL     1       5.200   6.719  18.723  0.00  0.00    +0.000 HD
ENDBRANCH   4  12
BRANCH   3  15
ATOM     15  C   UNL     1       2.402   6.821  20.427  0.00  0.00    +0.000 C 
BRANCH  15  17
ATOM     16  C   UNL     1       0.785   8.489  21.504  0.00  0.00    +0.000 C 
ATOM     17  C   UNL     1       1.221   7.795  20.213  0.00  0.00    +0.000 C 
ATOM     18  C   UNL     1       1.601   8.854  19.173  0.00  0.00    +0.000 C 
ENDBRANCH  15  17
ENDBRANCH   3  15
ENDBRANCH   1   5
BRANCH   1  19
ATOM     19  C   UNL     1       5.639   3.733  16.320  0.00  0.00    +0.000 C 
BRANCH  19  20
ATOM     20  S   UNL     1       7.235   4.446  15.787  0.00  0.00    +0.000 S 
BRANCH  20  21
ATOM     21  C   UNL     1       7.488   5.668  16.991  0.00  0.00    +0.000 A 
ATOM     22  N   UNL     1       7.712   5.452  18.270  0.00  0.00    +0.000 NA
ATOM     23  N   UNL     1       7.935   6.687  18.851  0.00  0.00    +0.000 NA
ATOM     24  C   UNL     1       7.818   7.576  17.886  0.00  0.00    +0.000 A 
ATOM     25  O   UNL     1       7.530   6.999  16.675  0.00  0.00    +0.000 OA
BRANCH  24  26
ATOM     26  C   UNL     1       8.121   9.032  17.873  0.00  0.00    +0.000 C 
BRANCH  26  27
ATOM     27  O   UNL     1       8.874   9.357  19.042  0.00  0.00    +0.000 OA
BRANCH  27  28
ATOM     28  C   UNL     1       9.434  10.613  19.086  0.00  0.00    +0.000 A 
ATOM     29  C   UNL     1      10.129  10.955  17.914  0.00  0.00    +0.000 A 
ATOM     30  C   UNL     1      10.812  12.171  17.800  0.00  0.00    +0.000 A 
ATOM     31  C   UNL     1      10.812  13.068  18.861  0.00  0.00    +0.000 A 
ATOM     32  C   UNL     1      10.139  12.740  20.036  0.00  0.00    +0.000 A 
ATOM     33  C   UNL     1       9.463  11.517  20.162  0.00  0.00    +0.000 A 
ATOM     34 CL   UNL     1       8.791  11.227  21.726  0.00  0.00    +0.000 Cl
ENDBRANCH  27  28
ENDBRANCH  26  27
ENDBRANCH  24  26
ENDBRANCH  20  21
ENDBRANCH  19  20
ENDBRANCH   1  19
TORSDOF 10
ENDMDL
MODEL 4
REMARK VINA RESULT:      -7.4      4.501      7.745
REMARK  Name = 
REMARK  13 active torsions:
REMARK  status: ('A' for Active; 'I' for Inactive)
REMARK    1  A    between atoms: C_1  and  C_2
REMARK    2  A    between atoms: C_2  and  C_3
REMARK    3  A    between atoms: C_2  and  C_4
REMARK    4  A    between atoms: C_4  and  N_5
REMARK    5  A    between atoms: C_6  and  N_7
REMARK    6  A    between atoms: C_8  and  C_9
REMARK    7  A    between atoms: C_9  and  C_11
REMARK    8  A    between atoms: C_11  and  S_12
REMARK    9  A    between atoms: S_12  and  C_13
REMARK   10  A    between atoms: C_16  and  C_17
REMARK   11  A    between atoms: C_17  and  O_18
REMARK   12  A    between atoms: O_18  and  C_19
REMARK   13  A    between atoms: N_29  and  C_30
REMARK                            x       y       z     vdW  Elec       q    Type
REMARK                         _______ _______ _______ _____ _____    ______ ____
ROOT
ATOM      1  C   UNL     1       4.236   3.174  19.080  0.00  0.00    +0.000 C 
ATOM      2  O   UNL     1       4.121   2.009  18.675  0.00  0.00    +0.000 OA
ENDROOT
BRANCH   1   5
ATOM      3  N   UNL     1       5.801   5.188  16.285  0.00  0.00    +0.000 N 
ATOM      4  C   UNL     1       4.961   4.316  16.983  0.00  0.00    +0.000 A 
ATOM      5  C   UNL     1       5.137   4.132  18.317  0.00  0.00    +0.000 A 
ATOM      6  C   UNL     1       6.204   4.897  19.008  0.00  0.00    +0.000 A 
ATOM      7  O   UNL     1       6.363   4.778  20.221  0.00  0.00    +0.000 OA
ATOM      8  N   UNL     1       6.991   5.724  18.244  0.00  0.00    +0.000 N 
ATOM      9  C   UNL     1       8.060   6.483  18.872  0.00  0.00    +0.000 C 
ATOM     10  C   UNL     1       6.848   5.886  16.882  0.00  0.00    +0.000 A 
ATOM     11  O   UNL     1       7.612   6.607  16.241  0.00  0.00    +0.000 OA
BRANCH   4  12
ATOM     12  N   UNL     1       3.984   3.642  16.262  0.00  0.00    +0.000 N 
ATOM     13  H   UNL     1       4.033   3.791  15.261  0.00  0.00    +0.000 HD
ATOM     14  H   UNL     1       3.032   3.803  16.617  0.00  0.00    +0.000 HD
ENDBRANCH   4  12
BRANCH   3  15
ATOM     15  C   UNL     1       5.660   5.348  14.822  0.00  0.00    +0.000 C 
BRANCH  15  17
ATOM     16  C   UNL     1       5.648   3.542  13.007  0.00  0.00    +0.000 C 
ATOM     17  C   UNL     1       6.494   4.338  14.002  0.00  0.00    +0.000 C 
ATOM     18  C   UNL     1       7.607   5.071  13.247  0.00  0.00    +0.000 C 
ENDBRANCH  15  17
ENDBRANCH   3  15
ENDBRANCH   1   5
BRANCH   1  19
ATOM     19  C   UNL     1       3.444   3.672  20.293  0.00  0.00    +0.000 C 
BRANCH  19  20
ATOM     20  S   UNL     1       1.753   4.163  19.804  0.00  0.00    +0.000 S 
BRANCH  20  21
ATOM     21  C   UNL     1       1.850   5.891  19.911  0.00  0.00    +0.000 A 
ATOM     22  N   UNL     1       2.361   6.689  18.997  0.00  0.00    +0.000 NA
ATOM     23  N   UNL     1       2.167   7.984  19.444  0.00  0.00    +0.000 NA
ATOM     24  C   UNL     1       1.559   7.886  20.608  0.00  0.00    +0.000 A 
ATOM     25  O   UNL     1       1.329   6.583  20.971  0.00  0.00    +0.000 OA
BRANCH  24  26
ATOM     26  C   UNL     1       0.944   8.932  21.468  0.00  0.00    +0.000 C 
BRANCH  26  27
ATOM     27  O   UNL     1       1.010  10.186  20.787  0.00  0.00    +0.000 OA
BRANCH  27  28
ATOM     28  C   UNL     1      -0.110  10.982  20.849  0.00  0.00    +0.000 A 
ATOM     29  C   UNL     1      -0.394  11.446  22.144  0.00  0.00    +0.000 A 
ATOM     30  C   UNL     1      -1.529  12.222  22.406  0.00  0.00    +0.000 A 
ATOM     31  C   UNL     1      -2.402  12.546  21.376  0.00  0.00    +0.000 A 
ATOM     32  C   UNL     1      -2.143  12.082  20.088  0.00  0.00    +0.000 A 
ATOM     33  C   UNL     1      -1.015  11.294  19.819  0.00  0.00    +0.000 A 
ATOM     34 CL   UNL     1      -0.919  10.707  18.197  0.00  0.00    +0.000 Cl
ENDBRANCH  27  28
ENDBRANCH  26  27
ENDBRANCH  24  26
ENDBRANCH  20  21
ENDBRANCH  19  20
ENDBRANCH   1  19
TORSDOF 10
ENDMDL
MODEL 5
REMARK VINA RESULT:      -7.2      4.417      8.514
REMARK  Name = 
REMARK  13 active torsions:
REMARK  status: ('A' for Active; 'I' for Inactive)
REMARK    1  A    between atoms: C_1  and  C_2
REMARK    2  A    between atoms: C_2  and  C_3
REMARK    3  A    between atoms: C_2  and  C_4
REMARK    4  A    between atoms: C_4  and  N_5
REMARK    5  A    between atoms: C_6  and  N_7
REMARK    6  A    between atoms: C_8  and  C_9
REMARK    7  A    between atoms: C_9  and  C_11
REMARK    8  A    between atoms: C_11  and  S_12
REMARK    9  A    between atoms: S_12  and  C_13
REMARK   10  A    between atoms: C_16  and  C_17
REMARK   11  A    between atoms: C_17  and  O_18
REMARK   12  A    between atoms: O_18  and  C_19
REMARK   13  A    between atoms: N_29  and  C_30
REMARK                            x       y       z     vdW  Elec       q    Type
REMARK                         _______ _______ _______ _____ _____    ______ ____
ROOT
ATOM      1  C   UNL     1       3.454   4.129  18.731  0.00  0.00    +0.000 C 
ATOM      2  O   UNL     1       3.531   3.086  19.394  0.00  0.00    +0.000 OA
ENDROOT
BRANCH   1   5
ATOM      3  N   UNL     1       6.727   5.531  17.450  0.00  0.00    +0.000 N 
ATOM      4  C   UNL     1       5.677   5.179  18.302  0.00  0.00    +0.000 A 
ATOM      5  C   UNL     1       4.607   4.502  17.812  0.00  0.00    +0.000 A 
ATOM      6  C   UNL     1       4.600   4.119  16.378  0.00  0.00    +0.000 A 
ATOM      7  O   UNL     1       3.661   3.475  15.915  0.00  0.00    +0.000 OA
ATOM      8  N   UNL     1       5.668   4.515  15.609  0.00  0.00    +0.000 N 
ATOM      9  C   UNL     1       5.700   4.178  14.195  0.00  0.00    +0.000 C 
ATOM     10  C   UNL     1       6.739   5.240  16.087  0.00  0.00    +0.000 A 
ATOM     11  O   UNL     1       7.647   5.605  15.341  0.00  0.00    +0.000 OA
BRANCH   4  12
ATOM     12  N   UNL     1       5.763   5.572  19.631  0.00  0.00    +0.000 N 
ATOM     13  H   UNL     1       4.873   5.826  20.045  0.00  0.00    +0.000 HD
ATOM     14  H   UNL     1       6.471   6.299  19.797  0.00  0.00    +0.000 HD
ENDBRANCH   4  12
BRANCH   3  15
ATOM     15  C   UNL     1       7.867   6.323  17.958  0.00  0.00    +0.000 C 
BRANCH  15  17
ATOM     16  C   UNL     1       6.401   8.335  17.359  0.00  0.00    +0.000 C 
ATOM     17  C   UNL     1       7.826   7.811  17.540  0.00  0.00    +0.000 C 
ATOM     18  C   UNL     1       8.551   8.666  18.584  0.00  0.00    +0.000 C 
ENDBRANCH  15  17
ENDBRANCH   3  15
ENDBRANCH   1   5
BRANCH   1  19
ATOM     19  C   UNL     1       2.199   5.006  18.778  0.00  0.00    +0.000 C 
BRANCH  19  20
ATOM     20  S   UNL     1       2.355   6.290  20.068  0.00  0.00    +0.000 S 
BRANCH  20  21
ATOM     21  C   UNL     1       2.101   7.737  19.149  0.00  0.00    +0.000 A 
ATOM     22  N   UNL     1       2.593   7.984  17.953  0.00  0.00    +0.000 NA
ATOM     23  N   UNL     1       2.084   9.208  17.556  0.00  0.00    +0.000 NA
ATOM     24  C   UNL     1       1.324   9.630  18.546  0.00  0.00    +0.000 A 
ATOM     25  O   UNL     1       1.291   8.747  19.595  0.00  0.00    +0.000 OA
BRANCH  24  26
ATOM     26  C   UNL     1       0.389  10.784  18.619  0.00  0.00    +0.000 C 
BRANCH  26  27
ATOM     27  O   UNL     1      -0.887  10.317  19.062  0.00  0.00    +0.000 OA
BRANCH  27  28
ATOM     28  C   UNL     1      -1.952  10.543  18.223  0.00  0.00    +0.000 A 
ATOM     29  C   UNL     1      -1.858   9.851  17.003  0.00  0.00    +0.000 A 
ATOM     30  C   UNL     1      -2.824  10.004  16.002  0.00  0.00    +0.000 A 
ATOM     31  C   UNL     1      -3.902  10.856  16.204  0.00  0.00    +0.000 A 
ATOM     32  C   UNL     1      -4.005  11.560  17.401  0.00  0.00    +0.000 A 
ATOM     33  C   UNL     1      -3.035  11.422  18.404  0.00  0.00    +0.000 A 
ATOM     34 CL   UNL     1      -3.257  12.460  19.767  0.00  0.00    +0.000 Cl
ENDBRANCH  27  28
ENDBRANCH  26  27
ENDBRANCH  24  26
ENDBRANCH  20  21
ENDBRANCH  19  20
ENDBRANCH   1  19
TORSDOF 10
ENDMDL
MODEL 6
REMARK VINA RESULT:      -7.2      4.883      8.505
REMARK  Name = 
REMARK  13 active torsions:
REMARK  status: ('A' for Active; 'I' for Inactive)
REMARK    1  A    between atoms: C_1  and  C_2
REMARK    2  A    between atoms: C_2  and  C_3
REMARK    3  A    between atoms: C_2  and  C_4
REMARK    4  A    between atoms: C_4  and  N_5
REMARK    5  A    between atoms: C_6  and  N_7
REMARK    6  A    between atoms: C_8  and  C_9
REMARK    7  A    between atoms: C_9  and  C_11
REMARK    8  A    between atoms: C_11  and  S_12
REMARK    9  A    between atoms: S_12  and  C_13
REMARK   10  A    between atoms: C_16  and  C_17
REMARK   11  A    between atoms: C_17  and  O_18
REMARK   12  A    between atoms: O_18  and  C_19
REMARK   13  A    between atoms: N_29  and  C_30
REMARK                            x       y       z     vdW  Elec       q    Type
REMARK                         _______ _______ _______ _____ _____    ______ ____
ROOT
ATOM      1  C   UNL     1       0.620  10.142  18.389  0.00  0.00    +0.000 C 
ATOM      2  O   UNL     1      -0.398  10.040  17.692  0.00  0.00    +0.000 OA
ENDROOT
BRANCH   1   5
ATOM      3  N   UNL     1       1.911  13.454  19.686  0.00  0.00    +0.000 N 
ATOM      4  C   UNL     1       1.735  12.318  18.893  0.00  0.00    +0.000 A 
ATOM      5  C   UNL     1       0.807  11.388  19.240  0.00  0.00    +0.000 A 
ATOM      6  C   UNL     1      -0.026  11.627  20.445  0.00  0.00    +0.000 A 
ATOM      7  O   UNL     1      -0.897  10.821  20.763  0.00  0.00    +0.000 OA
ATOM      8  N   UNL     1       0.221  12.766  21.174  0.00  0.00    +0.000 N 
ATOM      9  C   UNL     1      -0.557  13.036  22.371  0.00  0.00    +0.000 C 
ATOM     10  C   UNL     1       1.190  13.694  20.854  0.00  0.00    +0.000 A 
ATOM     11  O   UNL     1       1.396  14.674  21.569  0.00  0.00    +0.000 OA
BRANCH   4  12
ATOM     12  N   UNL     1       2.552  12.172  17.780  0.00  0.00    +0.000 N 
ATOM     13  H   UNL     1       2.183  11.542  17.077  0.00  0.00    +0.000 HD
ATOM     14  H   UNL     1       3.525  11.936  18.017  0.00  0.00    +0.000 HD
ENDBRANCH   4  12
BRANCH   3  15
ATOM     15  C   UNL     1       2.961  14.441  19.354  0.00  0.00    +0.000 C 
BRANCH  15  17
ATOM     16  C   UNL     1       2.340  16.909  19.068  0.00  0.00    +0.000 C 
ATOM     17  C   UNL     1       2.489  15.549  18.385  0.00  0.00    +0.000 C 
ATOM     18  C   UNL     1       3.473  15.674  17.217  0.00  0.00    +0.000 C 
ENDBRANCH  15  17
ENDBRANCH   3  15
ENDBRANCH   1   5
BRANCH   1  19
ATOM     19  C   UNL     1       1.653   9.012  18.451  0.00  0.00    +0.000 C 
BRANCH  19  20
ATOM     20  S   UNL     1       1.658   8.229  20.101  0.00  0.00    +0.000 S 
BRANCH  20  21
ATOM     21  C   UNL     1       2.203   6.627  19.723  0.00  0.00    +0.000 A 
ATOM     22  N   UNL     1       2.031   5.560  20.475  0.00  0.00    +0.000 NA
ATOM     23  N   UNL     1       2.545   4.487  19.769  0.00  0.00    +0.000 NA
ATOM     24  C   UNL     1       3.008   4.977  18.638  0.00  0.00    +0.000 A 
ATOM     25  O   UNL     1       2.828   6.333  18.542  0.00  0.00    +0.000 OA
BRANCH  24  26
ATOM     26  C   UNL     1       3.508   4.286  17.419  0.00  0.00    +0.000 C 
BRANCH  26  27
ATOM     27  O   UNL     1       4.838   3.824  17.663  0.00  0.00    +0.000 OA
BRANCH  27  28
ATOM     28  C   UNL     1       5.819   4.785  17.745  0.00  0.00    +0.000 A 
ATOM     29  C   UNL     1       6.459   4.822  18.995  0.00  0.00    +0.000 A 
ATOM     30  C   UNL     1       7.445   5.774  19.279  0.00  0.00    +0.000 A 
ATOM     31  C   UNL     1       7.807   6.708  18.317  0.00  0.00    +0.000 A 
ATOM     32  C   UNL     1       7.173   6.693  17.077  0.00  0.00    +0.000 A 
ATOM     33  C   UNL     1       6.175   5.751  16.788  0.00  0.00    +0.000 A 
ATOM     34 CL   UNL     1       5.414   5.958  15.251  0.00  0.00    +0.000 Cl
ENDBRANCH  27  28
ENDBRANCH  26  27
ENDBRANCH  24  26
ENDBRANCH  20  21
ENDBRANCH  19  20
ENDBRANCH   1  19
TORSDOF 10
ENDMDL
MODEL 7
REMARK VINA RESULT:      -7.1      4.547      7.289
REMARK  Name = 
REMARK  13 active torsions:
REMARK  status: ('A' for Active; 'I' for Inactive)
REMARK    1  A    between atoms: C_1  and  C_2
REMARK    2  A    between atoms: C_2  and  C_3
REMARK    3  A    between atoms: C_2  and  C_4
REMARK    4  A    between atoms: C_4  and  N_5
REMARK    5  A    between atoms: C_6  and  N_7
REMARK    6  A    between atoms: C_8  and  C_9
REMARK    7  A    between atoms: C_9  and  C_11
REMARK    8  A    between atoms: C_11  and  S_12
REMARK    9  A    between atoms: S_12  and  C_13
REMARK   10  A    between atoms: C_16  and  C_17
REMARK   11  A    between atoms: C_17  and  O_18
REMARK   12  A    between atoms: O_18  and  C_19
REMARK   13  A    between atoms: N_29  and  C_30
REMARK                            x       y       z     vdW  Elec       q    Type
REMARK                         _______ _______ _______ _____ _____    ______ ____
ROOT
ATOM      1  C   UNL     1       4.405   3.331  19.315  0.00  0.00    +0.000 C 
ATOM      2  O   UNL     1       4.428   2.116  19.081  0.00  0.00    +0.000 OA
ENDROOT
BRANCH   1   5
ATOM      3  N   UNL     1       5.827   5.239  16.373  0.00  0.00    +0.000 N 
ATOM      4  C   UNL     1       5.023   4.395  17.143  0.00  0.00    +0.000 A 
ATOM      5  C   UNL     1       5.266   4.259  18.473  0.00  0.00    +0.000 A 
ATOM      6  C   UNL     1       6.367   5.048  19.081  0.00  0.00    +0.000 A 
ATOM      7  O   UNL     1       6.586   4.973  20.289  0.00  0.00    +0.000 OA
ATOM      8  N   UNL     1       7.114   5.845  18.249  0.00  0.00    +0.000 N 
ATOM      9  C   UNL     1       8.213   6.624  18.794  0.00  0.00    +0.000 C 
ATOM     10  C   UNL     1       6.903   5.956  16.890  0.00  0.00    +0.000 A 
ATOM     11  O   UNL     1       7.634   6.653  16.186  0.00  0.00    +0.000 OA
BRANCH   4  12
ATOM     12  N   UNL     1       4.012   3.696  16.498  0.00  0.00    +0.000 N 
ATOM     13  H   UNL     1       4.307   2.807  16.110  0.00  0.00    +0.000 HD
ATOM     14  H   UNL     1       3.510   4.259  15.799  0.00  0.00    +0.000 HD
ENDBRANCH   4  12
BRANCH   3  15
ATOM     15  C   UNL     1       5.613   5.346  14.914  0.00  0.00    +0.000 C 
BRANCH  15  17
ATOM     16  C   UNL     1       5.561   3.526  13.113  0.00  0.00    +0.000 C 
ATOM     17  C   UNL     1       6.428   4.323  14.089  0.00  0.00    +0.000 C 
ATOM     18  C   UNL     1       7.534   5.043  13.312  0.00  0.00    +0.000 C 
ENDBRANCH  15  17
ENDBRANCH   3  15
ENDBRANCH   1   5
BRANCH   1  19
ATOM     19  C   UNL     1       3.483   3.912  20.392  0.00  0.00    +0.000 C 
BRANCH  19  20
ATOM     20  S   UNL     1       1.840   4.304  19.696  0.00  0.00    +0.000 S 
BRANCH  20  21
ATOM     21  C   UNL     1       2.035   5.971  19.265  0.00  0.00    +0.000 A 
ATOM     22  N   UNL     1       2.549   6.419  18.139  0.00  0.00    +0.000 NA
ATOM     23  N   UNL     1       2.444   7.798  18.171  0.00  0.00    +0.000 NA
ATOM     24  C   UNL     1       1.882   8.098  19.324  0.00  0.00    +0.000 A 
ATOM     25  O   UNL     1       1.598   6.986  20.074  0.00  0.00    +0.000 OA
BRANCH  24  26
ATOM     26  C   UNL     1       1.362   9.394  19.836  0.00  0.00    +0.000 C 
BRANCH  26  27
ATOM     27  O   UNL     1       0.451   9.937  18.879  0.00  0.00    +0.000 OA
BRANCH  27  28
ATOM     28  C   UNL     1       0.401  11.308  18.783  0.00  0.00    +0.000 A 
ATOM     29  C   UNL     1       1.667  11.917  18.816  0.00  0.00    +0.000 A 
ATOM     30  C   UNL     1       1.806  13.309  18.787  0.00  0.00    +0.000 A 
ATOM     31  C   UNL     1       0.679  14.118  18.727  0.00  0.00    +0.000 A 
ATOM     32  C   UNL     1      -0.585  13.532  18.707  0.00  0.00    +0.000 A 
ATOM     33  C   UNL     1      -0.733  12.138  18.748  0.00  0.00    +0.000 A 
ATOM     34 CL   UNL     1      -2.370  11.593  18.840  0.00  0.00    +0.000 Cl
ENDBRANCH  27  28
ENDBRANCH  26  27
ENDBRANCH  24  26
ENDBRANCH  20  21
ENDBRANCH  19  20
ENDBRANCH   1  19
TORSDOF 10
ENDMDL
MODEL 8
REMARK VINA RESULT:      -7.1      5.051      8.140
REMARK  Name = 
REMARK  13 active torsions:
REMARK  status: ('A' for Active; 'I' for Inactive)
REMARK    1  A    between atoms: C_1  and  C_2
REMARK    2  A    between atoms: C_2  and  C_3
REMARK    3  A    between atoms: C_2  and  C_4
REMARK    4  A    between atoms: C_4  and  N_5
REMARK    5  A    between atoms: C_6  and  N_7
REMARK    6  A    between atoms: C_8  and  C_9
REMARK    7  A    between atoms: C_9  and  C_11
REMARK    8  A    between atoms: C_11  and  S_12
REMARK    9  A    between atoms: S_12  and  C_13
REMARK   10  A    between atoms: C_16  and  C_17
REMARK   11  A    between atoms: C_17  and  O_18
REMARK   12  A    between atoms: O_18  and  C_19
REMARK   13  A    between atoms: N_29  and  C_30
REMARK                            x       y       z     vdW  Elec       q    Type
REMARK                         _______ _______ _______ _____ _____    ______ ____
ROOT
ATOM      1  C   UNL     1       1.305  10.134  18.359  0.00  0.00    +0.000 C 
ATOM      2  O   UNL     1       2.225  10.856  17.952  0.00  0.00    +0.000 OA
ENDROOT
BRANCH   1   5
ATOM      3  N   UNL     1      -1.282  12.186  20.207  0.00  0.00    +0.000 N 
ATOM      4  C   UNL     1      -0.066  11.607  19.836  0.00  0.00    +0.000 A 
ATOM      5  C   UNL     1      -0.012  10.779  18.761  0.00  0.00    +0.000 A 
ATOM      6  C   UNL     1      -1.252  10.540  17.982  0.00  0.00    +0.000 A 
ATOM      7  O   UNL     1      -1.226   9.824  16.983  0.00  0.00    +0.000 OA
ATOM      8  N   UNL     1      -2.407  11.141  18.423  0.00  0.00    +0.000 N 
ATOM      9  C   UNL     1      -3.651  10.924  17.703  0.00  0.00    +0.000 C 
ATOM     10  C   UNL     1      -2.481  11.948  19.539  0.00  0.00    +0.000 A 
ATOM     11  O   UNL     1      -3.552  12.424  19.913  0.00  0.00    +0.000 OA
BRANCH   4  12
ATOM     12  N   UNL     1       1.049  11.885  20.616  0.00  0.00    +0.000 N 
ATOM     13  H   UNL     1       0.832  12.120  21.578  0.00  0.00    +0.000 HD
ATOM     14  H   UNL     1       1.676  12.583  20.195  0.00  0.00    +0.000 HD
ENDBRANCH   4  12
BRANCH   3  15
ATOM     15  C   UNL     1      -1.366  13.038  21.413  0.00  0.00    +0.000 C 
BRANCH  15  17
ATOM     16  C   UNL     1      -1.398  11.193  23.188  0.00  0.00    +0.000 C 
ATOM     17  C   UNL     1      -2.138  12.386  22.583  0.00  0.00    +0.000 C 
ATOM     18  C   UNL     1      -2.403  13.425  23.676  0.00  0.00    +0.000 C 
ENDBRANCH  15  17
ENDBRANCH   3  15
ENDBRANCH   1   5
BRANCH   1  19
ATOM     19  C   UNL     1       1.456   8.611  18.406  0.00  0.00    +0.000 C 
BRANCH  19  20
ATOM     20  S   UNL     1       1.699   8.037  20.124  0.00  0.00    +0.000 S 
BRANCH  20  21
ATOM     21  C   UNL     1       2.189   6.393  19.874  0.00  0.00    +0.000 A 
ATOM     22  N   UNL     1       2.071   5.415  20.748  0.00  0.00    +0.000 NA
ATOM     23  N   UNL     1       2.508   4.263  20.120  0.00  0.00    +0.000 NA
ATOM     24  C   UNL     1       2.876   4.621  18.907  0.00  0.00    +0.000 A 
ATOM     25  O   UNL     1       2.705   5.963  18.682  0.00  0.00    +0.000 OA
BRANCH  24  26
ATOM     26  C   UNL     1       3.259   3.794  17.731  0.00  0.00    +0.000 C 
BRANCH  26  27
ATOM     27  O   UNL     1       4.612   3.364  17.889  0.00  0.00    +0.000 OA
BRANCH  27  28
ATOM     28  C   UNL     1       5.582   4.335  17.799  0.00  0.00    +0.000 A 
ATOM     29  C   UNL     1       6.096   4.729  19.046  0.00  0.00    +0.000 A 
ATOM     30  C   UNL     1       7.051   5.747  19.152  0.00  0.00    +0.000 A 
ATOM     31  C   UNL     1       7.507   6.391  18.009  0.00  0.00    +0.000 A 
ATOM     32  C   UNL     1       7.000   6.023  16.766  0.00  0.00    +0.000 A 
ATOM     33  C   UNL     1       6.034   5.012  16.652  0.00  0.00    +0.000 A 
ATOM     34 CL   UNL     1       5.430   4.773  15.052  0.00  0.00    +0.000 Cl
ENDBRANCH  27  28
ENDBRANCH  26  27
ENDBRANCH  24  26
ENDBRANCH  20  21
ENDBRANCH  19  20
ENDBRANCH   1  19
TORSDOF 10
ENDMDL
MODEL 9
REMARK VINA RESULT:      -7.1      6.059      9.981
REMARK  Name = 
REMARK  13 active torsions:
REMARK  status: ('A' for Active; 'I' for Inactive)
REMARK    1  A    between atoms: C_1  and  C_2
REMARK    2  A    between atoms: C_2  and  C_3
REMARK    3  A    between atoms: C_2  and  C_4
REMARK    4  A    between atoms: C_4  and  N_5
REMARK    5  A    between atoms: C_6  and  N_7
REMARK    6  A    between atoms: C_8  and  C_9
REMARK    7  A    between atoms: C_9  and  C_11
REMARK    8  A    between atoms: C_11  and  S_12
REMARK    9  A    between atoms: S_12  and  C_13
REMARK   10  A    between atoms: C_16  and  C_17
REMARK   11  A    between atoms: C_17  and  O_18
REMARK   12  A    between atoms: O_18  and  C_19
REMARK   13  A    between atoms: N_29  and  C_30
REMARK                            x       y       z     vdW  Elec       q    Type
REMARK                         _______ _______ _______ _____ _____    ______ ____
ROOT
ATOM      1  C   UNL     1      -0.012  13.448  20.522  0.00  0.00    +0.000 C 
ATOM      2  O   UNL     1       0.209  14.661  20.645  0.00  0.00    +0.000 OA
ENDROOT
BRANCH   1   5
ATOM      3  N   UNL     1      -2.942  12.128  18.524  0.00  0.00    +0.000 N 
ATOM      4  C   UNL     1      -1.653  12.533  18.878  0.00  0.00    +0.000 A 
ATOM      5  C   UNL     1      -1.409  12.991  20.133  0.00  0.00    +0.000 A 
ATOM      6  C   UNL     1      -2.524  13.014  21.113  0.00  0.00    +0.000 A 
ATOM      7  O   UNL     1      -2.325  13.389  22.267  0.00  0.00    +0.000 OA
ATOM      8  N   UNL     1      -3.762  12.607  20.678  0.00  0.00    +0.000 N 
ATOM      9  C   UNL     1      -4.889  12.626  21.596  0.00  0.00    +0.000 C 
ATOM     10  C   UNL     1      -4.029  12.181  19.394  0.00  0.00    +0.000 A 
ATOM     11  O   UNL     1      -5.168  11.871  19.048  0.00  0.00    +0.000 OA
BRANCH   4  12
ATOM     12  N   UNL     1      -0.665  12.478  17.904  0.00  0.00    +0.000 N 
ATOM     13  H   UNL     1      -0.600  13.313  17.333  0.00  0.00    +0.000 HD
ATOM     14  H   UNL     1      -0.716  11.632  17.320  0.00  0.00    +0.000 HD
ENDBRANCH   4  12
BRANCH   3  15
ATOM     15  C   UNL     1      -3.233  11.688  17.143  0.00  0.00    +0.000 C 
BRANCH  15  17
ATOM     16  C   UNL     1      -3.491   9.197  17.676  0.00  0.00    +0.000 C 
ATOM     17  C   UNL     1      -2.763  10.247  16.836  0.00  0.00    +0.000 C 
ATOM     18  C   UNL     1      -2.966   9.938  15.350  0.00  0.00    +0.000 C 
ENDBRANCH  15  17
ENDBRANCH   3  15
ENDBRANCH   1   5
BRANCH   1  19
ATOM     19  C   UNL     1       1.109  12.419  20.694  0.00  0.00    +0.000 C 
BRANCH  19  20
ATOM     20  S   UNL     1       0.419  10.737  20.883  0.00  0.00    +0.000 S 
BRANCH  20  21
ATOM     21  C   UNL     1       1.128   9.918  19.529  0.00  0.00    +0.000 A 
ATOM     22  N   UNL     1       1.378  10.453  18.353  0.00  0.00    +0.000 NA
ATOM     23  N   UNL     1       2.012   9.482  17.598  0.00  0.00    +0.000 NA
ATOM     24  C   UNL     1       2.095   8.414  18.366  0.00  0.00    +0.000 A 
ATOM     25  O   UNL     1       1.549   8.618  19.607  0.00  0.00    +0.000 OA
BRANCH  24  26
ATOM     26  C   UNL     1       2.825   7.135  18.163  0.00  0.00    +0.000 C 
BRANCH  26  27
ATOM     27  O   UNL     1       2.876   6.430  19.404  0.00  0.00    +0.000 OA
BRANCH  27  28
ATOM     28  C   UNL     1       2.408   5.136  19.400  0.00  0.00    +0.000 A 
ATOM     29  C   UNL     1       1.567   4.843  20.486  0.00  0.00    +0.000 A 
ATOM     30  C   UNL     1       1.044   3.559  20.676  0.00  0.00    +0.000 A 
ATOM     31  C   UNL     1       1.355   2.544  19.781  0.00  0.00    +0.000 A 
ATOM     32  C   UNL     1       2.198   2.813  18.705  0.00  0.00    +0.000 A 
ATOM     33  C   UNL     1       2.736   4.094  18.515  0.00  0.00    +0.000 A 
ATOM     34 CL   UNL     1       3.855   4.215  17.204  0.00  0.00    +0.000 Cl
ENDBRANCH  27  28
ENDBRANCH  26  27
ENDBRANCH  24  26
ENDBRANCH  20  21
ENDBRANCH  19  20
ENDBRANCH   1  19
TORSDOF 10
ENDMDL
