MODEL 1
REMARK VINA RESULT:      -7.3      0.000      0.000
REMARK  Name = 
REMARK  13 active torsions:
REMARK  status: ('A' for Active; 'I' for Inactive)
REMARK    1  A    between atoms: C_1  and  C_2
REMARK    2  A    between atoms: C_2  and  C_3
REMARK    3  A    between atoms: C_3  and  C_4
REMARK    4  A    between atoms: C_4  and  C_5
REMARK    5  A    between atoms: C_5  and  C_6
REMARK    6  A    between atoms: C_6  and  C_7
REMARK    7  A    between atoms: C_7  and  C_8
REMARK    8  A    between atoms: C_7  and  C_9
REMARK    9  A    between atoms: C_7  and  C_10
REMARK   10  A    between atoms: C_12  and  O_13
REMARK   11  A    between atoms: C_18  and  C_19
REMARK   12  A    between atoms: C_18  and  C_20
REMARK   13  A    between atoms: N_24  and  C_25
REMARK                            x       y       z     vdW  Elec       q    Type
REMARK                         _______ _______ _______ _____ _____    ______ ____
ROOT
ATOM      1  C   UNL     1       1.557   8.517  19.453  0.00  0.00    +0.000 A 
ATOM      2  C   UNL     1       2.351   8.311  18.319  0.00  0.00    +0.000 A 
ATOM      3  C   UNL     1       2.805   7.033  17.958  0.00  0.00    +0.000 A 
ATOM      4  C   UNL     1       2.616   5.921  18.780  0.00  0.00    +0.000 A 
ATOM      5  C   UNL     1       1.757   6.116  19.884  0.00  0.00    +0.000 A 
ATOM      6  C   UNL     1       1.239   7.382  20.204  0.00  0.00    +0.000 A 
ATOM      7  O   UNL     1       1.313   5.140  20.744  0.00  0.00    +0.000 OA
ATOM      8  C   UNL     1       1.752   3.770  20.590  0.00  0.00    +0.000 C 
ATOM      9  C   UNL     1       2.359   3.409  21.957  0.00  0.00    +0.000 C 
ATOM     10  C   UNL     1       0.490   2.928  20.356  0.00  0.00    +0.000 C 
ATOM     11  C   UNL     1       2.746   3.566  19.498  0.00  0.00    +0.000 A 
ATOM     12  C   UNL     1       3.391   2.397  19.088  0.00  0.00    +0.000 A 
ATOM     13  N   UNL     1       4.228   2.627  18.085  0.00  0.00    +0.000 NA
ATOM     14  N   UNL     1       4.140   3.960  17.820  0.00  0.00    +0.000 N 
ATOM     15  C   UNL     1       3.187   4.566  18.650  0.00  0.00    +0.000 A 
ENDROOT
BRANCH  14  16
ATOM     16  C   UNL     1       5.073   4.496  16.881  0.00  0.00    +0.000 A 
ATOM     17  C   UNL     1       4.856   4.310  15.507  0.00  0.00    +0.000 A 
ATOM     18  C   UNL     1       5.850   4.647  14.581  0.00  0.00    +0.000 A 
ATOM     19  C   UNL     1       7.015   5.265  15.015  0.00  0.00    +0.000 A 
ATOM     20 CL   UNL     1       8.272   5.609  13.892  0.00  0.00    +0.000 Cl
ATOM     21  C   UNL     1       7.182   5.586  16.357  0.00  0.00    +0.000 A 
ATOM     22  C   UNL     1       6.217   5.203  17.299  0.00  0.00    +0.000 A 
ATOM     23 CL   UNL     1       6.625   5.572  18.943  0.00  0.00    +0.000 Cl
ENDBRANCH  14  16
BRANCH   1  24
ATOM     24  C   UNL     1       1.065   9.926  19.820  0.00  0.00    +0.000 C 
ATOM     25  C   UNL     1       1.774  11.047  19.022  0.00  0.00    +0.000 C 
ATOM     26  C   UNL     1       1.380  10.196  21.313  0.00  0.00    +0.000 C 
BRANCH  24  27
ATOM     27  C   UNL     1      -0.479  10.033  19.616  0.00  0.00    +0.000 C 
BRANCH  27  28
ATOM     28  C   UNL     1      -0.908  10.160  18.148  0.00  0.00    +0.000 C 
BRANCH  28  29
ATOM     29  C   UNL     1      -1.728  11.422  17.884  0.00  0.00    +0.000 C 
BRANCH  29  30
ATOM     30  C   UNL     1      -2.938  11.072  17.015  0.00  0.00    +0.000 C 
BRANCH  30  32
ATOM     31  C   UNL     1      -3.027  10.142  14.694  0.00  0.00    +0.000 C 
ATOM     32  C   UNL     1      -2.689   9.842  16.150  0.00  0.00    +0.000 C 
ENDBRANCH  30  32
ENDBRANCH  29  30
ENDBRANCH  28  29
ENDBRANCH  27  28
ENDBRANCH  24  27
ENDBRANCH   1  24
BRANCH   3  33
ATOM     33  O   UNL     1       3.372   6.921  16.722  0.00  0.00    +0.000 OA
ATOM     34  H   UNL     1       3.863   6.082  16.677  0.00  0.00    +0.000 HD
ENDBRANCH   3  33
TORSDOF 8
ENDMDL
MODEL 2
REMARK VINA RESULT:      -6.9      1.966      2.754
REMARK  Name = 
REMARK  13 active torsions:
REMARK  status: ('A' for Active; 'I' for Inactive)
REMARK    1  A    between atoms: C_1  and  C_2
REMARK    2  A    between atoms: C_2  and  C_3
REMARK    3  A    between atoms: C_3  and  C_4
REMARK    4  A    between atoms: C_4  and  C_5
REMARK    5  A    between atoms: C_5  and  C_6
REMARK    6  A    between atoms: C_6  and  C_7
REMARK    7  A    between atoms: C_7  and  C_8
REMARK    8  A    between atoms: C_7  and  C_9
REMARK    9  A    between atoms: C_7  and  C_10
REMARK   10  A    between atoms: C_12  and  O_13
REMARK   11  A    between atoms: C_18  and  C_19
REMARK   12  A    between atoms: C_18  and  C_20
REMARK   13  A    between atoms: N_24  and  C_25
REMARK                            x       y       z     vdW  Elec       q    Type
REMARK                         _______ _______ _______ _____ _____    ______ ____
ROOT
ATOM      1  C   UNL     1       1.600   7.834  20.206  0.00  0.00    +0.000 A 
ATOM      2  C   UNL     1       2.363   7.809  19.032  0.00  0.00    +0.000 A 
ATOM      3  C   UNL     1       2.780   6.602  18.449  0.00  0.00    +0.000 A 
ATOM      4  C   UNL     1       2.587   5.371  19.077  0.00  0.00    +0.000 A 
ATOM      5  C   UNL     1       1.758   5.391  20.221  0.00  0.00    +0.000 A 
ATOM      6  C   UNL     1       1.275   6.594  20.763  0.00  0.00    +0.000 A 
ATOM      7  O   UNL     1       1.313   4.292  20.915  0.00  0.00    +0.000 OA
ATOM      8  C   UNL     1       1.719   2.960  20.521  0.00  0.00    +0.000 C 
ATOM      9  C   UNL     1       2.349   2.363  21.790  0.00  0.00    +0.000 C 
ATOM     10  C   UNL     1       0.433   2.192  20.182  0.00  0.00    +0.000 C 
ATOM     11  C   UNL     1       2.682   2.927  19.384  0.00  0.00    +0.000 A 
ATOM     12  C   UNL     1       3.291   1.833  18.765  0.00  0.00    +0.000 A 
ATOM     13  N   UNL     1       4.109   2.214  17.793  0.00  0.00    +0.000 NA
ATOM     14  N   UNL     1       4.044   3.575  17.759  0.00  0.00    +0.000 N 
ATOM     15  C   UNL     1       3.124   4.048  18.705  0.00  0.00    +0.000 A 
ENDROOT
BRANCH  14  16
ATOM     16  C   UNL     1       4.966   4.244  16.899  0.00  0.00    +0.000 A 
ATOM     17  C   UNL     1       4.798   4.165  15.508  0.00  0.00    +0.000 A 
ATOM     18  C   UNL     1       5.793   4.640  14.646  0.00  0.00    +0.000 A 
ATOM     19  C   UNL     1       6.905   5.288  15.168  0.00  0.00    +0.000 A 
ATOM     20 CL   UNL     1       8.167   5.804  14.119  0.00  0.00    +0.000 Cl
ATOM     21  C   UNL     1       7.015   5.503  16.537  0.00  0.00    +0.000 A 
ATOM     22  C   UNL     1       6.051   4.982  17.412  0.00  0.00    +0.000 A 
ATOM     23 CL   UNL     1       6.390   5.232  19.093  0.00  0.00    +0.000 Cl
ENDBRANCH  14  16
BRANCH   1  24
ATOM     24  C   UNL     1       1.148   9.169  20.818  0.00  0.00    +0.000 C 
ATOM     25  C   UNL     1       1.045  10.313  19.781  0.00  0.00    +0.000 C 
ATOM     26  C   UNL     1       2.201   9.627  21.860  0.00  0.00    +0.000 C 
BRANCH  24  27
ATOM     27  C   UNL     1      -0.222   8.997  21.547  0.00  0.00    +0.000 C 
BRANCH  27  28
ATOM     28  C   UNL     1      -0.254   9.585  22.964  0.00  0.00    +0.000 C 
BRANCH  28  29
ATOM     29  C   UNL     1      -1.366  10.618  23.145  0.00  0.00    +0.000 C 
BRANCH  29  30
ATOM     30  C   UNL     1      -0.856  11.996  22.719  0.00  0.00    +0.000 C 
BRANCH  30  32
ATOM     31  C   UNL     1      -3.176  12.496  23.510  0.00  0.00    +0.000 C 
ATOM     32  C   UNL     1      -1.881  13.094  22.973  0.00  0.00    +0.000 C 
ENDBRANCH  30  32
ENDBRANCH  29  30
ENDBRANCH  28  29
ENDBRANCH  27  28
ENDBRANCH  24  27
ENDBRANCH   1  24
BRANCH   3  33
ATOM     33  O   UNL     1       3.315   6.691  17.197  0.00  0.00    +0.000 OA
ATOM     34  H   UNL     1       2.620   6.976  16.579  0.00  0.00    +0.000 HD
ENDBRANCH   3  33
TORSDOF 8
ENDMDL
MODEL 3
REMARK VINA RESULT:      -6.9      1.558      2.046
REMARK  Name = 
REMARK  13 active torsions:
REMARK  status: ('A' for Active; 'I' for Inactive)
REMARK    1  A    between atoms: C_1  and  C_2
REMARK    2  A    between atoms: C_2  and  C_3
REMARK    3  A    between atoms: C_3  and  C_4
REMARK    4  A    between atoms: C_4  and  C_5
REMARK    5  A    between atoms: C_5  and  C_6
REMARK    6  A    between atoms: C_6  and  C_7
REMARK    7  A    between atoms: C_7  and  C_8
REMARK    8  A    between atoms: C_7  and  C_9
REMARK    9  A    between atoms: C_7  and  C_10
REMARK   10  A    between atoms: C_12  and  O_13
REMARK   11  A    between atoms: C_18  and  C_19
REMARK   12  A    between atoms: C_18  and  C_20
REMARK   13  A    between atoms: N_24  and  C_25
REMARK                            x       y       z     vdW  Elec       q    Type
REMARK                         _______ _______ _______ _____ _____    ______ ____
ROOT
ATOM      1  C   UNL     1       1.003   8.016  20.501  0.00  0.00    +0.000 A 
ATOM      2  C   UNL     1       2.116   8.225  19.676  0.00  0.00    +0.000 A 
ATOM      3  C   UNL     1       2.890   7.156  19.200  0.00  0.00    +0.000 A 
ATOM      4  C   UNL     1       2.690   5.845  19.633  0.00  0.00    +0.000 A 
ATOM      5  C   UNL     1       1.527   5.628  20.406  0.00  0.00    +0.000 A 
ATOM      6  C   UNL     1       0.706   6.689  20.821  0.00  0.00    +0.000 A 
ATOM      7  O   UNL     1       1.050   4.407  20.821  0.00  0.00    +0.000 OA
ATOM      8  C   UNL     1       1.769   3.192  20.508  0.00  0.00    +0.000 C 
ATOM      9  C   UNL     1       2.013   2.531  21.875  0.00  0.00    +0.000 C 
ATOM     10  C   UNL     1       0.815   2.317  19.684  0.00  0.00    +0.000 C 
ATOM     11  C   UNL     1       3.056   3.412  19.788  0.00  0.00    +0.000 A 
ATOM     12  C   UNL     1       4.003   2.482  19.354  0.00  0.00    +0.000 A 
ATOM     13  N   UNL     1       5.034   3.073  18.765  0.00  0.00    +0.000 NA
ATOM     14  N   UNL     1       4.773   4.410  18.802  0.00  0.00    +0.000 N 
ATOM     15  C   UNL     1       3.522   4.651  19.388  0.00  0.00    +0.000 A 
ENDROOT
BRANCH  14  16
ATOM     16  C   UNL     1       5.816   5.285  18.373  0.00  0.00    +0.000 A 
ATOM     17  C   UNL     1       6.792   5.700  19.292  0.00  0.00    +0.000 A 
ATOM     18  C   UNL     1       7.701   6.708  18.953  0.00  0.00    +0.000 A 
ATOM     19  C   UNL     1       7.706   7.227  17.664  0.00  0.00    +0.000 A 
ATOM     20 CL   UNL     1       8.768   8.520  17.264  0.00  0.00    +0.000 Cl
ATOM     21  C   UNL     1       6.840   6.723  16.701  0.00  0.00    +0.000 A 
ATOM     22  C   UNL     1       5.888   5.753  17.047  0.00  0.00    +0.000 A 
ATOM     23 CL   UNL     1       4.807   5.312  15.766  0.00  0.00    +0.000 Cl
ENDBRANCH  14  16
BRANCH   1  24
ATOM     24  C   UNL     1       0.166   9.204  21.001  0.00  0.00    +0.000 C 
ATOM     25  C   UNL     1       1.019  10.445  21.360  0.00  0.00    +0.000 C 
ATOM     26  C   UNL     1      -0.563   8.792  22.305  0.00  0.00    +0.000 C 
BRANCH  24  27
ATOM     27  C   UNL     1      -0.909   9.597  19.939  0.00  0.00    +0.000 C 
BRANCH  27  28
ATOM     28  C   UNL     1      -0.921  11.089  19.585  0.00  0.00    +0.000 C 
BRANCH  28  29
ATOM     29  C   UNL     1      -1.397  11.349  18.155  0.00  0.00    +0.000 C 
BRANCH  29  30
ATOM     30  C   UNL     1      -1.551  10.017  17.419  0.00  0.00    +0.000 C 
BRANCH  30  32
ATOM     31  C   UNL     1      -2.865  10.659  15.390  0.00  0.00    +0.000 C 
ATOM     32  C   UNL     1      -2.895   9.901  16.712  0.00  0.00    +0.000 C 
ENDBRANCH  30  32
ENDBRANCH  29  30
ENDBRANCH  28  29
ENDBRANCH  27  28
ENDBRANCH  24  27
ENDBRANCH   1  24
BRANCH   3  33
ATOM     33  O   UNL     1       3.800   7.457  18.229  0.00  0.00    +0.000 OA
ATOM     34  H   UNL     1       3.997   6.650  17.722  0.00  0.00    +0.000 HD
ENDBRANCH   3  33
TORSDOF 8
ENDMDL
MODEL 4
REMARK VINA RESULT:      -6.8      0.936      1.420
REMARK  Name = 
REMARK  13 active torsions:
REMARK  status: ('A' for Active; 'I' for Inactive)
REMARK    1  A    between atoms: C_1  and  C_2
REMARK    2  A    between atoms: C_2  and  C_3
REMARK    3  A    between atoms: C_3  and  C_4
REMARK    4  A    between atoms: C_4  and  C_5
REMARK    5  A    between atoms: C_5  and  C_6
REMARK    6  A    between atoms: C_6  and  C_7
REMARK    7  A    between atoms: C_7  and  C_8
REMARK    8  A    between atoms: C_7  and  C_9
REMARK    9  A    between atoms: C_7  and  C_10
REMARK   10  A    between atoms: C_12  and  O_13
REMARK   11  A    between atoms: C_18  and  C_19
REMARK   12  A    between atoms: C_18  and  C_20
REMARK   13  A    between atoms: N_24  and  C_25
REMARK                            x       y       z     vdW  Elec       q    Type
REMARK                         _______ _______ _______ _____ _____    ______ ____
ROOT
ATOM      1  C   UNL     1       1.593   7.786  20.185  0.00  0.00    +0.000 A 
ATOM      2  C   UNL     1       2.357   7.768  19.012  0.00  0.00    +0.000 A 
ATOM      3  C   UNL     1       2.788   6.566  18.431  0.00  0.00    +0.000 A 
ATOM      4  C   UNL     1       2.608   5.334  19.060  0.00  0.00    +0.000 A 
ATOM      5  C   UNL     1       1.777   5.346  20.203  0.00  0.00    +0.000 A 
ATOM      6  C   UNL     1       1.281   6.544  20.743  0.00  0.00    +0.000 A 
ATOM      7  O   UNL     1       1.345   4.242  20.898  0.00  0.00    +0.000 OA
ATOM      8  C   UNL     1       1.765   2.915  20.507  0.00  0.00    +0.000 C 
ATOM      9  C   UNL     1       2.401   2.326  21.777  0.00  0.00    +0.000 C 
ATOM     10  C   UNL     1       0.488   2.132  20.168  0.00  0.00    +0.000 C 
ATOM     11  C   UNL     1       2.730   2.890  19.370  0.00  0.00    +0.000 A 
ATOM     12  C   UNL     1       3.351   1.803  18.754  0.00  0.00    +0.000 A 
ATOM     13  N   UNL     1       4.166   2.192  17.782  0.00  0.00    +0.000 NA
ATOM     14  N   UNL     1       4.087   3.551  17.746  0.00  0.00    +0.000 N 
ATOM     15  C   UNL     1       3.160   4.016  18.691  0.00  0.00    +0.000 A 
ENDROOT
BRANCH  14  16
ATOM     16  C   UNL     1       5.001   4.230  16.887  0.00  0.00    +0.000 A 
ATOM     17  C   UNL     1       4.831   4.153  15.496  0.00  0.00    +0.000 A 
ATOM     18  C   UNL     1       5.821   4.638  14.633  0.00  0.00    +0.000 A 
ATOM     19  C   UNL     1       6.929   5.293  15.154  0.00  0.00    +0.000 A 
ATOM     20 CL   UNL     1       8.186   5.821  14.104  0.00  0.00    +0.000 Cl
ATOM     21  C   UNL     1       7.040   5.504  16.523  0.00  0.00    +0.000 A 
ATOM     22  C   UNL     1       6.082   4.974  17.399  0.00  0.00    +0.000 A 
ATOM     23 CL   UNL     1       6.423   5.222  19.080  0.00  0.00    +0.000 Cl
ENDBRANCH  14  16
BRANCH   1  24
ATOM     24  C   UNL     1       1.125   9.117  20.795  0.00  0.00    +0.000 C 
ATOM     25  C   UNL     1       2.045   9.625  21.931  0.00  0.00    +0.000 C 
ATOM     26  C   UNL     1      -0.273   8.916  21.431  0.00  0.00    +0.000 C 
BRANCH  24  27
ATOM     27  C   UNL     1       1.008  10.211  19.687  0.00  0.00    +0.000 C 
BRANCH  27  28
ATOM     28  C   UNL     1       0.893  11.641  20.231  0.00  0.00    +0.000 C 
BRANCH  28  29
ATOM     29  C   UNL     1      -0.259  12.420  19.594  0.00  0.00    +0.000 C 
BRANCH  29  30
ATOM     30  C   UNL     1      -1.403  11.460  19.265  0.00  0.00    +0.000 C 
BRANCH  30  32
ATOM     31  C   UNL     1      -2.013  10.041  17.297  0.00  0.00    +0.000 C 
ATOM     32  C   UNL     1      -1.748  11.462  17.781  0.00  0.00    +0.000 C 
ENDBRANCH  30  32
ENDBRANCH  29  30
ENDBRANCH  28  29
ENDBRANCH  27  28
ENDBRANCH  24  27
ENDBRANCH   1  24
BRANCH   3  33
ATOM     33  O   UNL     1       3.323   6.659  17.179  0.00  0.00    +0.000 OA
ATOM     34  H   UNL     1       2.898   5.997  16.607  0.00  0.00    +0.000 HD
ENDBRANCH   3  33
TORSDOF 8
ENDMDL
MODEL 5
REMARK VINA RESULT:      -6.8      1.600      2.335
REMARK  Name = 
REMARK  13 active torsions:
REMARK  status: ('A' for Active; 'I' for Inactive)
REMARK    1  A    between atoms: C_1  and  C_2
REMARK    2  A    between atoms: C_2  and  C_3
REMARK    3  A    between atoms: C_3  and  C_4
REMARK    4  A    between atoms: C_4  and  C_5
REMARK    5  A    between atoms: C_5  and  C_6
REMARK    6  A    between atoms: C_6  and  C_7
REMARK    7  A    between atoms: C_7  and  C_8
REMARK    8  A    between atoms: C_7  and  C_9
REMARK    9  A    between atoms: C_7  and  C_10
REMARK   10  A    between atoms: C_12  and  O_13
REMARK   11  A    between atoms: C_18  and  C_19
REMARK   12  A    between atoms: C_18  and  C_20
REMARK   13  A    between atoms: N_24  and  C_25
REMARK                            x       y       z     vdW  Elec       q    Type
REMARK                         _______ _______ _______ _____ _____    ______ ____
ROOT
ATOM      1  C   UNL     1       1.606   7.721  20.211  0.00  0.00    +0.000 A 
ATOM      2  C   UNL     1       2.373   7.718  19.040  0.00  0.00    +0.000 A 
ATOM      3  C   UNL     1       2.809   6.523  18.447  0.00  0.00    +0.000 A 
ATOM      4  C   UNL     1       2.632   5.284  19.063  0.00  0.00    +0.000 A 
ATOM      5  C   UNL     1       1.799   5.282  20.204  0.00  0.00    +0.000 A 
ATOM      6  C   UNL     1       1.297   6.472  20.756  0.00  0.00    +0.000 A 
ATOM      7  O   UNL     1       1.368   4.169  20.887  0.00  0.00    +0.000 OA
ATOM      8  C   UNL     1       1.793   2.848  20.482  0.00  0.00    +0.000 C 
ATOM      9  C   UNL     1       2.428   2.248  21.748  0.00  0.00    +0.000 C 
ATOM     10  C   UNL     1       0.520   2.064  20.132  0.00  0.00    +0.000 C 
ATOM     11  C   UNL     1       2.761   2.838  19.348  0.00  0.00    +0.000 A 
ATOM     12  C   UNL     1       3.388   1.759  18.721  0.00  0.00    +0.000 A 
ATOM     13  N   UNL     1       4.203   2.160  17.756  0.00  0.00    +0.000 NA
ATOM     14  N   UNL     1       4.120   3.520  17.734  0.00  0.00    +0.000 N 
ATOM     15  C   UNL     1       3.189   3.972  18.681  0.00  0.00    +0.000 A 
ENDROOT
BRANCH  14  16
ATOM     16  C   UNL     1       5.034   4.211  16.884  0.00  0.00    +0.000 A 
ATOM     17  C   UNL     1       4.882   4.129  15.491  0.00  0.00    +0.000 A 
ATOM     18  C   UNL     1       5.875   4.626  14.639  0.00  0.00    +0.000 A 
ATOM     19  C   UNL     1       6.967   5.299  15.172  0.00  0.00    +0.000 A 
ATOM     20 CL   UNL     1       8.227   5.843  14.136  0.00  0.00    +0.000 Cl
ATOM     21  C   UNL     1       7.058   5.515  16.542  0.00  0.00    +0.000 A 
ATOM     22  C   UNL     1       6.098   4.972  17.407  0.00  0.00    +0.000 A 
ATOM     23 CL   UNL     1       6.415   5.228  19.092  0.00  0.00    +0.000 Cl
ENDBRANCH  14  16
BRANCH   1  24
ATOM     24  C   UNL     1       1.133   9.044  20.834  0.00  0.00    +0.000 C 
ATOM     25  C   UNL     1       2.009   9.507  22.024  0.00  0.00    +0.000 C 
ATOM     26  C   UNL     1      -0.296   8.851  21.401  0.00  0.00    +0.000 C 
BRANCH  24  27
ATOM     27  C   UNL     1       1.085  10.168  19.751  0.00  0.00    +0.000 C 
BRANCH  27  28
ATOM     28  C   UNL     1      -0.315  10.750  19.517  0.00  0.00    +0.000 C 
BRANCH  28  29
ATOM     29  C   UNL     1      -0.309  12.277  19.436  0.00  0.00    +0.000 C 
BRANCH  29  30
ATOM     30  C   UNL     1      -1.091  12.854  20.618  0.00  0.00    +0.000 C 
BRANCH  30  32
ATOM     31  C   UNL     1      -1.411  11.983  22.941  0.00  0.00    +0.000 C 
ATOM     32  C   UNL     1      -0.411  12.569  21.952  0.00  0.00    +0.000 C 
ENDBRANCH  30  32
ENDBRANCH  29  30
ENDBRANCH  28  29
ENDBRANCH  27  28
ENDBRANCH  24  27
ENDBRANCH   1  24
BRANCH   3  33
ATOM     33  O   UNL     1       3.347   6.631  17.198  0.00  0.00    +0.000 OA
ATOM     34  H   UNL     1       4.011   7.342  17.203  0.00  0.00    +0.000 HD
ENDBRANCH   3  33
TORSDOF 8
ENDMDL
MODEL 6
REMARK VINA RESULT:      -6.8      1.075      1.630
REMARK  Name = 
REMARK  13 active torsions:
REMARK  status: ('A' for Active; 'I' for Inactive)
REMARK    1  A    between atoms: C_1  and  C_2
REMARK    2  A    between atoms: C_2  and  C_3
REMARK    3  A    between atoms: C_3  and  C_4
REMARK    4  A    between atoms: C_4  and  C_5
REMARK    5  A    between atoms: C_5  and  C_6
REMARK    6  A    between atoms: C_6  and  C_7
REMARK    7  A    between atoms: C_7  and  C_8
REMARK    8  A    between atoms: C_7  and  C_9
REMARK    9  A    between atoms: C_7  and  C_10
REMARK   10  A    between atoms: C_12  and  O_13
REMARK   11  A    between atoms: C_18  and  C_19
REMARK   12  A    between atoms: C_18  and  C_20
REMARK   13  A    between atoms: N_24  and  C_25
REMARK                            x       y       z     vdW  Elec       q    Type
REMARK                         _______ _______ _______ _____ _____    ______ ____
ROOT
ATOM      1  C   UNL     1       1.571   8.210  19.805  0.00  0.00    +0.000 A 
ATOM      2  C   UNL     1       2.351   8.085  18.650  0.00  0.00    +0.000 A 
ATOM      3  C   UNL     1       2.788   6.834  18.187  0.00  0.00    +0.000 A 
ATOM      4  C   UNL     1       2.597   5.664  18.923  0.00  0.00    +0.000 A 
ATOM      5  C   UNL     1       1.751   5.781  20.048  0.00  0.00    +0.000 A 
ATOM      6  C   UNL     1       1.250   7.023  20.470  0.00  0.00    +0.000 A 
ATOM      7  O   UNL     1       1.307   4.745  20.835  0.00  0.00    +0.000 OA
ATOM      8  C   UNL     1       1.730   3.388  20.571  0.00  0.00    +0.000 C 
ATOM      9  C   UNL     1       2.348   2.917  21.899  0.00  0.00    +0.000 C 
ATOM     10  C   UNL     1       0.457   2.578  20.288  0.00  0.00    +0.000 C 
ATOM     11  C   UNL     1       2.711   3.259  19.456  0.00  0.00    +0.000 A 
ATOM     12  C   UNL     1       3.339   2.120  18.950  0.00  0.00    +0.000 A 
ATOM     13  N   UNL     1       4.168   2.418  17.959  0.00  0.00    +0.000 NA
ATOM     14  N   UNL     1       4.092   3.769  17.798  0.00  0.00    +0.000 N 
ATOM     15  C   UNL     1       3.153   4.318  18.683  0.00  0.00    +0.000 A 
ENDROOT
BRANCH  14  16
ATOM     16  C   UNL     1       5.020   4.366  16.893  0.00  0.00    +0.000 A 
ATOM     17  C   UNL     1       4.821   4.233  15.510  0.00  0.00    +0.000 A 
ATOM     18  C   UNL     1       5.815   4.633  14.610  0.00  0.00    +0.000 A 
ATOM     19  C   UNL     1       6.961   5.261  15.082  0.00  0.00    +0.000 A 
ATOM     20 CL   UNL     1       8.220   5.684  13.989  0.00  0.00    +0.000 Cl
ATOM     21  C   UNL     1       7.105   5.530  16.438  0.00  0.00    +0.000 A 
ATOM     22  C   UNL     1       6.141   5.084  17.353  0.00  0.00    +0.000 A 
ATOM     23 CL   UNL     1       6.523   5.393  19.015  0.00  0.00    +0.000 Cl
ENDBRANCH  14  16
BRANCH   1  24
ATOM     24  C   UNL     1       1.097   9.591  20.285  0.00  0.00    +0.000 C 
ATOM     25  C   UNL     1       1.854  10.763  19.613  0.00  0.00    +0.000 C 
ATOM     26  C   UNL     1       1.371   9.717  21.805  0.00  0.00    +0.000 C 
BRANCH  24  27
ATOM     27  C   UNL     1      -0.437   9.752  20.046  0.00  0.00    +0.000 C 
BRANCH  27  28
ATOM     28  C   UNL     1      -0.801  10.261  18.646  0.00  0.00    +0.000 C 
BRANCH  28  29
ATOM     29  C   UNL     1      -1.748  11.461  18.685  0.00  0.00    +0.000 C 
BRANCH  29  30
ATOM     30  C   UNL     1      -1.039  12.690  18.113  0.00  0.00    +0.000 C 
BRANCH  30  32
ATOM     31  C   UNL     1      -1.340  13.493  20.463  0.00  0.00    +0.000 C 
ATOM     32  C   UNL     1      -0.486  13.597  19.205  0.00  0.00    +0.000 C 
ENDBRANCH  30  32
ENDBRANCH  29  30
ENDBRANCH  28  29
ENDBRANCH  27  28
ENDBRANCH  24  27
ENDBRANCH   1  24
BRANCH   3  33
ATOM     33  O   UNL     1       3.341   6.812  16.939  0.00  0.00    +0.000 OA
ATOM     34  H   UNL     1       2.808   6.231  16.370  0.00  0.00    +0.000 HD
ENDBRANCH   3  33
TORSDOF 8
ENDMDL
MODEL 7
REMARK VINA RESULT:      -6.7      7.772      9.845
REMARK  Name = 
REMARK  13 active torsions:
REMARK  status: ('A' for Active; 'I' for Inactive)
REMARK    1  A    between atoms: C_1  and  C_2
REMARK    2  A    between atoms: C_2  and  C_3
REMARK    3  A    between atoms: C_3  and  C_4
REMARK    4  A    between atoms: C_4  and  C_5
REMARK    5  A    between atoms: C_5  and  C_6
REMARK    6  A    between atoms: C_6  and  C_7
REMARK    7  A    between atoms: C_7  and  C_8
REMARK    8  A    between atoms: C_7  and  C_9
REMARK    9  A    between atoms: C_7  and  C_10
REMARK   10  A    between atoms: C_12  and  O_13
REMARK   11  A    between atoms: C_18  and  C_19
REMARK   12  A    between atoms: C_18  and  C_20
REMARK   13  A    between atoms: N_24  and  C_25
REMARK                            x       y       z     vdW  Elec       q    Type
REMARK                         _______ _______ _______ _____ _____    ______ ____
ROOT
ATOM      1  C   UNL     1       1.041  14.358  20.225  0.00  0.00    +0.000 A 
ATOM      2  C   UNL     1       0.485  13.837  19.051  0.00  0.00    +0.000 A 
ATOM      3  C   UNL     1      -0.862  13.449  18.981  0.00  0.00    +0.000 A 
ATOM      4  C   UNL     1      -1.683  13.422  20.108  0.00  0.00    +0.000 A 
ATOM      5  C   UNL     1      -1.144  14.013  21.273  0.00  0.00    +0.000 A 
ATOM      6  C   UNL     1       0.182  14.473  21.322  0.00  0.00    +0.000 A 
ATOM      7  O   UNL     1      -1.815  14.229  22.452  0.00  0.00    +0.000 OA
ATOM      8  C   UNL     1      -3.189  13.807  22.605  0.00  0.00    +0.000 C 
ATOM      9  C   UNL     1      -3.173  12.899  23.847  0.00  0.00    +0.000 C 
ATOM     10  C   UNL     1      -4.006  15.071  22.911  0.00  0.00    +0.000 C 
ATOM     11  C   UNL     1      -3.740  13.082  21.425  0.00  0.00    +0.000 A 
ATOM     12  C   UNL     1      -5.005  12.522  21.235  0.00  0.00    +0.000 A 
ATOM     13  N   UNL     1      -5.108  11.938  20.049  0.00  0.00    +0.000 NA
ATOM     14  N   UNL     1      -3.903  12.113  19.438  0.00  0.00    +0.000 N 
ATOM     15  C   UNL     1      -3.044  12.867  20.250  0.00  0.00    +0.000 A 
ENDROOT
BRANCH  14  16
ATOM     16  C   UNL     1      -3.699  11.429  18.202  0.00  0.00    +0.000 A 
ATOM     17  C   UNL     1      -2.679  10.470  18.101  0.00  0.00    +0.000 A 
ATOM     18  C   UNL     1      -2.330   9.935  16.856  0.00  0.00    +0.000 A 
ATOM     19  C   UNL     1      -3.066  10.275  15.728  0.00  0.00    +0.000 A 
ATOM     20 CL   UNL     1      -2.594   9.682  14.185  0.00  0.00    +0.000 Cl
ATOM     21  C   UNL     1      -4.171  11.112  15.837  0.00  0.00    +0.000 A 
ATOM     22  C   UNL     1      -4.494  11.697  17.070  0.00  0.00    +0.000 A 
ATOM     23 CL   UNL     1      -5.825  12.806  17.018  0.00  0.00    +0.000 Cl
ENDBRANCH  14  16
BRANCH   1  24
ATOM     24  C   UNL     1       2.517  14.784  20.271  0.00  0.00    +0.000 C 
ATOM     25  C   UNL     1       3.226  14.680  18.899  0.00  0.00    +0.000 C 
ATOM     26  C   UNL     1       3.285  13.835  21.225  0.00  0.00    +0.000 C 
BRANCH  24  27
ATOM     27  C   UNL     1       2.645  16.241  20.818  0.00  0.00    +0.000 C 
BRANCH  27  28
ATOM     28  C   UNL     1       2.692  17.317  19.726  0.00  0.00    +0.000 C 
BRANCH  28  29
ATOM     29  C   UNL     1       1.375  18.084  19.601  0.00  0.00    +0.000 C 
BRANCH  29  30
ATOM     30  C   UNL     1       0.866  17.991  18.162  0.00  0.00    +0.000 C 
BRANCH  30  32
ATOM     31  C   UNL     1      -1.271  17.303  19.265  0.00  0.00    +0.000 C 
ATOM     32  C   UNL     1      -0.377  17.117  18.045  0.00  0.00    +0.000 C 
ENDBRANCH  30  32
ENDBRANCH  29  30
ENDBRANCH  28  29
ENDBRANCH  27  28
ENDBRANCH  24  27
ENDBRANCH   1  24
BRANCH   3  33
ATOM     33  O   UNL     1      -1.346  13.174  17.735  0.00  0.00    +0.000 OA
ATOM     34  H   UNL     1      -0.868  12.408  17.375  0.00  0.00    +0.000 HD
ENDBRANCH   3  33
TORSDOF 8
ENDMDL
MODEL 8
REMARK VINA RESULT:      -6.6      1.498      2.189
REMARK  Name = 
REMARK  13 active torsions:
REMARK  status: ('A' for Active; 'I' for Inactive)
REMARK    1  A    between atoms: C_1  and  C_2
REMARK    2  A    between atoms: C_2  and  C_3
REMARK    3  A    between atoms: C_3  and  C_4
REMARK    4  A    between atoms: C_4  and  C_5
REMARK    5  A    between atoms: C_5  and  C_6
REMARK    6  A    between atoms: C_6  and  C_7
REMARK    7  A    between atoms: C_7  and  C_8
REMARK    8  A    between atoms: C_7  and  C_9
REMARK    9  A    between atoms: C_7  and  C_10
REMARK   10  A    between atoms: C_12  and  O_13
REMARK   11  A    between atoms: C_18  and  C_19
REMARK   12  A    between atoms: C_18  and  C_20
REMARK   13  A    between atoms: N_24  and  C_25
REMARK                            x       y       z     vdW  Elec       q    Type
REMARK                         _______ _______ _______ _____ _____    ______ ____
ROOT
ATOM      1  C   UNL     1       1.616   7.835  20.027  0.00  0.00    +0.000 A 
ATOM      2  C   UNL     1       2.372   7.790  18.849  0.00  0.00    +0.000 A 
ATOM      3  C   UNL     1       2.810   6.575  18.300  0.00  0.00    +0.000 A 
ATOM      4  C   UNL     1       2.645   5.360  18.965  0.00  0.00    +0.000 A 
ATOM      5  C   UNL     1       1.823   5.398  20.114  0.00  0.00    +0.000 A 
ATOM      6  C   UNL     1       1.320   6.607  20.623  0.00  0.00    +0.000 A 
ATOM      7  O   UNL     1       1.405   4.311  20.844  0.00  0.00    +0.000 OA
ATOM      8  C   UNL     1       1.835   2.977  20.487  0.00  0.00    +0.000 C 
ATOM      9  C   UNL     1       2.485   2.431  21.770  0.00  0.00    +0.000 C 
ATOM     10  C   UNL     1       0.563   2.173  20.181  0.00  0.00    +0.000 C 
ATOM     11  C   UNL     1       2.792   2.928  19.345  0.00  0.00    +0.000 A 
ATOM     12  C   UNL     1       3.419   1.829  18.755  0.00  0.00    +0.000 A 
ATOM     13  N   UNL     1       4.223   2.196  17.767  0.00  0.00    +0.000 NA
ATOM     14  N   UNL     1       4.131   3.554  17.692  0.00  0.00    +0.000 N 
ATOM     15  C   UNL     1       3.207   4.037  18.630  0.00  0.00    +0.000 A 
ENDROOT
BRANCH  14  16
ATOM     16  C   UNL     1       5.033   4.215  16.807  0.00  0.00    +0.000 A 
ATOM     17  C   UNL     1       4.847   4.106  15.420  0.00  0.00    +0.000 A 
ATOM     18  C   UNL     1       5.825   4.574  14.535  0.00  0.00    +0.000 A 
ATOM     19  C   UNL     1       6.937   5.244  15.028  0.00  0.00    +0.000 A 
ATOM     20 CL   UNL     1       8.179   5.752  13.952  0.00  0.00    +0.000 Cl
ATOM     21  C   UNL     1       7.063   5.487  16.391  0.00  0.00    +0.000 A 
ATOM     22  C   UNL     1       6.117   4.974  17.289  0.00  0.00    +0.000 A 
ATOM     23 CL   UNL     1       6.477   5.262  18.960  0.00  0.00    +0.000 Cl
ENDBRANCH  14  16
BRANCH   1  24
ATOM     24  C   UNL     1       1.141   9.179  20.602  0.00  0.00    +0.000 C 
ATOM     25  C   UNL     1       1.905   9.600  21.881  0.00  0.00    +0.000 C 
ATOM     26  C   UNL     1      -0.348   9.053  21.012  0.00  0.00    +0.000 C 
BRANCH  24  27
ATOM     27  C   UNL     1       1.261  10.303  19.525  0.00  0.00    +0.000 C 
BRANCH  27  28
ATOM     28  C   UNL     1      -0.087  10.842  19.031  0.00  0.00    +0.000 C 
BRANCH  28  29
ATOM     29  C   UNL     1      -0.369  12.261  19.523  0.00  0.00    +0.000 C 
BRANCH  29  30
ATOM     30  C   UNL     1       0.955  12.979  19.794  0.00  0.00    +0.000 C 
BRANCH  30  32
ATOM     31  C   UNL     1       2.860  13.467  18.248  0.00  0.00    +0.000 C 
ATOM     32  C   UNL     1       1.417  13.806  18.601  0.00  0.00    +0.000 C 
ENDBRANCH  30  32
ENDBRANCH  29  30
ENDBRANCH  28  29
ENDBRANCH  27  28
ENDBRANCH  24  27
ENDBRANCH   1  24
BRANCH   3  33
ATOM     33  O   UNL     1       3.335   6.636  17.042  0.00  0.00    +0.000 OA
ATOM     34  H   UNL     1       4.162   7.147  17.073  0.00  0.00    +0.000 HD
ENDBRANCH   3  33
TORSDOF 8
ENDMDL
MODEL 9
REMARK VINA RESULT:      -6.6      1.593      2.918
REMARK  Name = 
REMARK  13 active torsions:
REMARK  status: ('A' for Active; 'I' for Inactive)
REMARK    1  A    between atoms: C_1  and  C_2
REMARK    2  A    between atoms: C_2  and  C_3
REMARK    3  A    between atoms: C_3  and  C_4
REMARK    4  A    between atoms: C_4  and  C_5
REMARK    5  A    between atoms: C_5  and  C_6
REMARK    6  A    between atoms: C_6  and  C_7
REMARK    7  A    between atoms: C_7  and  C_8
REMARK    8  A    between atoms: C_7  and  C_9
REMARK    9  A    between atoms: C_7  and  C_10
REMARK   10  A    between atoms: C_12  and  O_13
REMARK   11  A    between atoms: C_18  and  C_19
REMARK   12  A    between atoms: C_18  and  C_20
REMARK   13  A    between atoms: N_24  and  C_25
REMARK                            x       y       z     vdW  Elec       q    Type
REMARK                         _______ _______ _______ _____ _____    ______ ____
ROOT
ATOM      1  C   UNL     1       1.710   8.787  19.023  0.00  0.00    +0.000 A 
ATOM      2  C   UNL     1       2.494   8.489  17.902  0.00  0.00    +0.000 A 
ATOM      3  C   UNL     1       2.945   7.185  17.643  0.00  0.00    +0.000 A 
ATOM      4  C   UNL     1       2.765   6.145  18.555  0.00  0.00    +0.000 A 
ATOM      5  C   UNL     1       1.916   6.430  19.648  0.00  0.00    +0.000 A 
ATOM      6  C   UNL     1       1.400   7.718  19.867  0.00  0.00    +0.000 A 
ATOM      7  O   UNL     1       1.481   5.527  20.588  0.00  0.00    +0.000 OA
ATOM      8  C   UNL     1       1.919   4.150  20.543  0.00  0.00    +0.000 C 
ATOM      9  C   UNL     1       2.539   3.902  21.929  0.00  0.00    +0.000 C 
ATOM     10  C   UNL     1       0.655   3.291  20.391  0.00  0.00    +0.000 C 
ATOM     11  C   UNL     1       2.903   3.857  19.462  0.00  0.00    +0.000 A 
ATOM     12  C   UNL     1       3.544   2.658  19.143  0.00  0.00    +0.000 A 
ATOM     13  N   UNL     1       4.372   2.805  18.117  0.00  0.00    +0.000 NA
ATOM     14  N   UNL     1       4.281   4.112  17.744  0.00  0.00    +0.000 N 
ATOM     15  C   UNL     1       3.335   4.784  18.531  0.00  0.00    +0.000 A 
ENDROOT
BRANCH  14  16
ATOM     16  C   UNL     1       5.204   4.568  16.756  0.00  0.00    +0.000 A 
ATOM     17  C   UNL     1       4.962   4.290  15.402  0.00  0.00    +0.000 A 
ATOM     18  C   UNL     1       5.945   4.549  14.439  0.00  0.00    +0.000 A 
ATOM     19  C   UNL     1       7.125   5.180  14.810  0.00  0.00    +0.000 A 
ATOM     20 CL   UNL     1       8.367   5.429  13.647  0.00  0.00    +0.000 Cl
ATOM     21  C   UNL     1       7.317   5.592  16.124  0.00  0.00    +0.000 A 
ATOM     22  C   UNL     1       6.363   5.288  17.106  0.00  0.00    +0.000 A 
ATOM     23 CL   UNL     1       6.803   5.765  18.713  0.00  0.00    +0.000 Cl
ENDBRANCH  14  16
BRANCH   1  24
ATOM     24  C   UNL     1       1.221  10.222  19.278  0.00  0.00    +0.000 C 
ATOM     25  C   UNL     1       1.158  10.588  20.780  0.00  0.00    +0.000 C 
ATOM     26  C   UNL     1      -0.225  10.363  18.740  0.00  0.00    +0.000 C 
BRANCH  24  27
ATOM     27  C   UNL     1       2.128  11.247  18.525  0.00  0.00    +0.000 C 
BRANCH  27  28
ATOM     28  C   UNL     1       1.647  12.700  18.630  0.00  0.00    +0.000 C 
BRANCH  28  29
ATOM     29  C   UNL     1       2.752  13.652  19.087  0.00  0.00    +0.000 C 
BRANCH  29  30
ATOM     30  C   UNL     1       2.492  15.047  18.516  0.00  0.00    +0.000 C 
BRANCH  30  32
ATOM     31  C   UNL     1       4.909  14.942  17.879  0.00  0.00    +0.000 C 
ATOM     32  C   UNL     1       3.529  15.447  17.474  0.00  0.00    +0.000 C 
ENDBRANCH  30  32
ENDBRANCH  29  30
ENDBRANCH  28  29
ENDBRANCH  27  28
ENDBRANCH  24  27
ENDBRANCH   1  24
BRANCH   3  33
ATOM     33  O   UNL     1       3.500   6.972  16.415  0.00  0.00    +0.000 OA
ATOM     34  H   UNL     1       3.839   7.818  16.073  0.00  0.00    +0.000 HD
ENDBRANCH   3  33
TORSDOF 8
ENDMDL
