MODEL 1
REMARK VINA RESULT:      -7.8      0.000      0.000
REMARK  Name = 
REMARK  9 active torsions:
REMARK  status: ('A' for Active; 'I' for Inactive)
REMARK    1  A    between atoms: C_1  and  C_2
REMARK    2  A    between atoms: C_2  and  O_3
REMARK    3  A    between atoms: O_3  and  C_4
REMARK    4  A    between atoms: C_4  and  C_6
REMARK    5  A    between atoms: C_8  and  C_9
REMARK    6  A    between atoms: C_12  and  N_13
REMARK    7  A    between atoms: N_13  and  S_14
REMARK    8  A    between atoms: S_14  and  C_17
REMARK    9  A    between atoms: C_20  and  C_21
REMARK                            x       y       z     vdW  Elec       q    Type
REMARK                         _______ _______ _______ _____ _____    ______ ____
ROOT
ATOM      1  C   UNL     1       3.106   7.208  18.274  0.00  0.00    +0.000 A 
ATOM      2  C   UNL     1       2.590   8.295  17.555  0.00  0.00    +0.000 A 
ATOM      3  C   UNL     1       1.603   9.118  18.111  0.00  0.00    +0.000 A 
ATOM      4  C   UNL     1       1.132   8.856  19.397  0.00  0.00    +0.000 A 
ATOM      5  C   UNL     1       1.640   7.783  20.125  0.00  0.00    +0.000 A 
ATOM      6  C   UNL     1       2.620   6.962  19.566  0.00  0.00    +0.000 A 
ENDROOT
BRANCH   1   9
ATOM      7  C   UNL     1       5.711   5.291  16.504  0.00  0.00    +0.000 A 
ATOM      8  C   UNL     1       5.084   6.549  16.725  0.00  0.00    +0.000 A 
ATOM      9  C   UNL     1       4.117   6.335  17.686  0.00  0.00    +0.000 A 
ATOM     10  N   UNL     1       4.234   5.005  18.000  0.00  0.00    +0.000 N 
ATOM     11  N   UNL     1       5.189   4.357  17.322  0.00  0.00    +0.000 NA
ATOM     12  H   UNL     1       3.666   4.472  18.646  0.00  0.00    +0.000 HD
BRANCH   7  13
ATOM     13  C   UNL     1       6.716   4.983  15.479  0.00  0.00    +0.000 C 
ATOM     14  O   UNL     1       7.638   5.742  15.198  0.00  0.00    +0.000 OA
BRANCH  13  15
ATOM     15  O   UNL     1       6.436   3.828  14.806  0.00  0.00    +0.000 OA
BRANCH  15  17
ATOM     16  C   UNL     1       6.310   3.507  12.442  0.00  0.00    +0.000 C 
ATOM     17  C   UNL     1       5.559   3.959  13.684  0.00  0.00    +0.000 C 
ENDBRANCH  15  17
ENDBRANCH  13  15
ENDBRANCH   7  13
ENDBRANCH   1   9
BRANCH   4  18
ATOM     18  N   UNL     1       0.165   9.687  20.013  0.00  0.00    +0.000 N 
ATOM     19  H   UNL     1      -0.740   9.291  20.264  0.00  0.00    +0.000 HD
BRANCH  18  20
ATOM     20  S   UNL     1       0.653  10.942  21.018  0.00  0.00    +0.000 S 
ATOM     21  O   UNL     1       1.294  10.313  22.155  0.00  0.00    +0.000 OA
ATOM     22  O   UNL     1       1.346  11.943  20.235  0.00  0.00    +0.000 OA
BRANCH  20  23
ATOM     23  C   UNL     1      -0.888  11.625  21.582  0.00  0.00    +0.000 A 
ATOM     24  C   UNL     1      -1.746  12.260  20.680  0.00  0.00    +0.000 A 
ATOM     25  C   UNL     1      -2.969  12.763  21.131  0.00  0.00    +0.000 A 
ATOM     26  C   UNL     1      -3.342  12.627  22.476  0.00  0.00    +0.000 A 
ATOM     27  C   UNL     1      -4.661  13.144  22.971  0.00  0.00    +0.000 C 
ATOM     28  C   UNL     1      -2.475  11.975  23.365  0.00  0.00    +0.000 A 
ATOM     29  C   UNL     1      -1.254  11.470  22.922  0.00  0.00    +0.000 A 
ENDBRANCH  20  23
ENDBRANCH  18  20
ENDBRANCH   4  18
TORSDOF 7
ENDMDL
MODEL 2
REMARK VINA RESULT:      -7.8      0.772      1.245
REMARK  Name = 
REMARK  9 active torsions:
REMARK  status: ('A' for Active; 'I' for Inactive)
REMARK    1  A    between atoms: C_1  and  C_2
REMARK    2  A    between atoms: C_2  and  O_3
REMARK    3  A    between atoms: O_3  and  C_4
REMARK    4  A    between atoms: C_4  and  C_6
REMARK    5  A    between atoms: C_8  and  C_9
REMARK    6  A    between atoms: C_12  and  N_13
REMARK    7  A    between atoms: N_13  and  S_14
REMARK    8  A    between atoms: S_14  and  C_17
REMARK    9  A    between atoms: C_20  and  C_21
REMARK                            x       y       z     vdW  Elec       q    Type
REMARK                         _______ _______ _______ _____ _____    ______ ____
ROOT
ATOM      1  C   UNL     1       2.943   7.201  18.434  0.00  0.00    +0.000 A 
ATOM      2  C   UNL     1       2.425   6.953  19.713  0.00  0.00    +0.000 A 
ATOM      3  C   UNL     1       1.498   7.829  20.292  0.00  0.00    +0.000 A 
ATOM      4  C   UNL     1       1.082   8.957  19.585  0.00  0.00    +0.000 A 
ATOM      5  C   UNL     1       1.583   9.212  18.312  0.00  0.00    +0.000 A 
ATOM      6  C   UNL     1       2.511   8.340  17.739  0.00  0.00    +0.000 A 
ENDROOT
BRANCH   1   9
ATOM      7  C   UNL     1       5.637   5.264  16.826  0.00  0.00    +0.000 A 
ATOM      8  C   UNL     1       5.212   6.505  17.377  0.00  0.00    +0.000 A 
ATOM      9  C   UNL     1       3.927   6.303  17.840  0.00  0.00    +0.000 A 
ATOM     10  N   UNL     1       3.672   4.981  17.574  0.00  0.00    +0.000 N 
ATOM     11  N   UNL     1       4.681   4.329  16.983  0.00  0.00    +0.000 NA
ATOM     12  H   UNL     1       2.812   4.473  17.742  0.00  0.00    +0.000 HD
BRANCH   7  13
ATOM     13  C   UNL     1       6.886   5.014  16.096  0.00  0.00    +0.000 C 
ATOM     14  O   UNL     1       7.857   4.462  16.603  0.00  0.00    +0.000 OA
BRANCH  13  15
ATOM     15  O   UNL     1       6.879   5.568  14.847  0.00  0.00    +0.000 OA
BRANCH  15  17
ATOM     16  C   UNL     1       7.863   5.224  12.697  0.00  0.00    +0.000 C 
ATOM     17  C   UNL     1       6.940   4.644  13.757  0.00  0.00    +0.000 C 
ENDBRANCH  15  17
ENDBRANCH  13  15
ENDBRANCH   7  13
ENDBRANCH   1   9
BRANCH   4  18
ATOM     18  N   UNL     1       0.116   9.847  20.116  0.00  0.00    +0.000 N 
ATOM     19  H   UNL     1      -0.866   9.578  20.098  0.00  0.00    +0.000 HD
BRANCH  18  20
ATOM     20  S   UNL     1       0.516  10.853  21.400  0.00  0.00    +0.000 S 
ATOM     21  O   UNL     1       0.854   9.974  22.502  0.00  0.00    +0.000 OA
ATOM     22  O   UNL     1       1.445  11.866  20.947  0.00  0.00    +0.000 OA
BRANCH  20  23
ATOM     23  C   UNL     1      -1.032  11.634  21.793  0.00  0.00    +0.000 A 
ATOM     24  C   UNL     1      -1.733  12.335  20.808  0.00  0.00    +0.000 A 
ATOM     25  C   UNL     1      -2.965  12.916  21.123  0.00  0.00    +0.000 A 
ATOM     26  C   UNL     1      -3.501  12.792  22.413  0.00  0.00    +0.000 A 
ATOM     27  C   UNL     1      -4.832  13.393  22.760  0.00  0.00    +0.000 C 
ATOM     28  C   UNL     1      -2.791  12.074  23.385  0.00  0.00    +0.000 A 
ATOM     29  C   UNL     1      -1.561  11.491  23.079  0.00  0.00    +0.000 A 
ENDBRANCH  20  23
ENDBRANCH  18  20
ENDBRANCH   4  18
TORSDOF 7
ENDMDL
MODEL 3
REMARK VINA RESULT:      -7.7      0.833      1.347
REMARK  Name = 
REMARK  9 active torsions:
REMARK  status: ('A' for Active; 'I' for Inactive)
REMARK    1  A    between atoms: C_1  and  C_2
REMARK    2  A    between atoms: C_2  and  O_3
REMARK    3  A    between atoms: O_3  and  C_4
REMARK    4  A    between atoms: C_4  and  C_6
REMARK    5  A    between atoms: C_8  and  C_9
REMARK    6  A    between atoms: C_12  and  N_13
REMARK    7  A    between atoms: N_13  and  S_14
REMARK    8  A    between atoms: S_14  and  C_17
REMARK    9  A    between atoms: C_20  and  C_21
REMARK                            x       y       z     vdW  Elec       q    Type
REMARK                         _______ _______ _______ _____ _____    ______ ____
ROOT
ATOM      1  C   UNL     1       3.155   7.027  18.110  0.00  0.00    +0.000 A 
ATOM      2  C   UNL     1       2.693   6.775  19.410  0.00  0.00    +0.000 A 
ATOM      3  C   UNL     1       1.847   7.684  20.057  0.00  0.00    +0.000 A 
ATOM      4  C   UNL     1       1.456   8.850  19.399  0.00  0.00    +0.000 A 
ATOM      5  C   UNL     1       1.902   9.109  18.107  0.00  0.00    +0.000 A 
ATOM      6  C   UNL     1       2.749   8.204  17.466  0.00  0.00    +0.000 A 
ENDROOT
BRANCH   1   9
ATOM      7  C   UNL     1       5.567   4.985  16.212  0.00  0.00    +0.000 A 
ATOM      8  C   UNL     1       5.155   6.281  16.630  0.00  0.00    +0.000 A 
ATOM      9  C   UNL     1       4.056   6.093  17.444  0.00  0.00    +0.000 A 
ATOM     10  N   UNL     1       3.894   4.731  17.490  0.00  0.00    +0.000 N 
ATOM     11  N   UNL     1       4.792   4.041  16.778  0.00  0.00    +0.000 NA
ATOM     12  H   UNL     1       3.165   4.214  17.966  0.00  0.00    +0.000 HD
BRANCH   7  13
ATOM     13  C   UNL     1       6.617   4.675  15.233  0.00  0.00    +0.000 C 
ATOM     14  O   UNL     1       7.586   5.403  15.038  0.00  0.00    +0.000 OA
BRANCH  13  15
ATOM     15  O   UNL     1       6.328   3.562  14.494  0.00  0.00    +0.000 OA
BRANCH  15  17
ATOM     16  C   UNL     1       6.648   3.516  12.127  0.00  0.00    +0.000 C 
ATOM     17  C   UNL     1       5.663   3.798  13.250  0.00  0.00    +0.000 C 
ENDBRANCH  15  17
ENDBRANCH  13  15
ENDBRANCH   7  13
ENDBRANCH   1   9
BRANCH   4  18
ATOM     18  N   UNL     1       0.568   9.775  20.001  0.00  0.00    +0.000 N 
ATOM     19  H   UNL     1      -0.178  10.180  19.441  0.00  0.00    +0.000 HD
BRANCH  18  20
ATOM     20  S   UNL     1       0.187   9.635  21.632  0.00  0.00    +0.000 S 
ATOM     21  O   UNL     1      -0.558   8.399  21.760  0.00  0.00    +0.000 OA
ATOM     22  O   UNL     1       1.374   9.872  22.425  0.00  0.00    +0.000 OA
BRANCH  20  23
ATOM     23  C   UNL     1      -0.950  10.976  21.893  0.00  0.00    +0.000 A 
ATOM     24  C   UNL     1      -1.298  11.817  20.832  0.00  0.00    +0.000 A 
ATOM     25  C   UNL     1      -2.219  12.847  21.044  0.00  0.00    +0.000 A 
ATOM     26  C   UNL     1      -2.799  13.033  22.307  0.00  0.00    +0.000 A 
ATOM     27  C   UNL     1      -3.804  14.122  22.545  0.00  0.00    +0.000 C 
ATOM     28  C   UNL     1      -2.449  12.172  23.357  0.00  0.00    +0.000 A 
ATOM     29  C   UNL     1      -1.531  11.142  23.153  0.00  0.00    +0.000 A 
ENDBRANCH  20  23
ENDBRANCH  18  20
ENDBRANCH   4  18
TORSDOF 7
ENDMDL
MODEL 4
REMARK VINA RESULT:      -7.7      2.560     10.338
REMARK  Name = 
REMARK  9 active torsions:
REMARK  status: ('A' for Active; 'I' for Inactive)
REMARK    1  A    between atoms: C_1  and  C_2
REMARK    2  A    between atoms: C_2  and  O_3
REMARK    3  A    between atoms: O_3  and  C_4
REMARK    4  A    between atoms: C_4  and  C_6
REMARK    5  A    between atoms: C_8  and  C_9
REMARK    6  A    between atoms: C_12  and  N_13
REMARK    7  A    between atoms: N_13  and  S_14
REMARK    8  A    between atoms: S_14  and  C_17
REMARK    9  A    between atoms: C_20  and  C_21
REMARK                            x       y       z     vdW  Elec       q    Type
REMARK                         _______ _______ _______ _____ _____    ______ ____
ROOT
ATOM      1  C   UNL     1       1.547   8.307  19.783  0.00  0.00    +0.000 A 
ATOM      2  C   UNL     1       1.504   7.256  20.711  0.00  0.00    +0.000 A 
ATOM      3  C   UNL     1       2.051   6.005  20.401  0.00  0.00    +0.000 A 
ATOM      4  C   UNL     1       2.650   5.803  19.158  0.00  0.00    +0.000 A 
ATOM      5  C   UNL     1       2.706   6.839  18.230  0.00  0.00    +0.000 A 
ATOM      6  C   UNL     1       2.155   8.084  18.539  0.00  0.00    +0.000 A 
ENDROOT
BRANCH   1   9
ATOM      7  C   UNL     1       0.134  11.501  20.962  0.00  0.00    +0.000 A 
ATOM      8  C   UNL     1       0.961  10.377  21.238  0.00  0.00    +0.000 A 
ATOM      9  C   UNL     1       0.956   9.604  20.095  0.00  0.00    +0.000 A 
ATOM     10  N   UNL     1       0.173  10.304  19.212  0.00  0.00    +0.000 N 
ATOM     11  N   UNL     1      -0.319  11.450  19.695  0.00  0.00    +0.000 NA
ATOM     12  H   UNL     1      -0.090  10.032  18.273  0.00  0.00    +0.000 HD
BRANCH   7  13
ATOM     13  C   UNL     1      -0.273  12.542  21.914  0.00  0.00    +0.000 C 
ATOM     14  O   UNL     1      -0.188  13.742  21.671  0.00  0.00    +0.000 OA
BRANCH  13  15
ATOM     15  O   UNL     1      -0.638  12.025  23.125  0.00  0.00    +0.000 OA
BRANCH  15  17
ATOM     16  C   UNL     1      -2.957  12.473  23.486  0.00  0.00    +0.000 C 
ATOM     17  C   UNL     1      -1.924  11.402  23.173  0.00  0.00    +0.000 C 
ENDBRANCH  15  17
ENDBRANCH  13  15
ENDBRANCH   7  13
ENDBRANCH   1   9
BRANCH   4  18
ATOM     18  N   UNL     1       3.252   4.567  18.820  0.00  0.00    +0.000 N 
ATOM     19  H   UNL     1       2.867   4.024  18.049  0.00  0.00    +0.000 HD
BRANCH  18  20
ATOM     20  S   UNL     1       4.903   4.348  19.041  0.00  0.00    +0.000 S 
ATOM     21  O   UNL     1       5.364   5.514  19.766  0.00  0.00    +0.000 OA
ATOM     22  O   UNL     1       5.148   3.014  19.548  0.00  0.00    +0.000 OA
BRANCH  20  23
ATOM     23  C   UNL     1       5.545   4.456  17.387  0.00  0.00    +0.000 A 
ATOM     24  C   UNL     1       6.891   4.770  17.177  0.00  0.00    +0.000 A 
ATOM     25  C   UNL     1       7.391   4.819  15.873  0.00  0.00    +0.000 A 
ATOM     26  C   UNL     1       6.555   4.548  14.780  0.00  0.00    +0.000 A 
ATOM     27  C   UNL     1       7.082   4.577  13.375  0.00  0.00    +0.000 C 
ATOM     28  C   UNL     1       5.210   4.222  15.009  0.00  0.00    +0.000 A 
ATOM     29  C   UNL     1       4.705   4.170  16.308  0.00  0.00    +0.000 A 
ENDBRANCH  20  23
ENDBRANCH  18  20
ENDBRANCH   4  18
TORSDOF 7
ENDMDL
MODEL 5
REMARK VINA RESULT:      -7.7      0.947      1.709
REMARK  Name = 
REMARK  9 active torsions:
REMARK  status: ('A' for Active; 'I' for Inactive)
REMARK    1  A    between atoms: C_1  and  C_2
REMARK    2  A    between atoms: C_2  and  O_3
REMARK    3  A    between atoms: O_3  and  C_4
REMARK    4  A    between atoms: C_4  and  C_6
REMARK    5  A    between atoms: C_8  and  C_9
REMARK    6  A    between atoms: C_12  and  N_13
REMARK    7  A    between atoms: N_13  and  S_14
REMARK    8  A    between atoms: S_14  and  C_17
REMARK    9  A    between atoms: C_20  and  C_21
REMARK                            x       y       z     vdW  Elec       q    Type
REMARK                         _______ _______ _______ _____ _____    ______ ____
ROOT
ATOM      1  C   UNL     1       3.286   6.714  18.113  0.00  0.00    +0.000 A 
ATOM      2  C   UNL     1       2.858   6.330  19.392  0.00  0.00    +0.000 A 
ATOM      3  C   UNL     1       2.026   7.165  20.148  0.00  0.00    +0.000 A 
ATOM      4  C   UNL     1       1.614   8.388  19.621  0.00  0.00    +0.000 A 
ATOM      5  C   UNL     1       2.026   8.778  18.350  0.00  0.00    +0.000 A 
ATOM      6  C   UNL     1       2.860   7.946  17.600  0.00  0.00    +0.000 A 
ENDROOT
BRANCH   1   9
ATOM      7  C   UNL     1       5.613   4.876  15.923  0.00  0.00    +0.000 A 
ATOM      8  C   UNL     1       5.156   6.134  16.407  0.00  0.00    +0.000 A 
ATOM      9  C   UNL     1       4.173   5.856  17.334  0.00  0.00    +0.000 A 
ATOM     10  N   UNL     1       4.118   4.486  17.375  0.00  0.00    +0.000 N 
ATOM     11  N   UNL     1       4.978   3.872  16.555  0.00  0.00    +0.000 NA
ATOM     12  H   UNL     1       3.488   3.910  17.920  0.00  0.00    +0.000 HD
BRANCH   7  13
ATOM     13  C   UNL     1       6.566   4.655  14.827  0.00  0.00    +0.000 C 
ATOM     14  O   UNL     1       7.476   5.436  14.565  0.00  0.00    +0.000 OA
BRANCH  13  15
ATOM     15  O   UNL     1       6.250   3.559  14.075  0.00  0.00    +0.000 OA
BRANCH  15  17
ATOM     16  C   UNL     1       5.068   3.326  12.012  0.00  0.00    +0.000 C 
ATOM     17  C   UNL     1       6.387   3.716  12.660  0.00  0.00    +0.000 C 
ENDBRANCH  15  17
ENDBRANCH  13  15
ENDBRANCH   7  13
ENDBRANCH   1   9
BRANCH   4  18
ATOM     18  N   UNL     1       0.739   9.244  20.334  0.00  0.00    +0.000 N 
ATOM     19  H   UNL     1       0.781   9.257  21.351  0.00  0.00    +0.000 HD
BRANCH  18  20
ATOM     20  S   UNL     1       0.259  10.706  19.661  0.00  0.00    +0.000 S 
ATOM     21  O   UNL     1       1.425  11.566  19.710  0.00  0.00    +0.000 OA
ATOM     22  O   UNL     1      -0.427  10.459  18.411  0.00  0.00    +0.000 OA
BRANCH  20  23
ATOM     23  C   UNL     1      -0.914  11.326  20.844  0.00  0.00    +0.000 A 
ATOM     24  C   UNL     1      -0.776  11.011  22.198  0.00  0.00    +0.000 A 
ATOM     25  C   UNL     1      -1.686  11.532  23.122  0.00  0.00    +0.000 A 
ATOM     26  C   UNL     1      -2.726  12.373  22.699  0.00  0.00    +0.000 A 
ATOM     27  C   UNL     1      -3.699  12.957  23.681  0.00  0.00    +0.000 C 
ATOM     28  C   UNL     1      -2.842  12.690  21.338  0.00  0.00    +0.000 A 
ATOM     29  C   UNL     1      -1.937  12.174  20.410  0.00  0.00    +0.000 A 
ENDBRANCH  20  23
ENDBRANCH  18  20
ENDBRANCH   4  18
TORSDOF 7
ENDMDL
MODEL 6
REMARK VINA RESULT:      -7.7      2.631     10.404
REMARK  Name = 
REMARK  9 active torsions:
REMARK  status: ('A' for Active; 'I' for Inactive)
REMARK    1  A    between atoms: C_1  and  C_2
REMARK    2  A    between atoms: C_2  and  O_3
REMARK    3  A    between atoms: O_3  and  C_4
REMARK    4  A    between atoms: C_4  and  C_6
REMARK    5  A    between atoms: C_8  and  C_9
REMARK    6  A    between atoms: C_12  and  N_13
REMARK    7  A    between atoms: N_13  and  S_14
REMARK    8  A    between atoms: S_14  and  C_17
REMARK    9  A    between atoms: C_20  and  C_21
REMARK                            x       y       z     vdW  Elec       q    Type
REMARK                         _______ _______ _______ _____ _____    ______ ____
ROOT
ATOM      1  C   UNL     1       1.466   8.065  20.438  0.00  0.00    +0.000 A 
ATOM      2  C   UNL     1       2.062   8.177  19.174  0.00  0.00    +0.000 A 
ATOM      3  C   UNL     1       2.663   7.068  18.565  0.00  0.00    +0.000 A 
ATOM      4  C   UNL     1       2.662   5.838  19.222  0.00  0.00    +0.000 A 
ATOM      5  C   UNL     1       2.068   5.711  20.474  0.00  0.00    +0.000 A 
ATOM      6  C   UNL     1       1.474   6.820  21.081  0.00  0.00    +0.000 A 
ENDROOT
BRANCH   1   9
ATOM      7  C   UNL     1       0.065  11.213  21.749  0.00  0.00    +0.000 A 
ATOM      8  C   UNL     1       0.563  10.493  20.628  0.00  0.00    +0.000 A 
ATOM      9  C   UNL     1       0.862   9.226  21.084  0.00  0.00    +0.000 A 
ATOM     10  N   UNL     1       0.508   9.247  22.410  0.00  0.00    +0.000 N 
ATOM     11  N   UNL     1       0.013  10.416  22.833  0.00  0.00    +0.000 NA
ATOM     12  H   UNL     1       0.613   8.503  23.088  0.00  0.00    +0.000 HD
BRANCH   7  13
ATOM     13  C   UNL     1      -0.266  12.643  21.793  0.00  0.00    +0.000 C 
ATOM     14  O   UNL     1       0.581  13.522  21.918  0.00  0.00    +0.000 OA
BRANCH  13  15
ATOM     15  O   UNL     1      -1.614  12.866  21.799  0.00  0.00    +0.000 OA
BRANCH  15  17
ATOM     16  C   UNL     1      -3.174  12.254  23.503  0.00  0.00    +0.000 C 
ATOM     17  C   UNL     1      -2.167  13.298  23.045  0.00  0.00    +0.000 C 
ENDBRANCH  15  17
ENDBRANCH  13  15
ENDBRANCH   7  13
ENDBRANCH   1   9
BRANCH   4  18
ATOM     18  N   UNL     1       3.221   4.682  18.624  0.00  0.00    +0.000 N 
ATOM     19  H   UNL     1       2.878   4.381  17.714  0.00  0.00    +0.000 HD
BRANCH  18  20
ATOM     20  S   UNL     1       4.830   4.286  18.903  0.00  0.00    +0.000 S 
ATOM     21  O   UNL     1       5.370   5.367  19.703  0.00  0.00    +0.000 OA
ATOM     22  O   UNL     1       4.917   2.914  19.355  0.00  0.00    +0.000 OA
BRANCH  20  23
ATOM     23  C   UNL     1       5.557   4.402  17.285  0.00  0.00    +0.000 A 
ATOM     24  C   UNL     1       4.757   4.270  16.146  0.00  0.00    +0.000 A 
ATOM     25  C   UNL     1       5.336   4.396  14.881  0.00  0.00    +0.000 A 
ATOM     26  C   UNL     1       6.707   4.661  14.749  0.00  0.00    +0.000 A 
ATOM     27  C   UNL     1       7.339   4.819  13.397  0.00  0.00    +0.000 C 
ATOM     28  C   UNL     1       7.492   4.804  15.902  0.00  0.00    +0.000 A 
ATOM     29  C   UNL     1       6.921   4.680  17.168  0.00  0.00    +0.000 A 
ENDBRANCH  20  23
ENDBRANCH  18  20
ENDBRANCH   4  18
TORSDOF 7
ENDMDL
MODEL 7
REMARK VINA RESULT:      -7.6      0.833      1.533
REMARK  Name = 
REMARK  9 active torsions:
REMARK  status: ('A' for Active; 'I' for Inactive)
REMARK    1  A    between atoms: C_1  and  C_2
REMARK    2  A    between atoms: C_2  and  O_3
REMARK    3  A    between atoms: O_3  and  C_4
REMARK    4  A    between atoms: C_4  and  C_6
REMARK    5  A    between atoms: C_8  and  C_9
REMARK    6  A    between atoms: C_12  and  N_13
REMARK    7  A    between atoms: N_13  and  S_14
REMARK    8  A    between atoms: S_14  and  C_17
REMARK    9  A    between atoms: C_20  and  C_21
REMARK                            x       y       z     vdW  Elec       q    Type
REMARK                         _______ _______ _______ _____ _____    ______ ____
ROOT
ATOM      1  C   UNL     1       2.567   7.449  18.567  0.00  0.00    +0.000 A 
ATOM      2  C   UNL     1       2.228   7.200  19.905  0.00  0.00    +0.000 A 
ATOM      3  C   UNL     1       1.317   8.024  20.578  0.00  0.00    +0.000 A 
ATOM      4  C   UNL     1       0.737   9.100  19.908  0.00  0.00    +0.000 A 
ATOM      5  C   UNL     1       1.059   9.355  18.578  0.00  0.00    +0.000 A 
ATOM      6  C   UNL     1       1.971   8.535  17.911  0.00  0.00    +0.000 A 
ENDROOT
BRANCH   1   9
ATOM      7  C   UNL     1       5.149   5.661  16.637  0.00  0.00    +0.000 A 
ATOM      8  C   UNL     1       4.673   6.900  17.149  0.00  0.00    +0.000 A 
ATOM      9  C   UNL     1       3.534   6.607  17.872  0.00  0.00    +0.000 A 
ATOM     10  N   UNL     1       3.412   5.243  17.780  0.00  0.00    +0.000 N 
ATOM     11  N   UNL     1       4.371   4.647  17.062  0.00  0.00    +0.000 NA
ATOM     12  H   UNL     1       2.673   4.664  18.159  0.00  0.00    +0.000 HD
BRANCH   7  13
ATOM     13  C   UNL     1       6.263   5.473  15.699  0.00  0.00    +0.000 C 
ATOM     14  O   UNL     1       7.425   5.758  15.976  0.00  0.00    +0.000 OA
BRANCH  13  15
ATOM     15  O   UNL     1       5.843   5.064  14.465  0.00  0.00    +0.000 OA
BRANCH  15  17
ATOM     16  C   UNL     1       5.783   3.526  12.639  0.00  0.00    +0.000 C 
ATOM     17  C   UNL     1       6.353   3.805  14.021  0.00  0.00    +0.000 C 
ENDBRANCH  15  17
ENDBRANCH  13  15
ENDBRANCH   7  13
ENDBRANCH   1   9
BRANCH   4  18
ATOM     18  N   UNL     1      -0.220   9.933  20.538  0.00  0.00    +0.000 N 
ATOM     19  H   UNL     1      -1.176   9.597  20.642  0.00  0.00    +0.000 HD
BRANCH  18  20
ATOM     20  S   UNL     1       0.257  10.993  21.750  0.00  0.00    +0.000 S 
ATOM     21  O   UNL     1       0.519  10.171  22.915  0.00  0.00    +0.000 OA
ATOM     22  O   UNL     1       1.268  11.891  21.234  0.00  0.00    +0.000 OA
BRANCH  20  23
ATOM     23  C   UNL     1      -1.223  11.924  22.073  0.00  0.00    +0.000 A 
ATOM     24  C   UNL     1      -1.993  11.646  23.206  0.00  0.00    +0.000 A 
ATOM     25  C   UNL     1      -3.136  12.407  23.465  0.00  0.00    +0.000 A 
ATOM     26  C   UNL     1      -3.505  13.450  22.603  0.00  0.00    +0.000 A 
ATOM     27  C   UNL     1      -4.718  14.290  22.880  0.00  0.00    +0.000 C 
ATOM     28  C   UNL     1      -2.714  13.726  21.479  0.00  0.00    +0.000 A 
ATOM     29  C   UNL     1      -1.572  12.970  21.214  0.00  0.00    +0.000 A 
ENDBRANCH  20  23
ENDBRANCH  18  20
ENDBRANCH   4  18
TORSDOF 7
ENDMDL
MODEL 8
REMARK VINA RESULT:      -7.6      3.017      9.661
REMARK  Name = 
REMARK  9 active torsions:
REMARK  status: ('A' for Active; 'I' for Inactive)
REMARK    1  A    between atoms: C_1  and  C_2
REMARK    2  A    between atoms: C_2  and  O_3
REMARK    3  A    between atoms: O_3  and  C_4
REMARK    4  A    between atoms: C_4  and  C_6
REMARK    5  A    between atoms: C_8  and  C_9
REMARK    6  A    between atoms: C_12  and  N_13
REMARK    7  A    between atoms: N_13  and  S_14
REMARK    8  A    between atoms: S_14  and  C_17
REMARK    9  A    between atoms: C_20  and  C_21
REMARK                            x       y       z     vdW  Elec       q    Type
REMARK                         _______ _______ _______ _____ _____    ______ ____
ROOT
ATOM      1  C   UNL     1       1.599   7.093  20.140  0.00  0.00    +0.000 A 
ATOM      2  C   UNL     1       1.414   5.929  20.900  0.00  0.00    +0.000 A 
ATOM      3  C   UNL     1       1.647   4.665  20.342  0.00  0.00    +0.000 A 
ATOM      4  C   UNL     1       2.072   4.565  19.018  0.00  0.00    +0.000 A 
ATOM      5  C   UNL     1       2.265   5.712  18.254  0.00  0.00    +0.000 A 
ATOM      6  C   UNL     1       2.028   6.970  18.811  0.00  0.00    +0.000 A 
ENDROOT
BRANCH   1   9
ATOM      7  C   UNL     1       0.895  10.552  21.204  0.00  0.00    +0.000 A 
ATOM      8  C   UNL     1       0.848   9.579  20.166  0.00  0.00    +0.000 A 
ATOM      9  C   UNL     1       1.334   8.408  20.712  0.00  0.00    +0.000 A 
ATOM     10  N   UNL     1       1.609   8.728  22.017  0.00  0.00    +0.000 N 
ATOM     11  N   UNL     1       1.342   9.997  22.346  0.00  0.00    +0.000 NA
ATOM     12  H   UNL     1       2.015   8.129  22.726  0.00  0.00    +0.000 HD
BRANCH   7  13
ATOM     13  C   UNL     1       0.602  11.985  21.072  0.00  0.00    +0.000 C 
ATOM     14  O   UNL     1       0.917  12.644  20.086  0.00  0.00    +0.000 OA
BRANCH  13  15
ATOM     15  O   UNL     1       0.056  12.511  22.209  0.00  0.00    +0.000 OA
BRANCH  15  17
ATOM     16  C   UNL     1      -2.079  11.855  23.057  0.00  0.00    +0.000 C 
ATOM     17  C   UNL     1      -1.339  12.819  22.143  0.00  0.00    +0.000 C 
ENDBRANCH  15  17
ENDBRANCH  13  15
ENDBRANCH   7  13
ENDBRANCH   1   9
BRANCH   4  18
ATOM     18  N   UNL     1       2.358   3.309  18.427  0.00  0.00    +0.000 N 
ATOM     19  H   UNL     1       1.916   3.067  17.543  0.00  0.00    +0.000 HD
BRANCH  18  20
ATOM     20  S   UNL     1       3.868   2.605  18.643  0.00  0.00    +0.000 S 
ATOM     21  O   UNL     1       3.979   2.333  20.062  0.00  0.00    +0.000 OA
ATOM     22  O   UNL     1       4.050   1.550  17.669  0.00  0.00    +0.000 OA
BRANCH  20  23
ATOM     23  C   UNL     1       4.987   3.932  18.262  0.00  0.00    +0.000 A 
ATOM     24  C   UNL     1       5.196   4.313  16.934  0.00  0.00    +0.000 A 
ATOM     25  C   UNL     1       6.053   5.380  16.651  0.00  0.00    +0.000 A 
ATOM     26  C   UNL     1       6.694   6.072  17.689  0.00  0.00    +0.000 A 
ATOM     27  C   UNL     1       7.602   7.233  17.402  0.00  0.00    +0.000 C 
ATOM     28  C   UNL     1       6.463   5.685  19.017  0.00  0.00    +0.000 A 
ATOM     29  C   UNL     1       5.608   4.622  19.307  0.00  0.00    +0.000 A 
ENDBRANCH  20  23
ENDBRANCH  18  20
ENDBRANCH   4  18
TORSDOF 7
ENDMDL
MODEL 9
REMARK VINA RESULT:      -7.6      3.337      9.388
REMARK  Name = 
REMARK  9 active torsions:
REMARK  status: ('A' for Active; 'I' for Inactive)
REMARK    1  A    between atoms: C_1  and  C_2
REMARK    2  A    between atoms: C_2  and  O_3
REMARK    3  A    between atoms: O_3  and  C_4
REMARK    4  A    between atoms: C_4  and  C_6
REMARK    5  A    between atoms: C_8  and  C_9
REMARK    6  A    between atoms: C_12  and  N_13
REMARK    7  A    between atoms: N_13  and  S_14
REMARK    8  A    between atoms: S_14  and  C_17
REMARK    9  A    between atoms: C_20  and  C_21
REMARK                            x       y       z     vdW  Elec       q    Type
REMARK                         _______ _______ _______ _____ _____    ______ ____
ROOT
ATOM      1  C   UNL     1       1.592   7.133  20.108  0.00  0.00    +0.000 A 
ATOM      2  C   UNL     1       1.394   5.979  20.880  0.00  0.00    +0.000 A 
ATOM      3  C   UNL     1       1.627   4.708  20.339  0.00  0.00    +0.000 A 
ATOM      4  C   UNL     1       2.066   4.590  19.021  0.00  0.00    +0.000 A 
ATOM      5  C   UNL     1       2.273   5.727  18.246  0.00  0.00    +0.000 A 
ATOM      6  C   UNL     1       2.035   6.993  18.786  0.00  0.00    +0.000 A 
ENDROOT
BRANCH   1   9
ATOM      7  C   UNL     1       0.890  10.607  21.124  0.00  0.00    +0.000 A 
ATOM      8  C   UNL     1       0.846   9.621  20.099  0.00  0.00    +0.000 A 
ATOM      9  C   UNL     1       1.326   8.456  20.662  0.00  0.00    +0.000 A 
ATOM     10  N   UNL     1       1.596   8.792  21.965  0.00  0.00    +0.000 N 
ATOM     11  N   UNL     1       1.330  10.066  22.275  0.00  0.00    +0.000 NA
ATOM     12  H   UNL     1       1.996   8.202  22.683  0.00  0.00    +0.000 HD
BRANCH   7  13
ATOM     13  C   UNL     1       0.601  12.039  20.972  0.00  0.00    +0.000 C 
ATOM     14  O   UNL     1       0.535  12.811  21.924  0.00  0.00    +0.000 OA
BRANCH  13  15
ATOM     15  O   UNL     1       0.300  12.376  19.683  0.00  0.00    +0.000 OA
BRANCH  15  17
ATOM     16  C   UNL     1      -1.478  12.051  18.121  0.00  0.00    +0.000 C 
ATOM     17  C   UNL     1      -1.067  12.707  19.430  0.00  0.00    +0.000 C 
ENDBRANCH  15  17
ENDBRANCH  13  15
ENDBRANCH   7  13
ENDBRANCH   1   9
BRANCH   4  18
ATOM     18  N   UNL     1       2.353   3.327  18.449  0.00  0.00    +0.000 N 
ATOM     19  H   UNL     1       1.917   3.074  17.564  0.00  0.00    +0.000 HD
BRANCH  18  20
ATOM     20  S   UNL     1       3.859   2.621  18.683  0.00  0.00    +0.000 S 
ATOM     21  O   UNL     1       3.964   2.376  20.108  0.00  0.00    +0.000 OA
ATOM     22  O   UNL     1       4.041   1.547  17.730  0.00  0.00    +0.000 OA
BRANCH  20  23
ATOM     23  C   UNL     1       4.985   3.937  18.282  0.00  0.00    +0.000 A 
ATOM     24  C   UNL     1       5.186   4.304  16.948  0.00  0.00    +0.000 A 
ATOM     25  C   UNL     1       6.049   5.363  16.649  0.00  0.00    +0.000 A 
ATOM     26  C   UNL     1       6.702   6.059  17.676  0.00  0.00    +0.000 A 
ATOM     27  C   UNL     1       7.615   7.211  17.371  0.00  0.00    +0.000 C 
ATOM     28  C   UNL     1       6.478   5.686  19.009  0.00  0.00    +0.000 A 
ATOM     29  C   UNL     1       5.619   4.632  19.315  0.00  0.00    +0.000 A 
ENDBRANCH  20  23
ENDBRANCH  18  20
ENDBRANCH   4  18
TORSDOF 7
ENDMDL
