MODEL 1
REMARK VINA RESULT:      -6.1      0.000      0.000
REMARK  Name = 
REMARK  8 active torsions:
REMARK  status: ('A' for Active; 'I' for Inactive)
REMARK    1  A    between atoms: C_1  and  N_2
REMARK    2  A    between atoms: N_2  and  C_3
REMARK    3  A    between atoms: C_4  and  O_6
REMARK    4  A    between atoms: O_6  and  C_7
REMARK    5  A    between atoms: C_11  and  N_12
REMARK    6  A    between atoms: N_12  and  C_13
REMARK    7  A    between atoms: N_12  and  C_14
REMARK    8  A    between atoms: N_12  and  C_15
REMARK                            x       y       z     vdW  Elec       q    Type
REMARK                         _______ _______ _______ _____ _____    ______ ____
ROOT
ATOM      1  C   UNL     1       4.592   4.462  16.781  0.00  0.00    +0.000 A 
ATOM      2  C   UNL     1       4.551   5.847  16.878  0.00  0.00    +0.000 A 
ATOM      3  C   UNL     1       3.655   6.441  17.751  0.00  0.00    +0.000 A 
ATOM      4  C   UNL     1       2.809   5.646  18.524  0.00  0.00    +0.000 A 
ATOM      5  C   UNL     1       2.864   4.239  18.460  0.00  0.00    +0.000 A 
ATOM      6  C   UNL     1       3.717   3.655  17.522  0.00  0.00    +0.000 A 
ENDROOT
BRANCH   5   7
ATOM      7  N   UNL     1       2.076   3.415  19.476  0.00  0.00    +0.000 NA
ATOM      8  C   UNL     1       3.071   2.672  20.374  0.00  0.00    +0.000 C 
ATOM      9  C   UNL     1       1.167   4.337  20.276  0.00  0.00    +0.000 C 
ATOM     10  C   UNL     1       1.231   2.332  18.804  0.00  0.00    +0.000 C 
ENDBRANCH   5   7
BRANCH   1  11
ATOM     11  O   UNL     1       5.559   3.751  16.042  0.00  0.00    +0.000 OA
BRANCH  11  15
ATOM     12  C   UNL     1       5.542   3.861  13.377  0.00  0.00    +0.000 C 
ATOM     13  N   UNL     1       6.638   4.436  14.123  0.00  0.00    +0.000 N 
ATOM     14  C   UNL     1       7.715   5.077  13.401  0.00  0.00    +0.000 C 
ATOM     15  C   UNL     1       6.677   4.401  15.506  0.00  0.00    +0.000 C 
ATOM     16  O   UNL     1       7.649   4.775  16.158  0.00  0.00    +0.000 OA
ENDBRANCH  11  15
ENDBRANCH   1  11
TORSDOF 3
ENDMDL
MODEL 2
REMARK VINA RESULT:      -6.1      0.166      1.058
REMARK  Name = 
REMARK  8 active torsions:
REMARK  status: ('A' for Active; 'I' for Inactive)
REMARK    1  A    between atoms: C_1  and  N_2
REMARK    2  A    between atoms: N_2  and  C_3
REMARK    3  A    between atoms: C_4  and  O_6
REMARK    4  A    between atoms: O_6  and  C_7
REMARK    5  A    between atoms: C_11  and  N_12
REMARK    6  A    between atoms: N_12  and  C_13
REMARK    7  A    between atoms: N_12  and  C_14
REMARK    8  A    between atoms: N_12  and  C_15
REMARK                            x       y       z     vdW  Elec       q    Type
REMARK                         _______ _______ _______ _____ _____    ______ ____
ROOT
ATOM      1  C   UNL     1       4.715   4.474  16.736  0.00  0.00    +0.000 A 
ATOM      2  C   UNL     1       4.683   5.861  16.786  0.00  0.00    +0.000 A 
ATOM      3  C   UNL     1       3.783   6.490  17.632  0.00  0.00    +0.000 A 
ATOM      4  C   UNL     1       2.926   5.726  18.425  0.00  0.00    +0.000 A 
ATOM      5  C   UNL     1       2.973   4.318  18.408  0.00  0.00    +0.000 A 
ATOM      6  C   UNL     1       3.830   3.697  17.497  0.00  0.00    +0.000 A 
ENDROOT
BRANCH   5   7
ATOM      7  N   UNL     1       2.172   3.533  19.445  0.00  0.00    +0.000 NA
ATOM      8  C   UNL     1       1.426   4.530  20.338  0.00  0.00    +0.000 C 
ATOM      9  C   UNL     1       1.219   2.585  18.733  0.00  0.00    +0.000 C 
ATOM     10  C   UNL     1       3.077   2.730  20.380  0.00  0.00    +0.000 C 
ENDBRANCH   5   7
BRANCH   1  11
ATOM     11  O   UNL     1       5.684   3.733  16.029  0.00  0.00    +0.000 OA
BRANCH  11  15
ATOM     12  C   UNL     1       5.544   3.922  13.371  0.00  0.00    +0.000 C 
ATOM     13  N   UNL     1       6.693   4.439  14.080  0.00  0.00    +0.000 N 
ATOM     14  C   UNL     1       7.756   5.065  13.324  0.00  0.00    +0.000 C 
ATOM     15  C   UNL     1       6.796   4.362  15.458  0.00  0.00    +0.000 C 
ATOM     16  O   UNL     1       7.810   4.684  16.072  0.00  0.00    +0.000 OA
ENDBRANCH  11  15
ENDBRANCH   1  11
TORSDOF 3
ENDMDL
MODEL 3
REMARK VINA RESULT:      -6.1      1.692      2.349
REMARK  Name = 
REMARK  8 active torsions:
REMARK  status: ('A' for Active; 'I' for Inactive)
REMARK    1  A    between atoms: C_1  and  N_2
REMARK    2  A    between atoms: N_2  and  C_3
REMARK    3  A    between atoms: C_4  and  O_6
REMARK    4  A    between atoms: O_6  and  C_7
REMARK    5  A    between atoms: C_11  and  N_12
REMARK    6  A    between atoms: N_12  and  C_13
REMARK    7  A    between atoms: N_12  and  C_14
REMARK    8  A    between atoms: N_12  and  C_15
REMARK                            x       y       z     vdW  Elec       q    Type
REMARK                         _______ _______ _______ _____ _____    ______ ____
ROOT
ATOM      1  C   UNL     1       4.242   6.006  18.179  0.00  0.00    +0.000 A 
ATOM      2  C   UNL     1       3.291   6.959  18.522  0.00  0.00    +0.000 A 
ATOM      3  C   UNL     1       2.187   6.579  19.267  0.00  0.00    +0.000 A 
ATOM      4  C   UNL     1       2.043   5.251  19.667  0.00  0.00    +0.000 A 
ATOM      5  C   UNL     1       3.018   4.282  19.355  0.00  0.00    +0.000 A 
ATOM      6  C   UNL     1       4.087   4.660  18.540  0.00  0.00    +0.000 A 
ENDROOT
BRANCH   5   7
ATOM      7  N   UNL     1       2.926   2.898  19.995  0.00  0.00    +0.000 NA
ATOM      8  C   UNL     1       2.397   3.059  21.424  0.00  0.00    +0.000 C 
ATOM      9  C   UNL     1       2.022   2.012  19.151  0.00  0.00    +0.000 C 
ATOM     10  C   UNL     1       4.298   2.237  20.130  0.00  0.00    +0.000 C 
ENDBRANCH   5   7
BRANCH   1  11
ATOM     11  O   UNL     1       5.471   6.307  17.557  0.00  0.00    +0.000 OA
BRANCH  11  15
ATOM     12  C   UNL     1       7.395   4.538  17.020  0.00  0.00    +0.000 C 
ATOM     13  N   UNL     1       6.665   5.170  15.945  0.00  0.00    +0.000 N 
ATOM     14  C   UNL     1       6.990   4.820  14.580  0.00  0.00    +0.000 C 
ATOM     15  C   UNL     1       5.658   6.088  16.187  0.00  0.00    +0.000 C 
ATOM     16  O   UNL     1       5.104   6.726  15.295  0.00  0.00    +0.000 OA
ENDBRANCH  11  15
ENDBRANCH   1  11
TORSDOF 3
ENDMDL
MODEL 4
REMARK VINA RESULT:      -6.1      1.710      2.182
REMARK  Name = 
REMARK  8 active torsions:
REMARK  status: ('A' for Active; 'I' for Inactive)
REMARK    1  A    between atoms: C_1  and  N_2
REMARK    2  A    between atoms: N_2  and  C_3
REMARK    3  A    between atoms: C_4  and  O_6
REMARK    4  A    between atoms: O_6  and  C_7
REMARK    5  A    between atoms: C_11  and  N_12
REMARK    6  A    between atoms: N_12  and  C_13
REMARK    7  A    between atoms: N_12  and  C_14
REMARK    8  A    between atoms: N_12  and  C_15
REMARK                            x       y       z     vdW  Elec       q    Type
REMARK                         _______ _______ _______ _____ _____    ______ ____
ROOT
ATOM      1  C   UNL     1       4.269   6.068  18.220  0.00  0.00    +0.000 A 
ATOM      2  C   UNL     1       3.359   7.049  18.595  0.00  0.00    +0.000 A 
ATOM      3  C   UNL     1       2.257   6.699  19.358  0.00  0.00    +0.000 A 
ATOM      4  C   UNL     1       2.075   5.371  19.745  0.00  0.00    +0.000 A 
ATOM      5  C   UNL     1       3.008   4.372  19.400  0.00  0.00    +0.000 A 
ATOM      6  C   UNL     1       4.073   4.724  18.568  0.00  0.00    +0.000 A 
ENDROOT
BRANCH   5   7
ATOM      7  N   UNL     1       2.881   2.984  20.025  0.00  0.00    +0.000 NA
ATOM      8  C   UNL     1       4.266   2.331  20.042  0.00  0.00    +0.000 C 
ATOM      9  C   UNL     1       2.297   3.114  21.425  0.00  0.00    +0.000 C 
ATOM     10  C   UNL     1       1.992   2.060  19.192  0.00  0.00    +0.000 C 
ENDBRANCH   5   7
BRANCH   1  11
ATOM     11  O   UNL     1       5.494   6.333  17.576  0.00  0.00    +0.000 OA
BRANCH  11  15
ATOM     12  C   UNL     1       7.420   4.562  17.060  0.00  0.00    +0.000 C 
ATOM     13  N   UNL     1       6.670   5.158  15.979  0.00  0.00    +0.000 N 
ATOM     14  C   UNL     1       6.976   4.771  14.619  0.00  0.00    +0.000 C 
ATOM     15  C   UNL     1       5.661   6.076  16.211  0.00  0.00    +0.000 C 
ATOM     16  O   UNL     1       5.089   6.685  15.309  0.00  0.00    +0.000 OA
ENDBRANCH  11  15
ENDBRANCH   1  11
TORSDOF 3
ENDMDL
MODEL 5
REMARK VINA RESULT:      -6.1      0.672      1.227
REMARK  Name = 
REMARK  8 active torsions:
REMARK  status: ('A' for Active; 'I' for Inactive)
REMARK    1  A    between atoms: C_1  and  N_2
REMARK    2  A    between atoms: N_2  and  C_3
REMARK    3  A    between atoms: C_4  and  O_6
REMARK    4  A    between atoms: O_6  and  C_7
REMARK    5  A    between atoms: C_11  and  N_12
REMARK    6  A    between atoms: N_12  and  C_13
REMARK    7  A    between atoms: N_12  and  C_14
REMARK    8  A    between atoms: N_12  and  C_15
REMARK                            x       y       z     vdW  Elec       q    Type
REMARK                         _______ _______ _______ _____ _____    ______ ____
ROOT
ATOM      1  C   UNL     1       4.940   4.775  16.397  0.00  0.00    +0.000 A 
ATOM      2  C   UNL     1       4.859   6.148  16.589  0.00  0.00    +0.000 A 
ATOM      3  C   UNL     1       3.963   6.653  17.516  0.00  0.00    +0.000 A 
ATOM      4  C   UNL     1       3.158   5.782  18.250  0.00  0.00    +0.000 A 
ATOM      5  C   UNL     1       3.255   4.385  18.090  0.00  0.00    +0.000 A 
ATOM      6  C   UNL     1       4.107   3.892  17.099  0.00  0.00    +0.000 A 
ENDROOT
BRANCH   5   7
ATOM      7  N   UNL     1       2.515   3.469  19.063  0.00  0.00    +0.000 NA
ATOM      8  C   UNL     1       1.833   2.357  18.259  0.00  0.00    +0.000 C 
ATOM      9  C   UNL     1       3.501   2.913  20.080  0.00  0.00    +0.000 C 
ATOM     10  C   UNL     1       1.392   4.203  19.798  0.00  0.00    +0.000 C 
ENDBRANCH   5   7
BRANCH   1  11
ATOM     11  O   UNL     1       5.913   4.147  15.594  0.00  0.00    +0.000 OA
BRANCH  11  15
ATOM     12  C   UNL     1       6.036   3.581  12.990  0.00  0.00    +0.000 C 
ATOM     13  N   UNL     1       6.915   4.576  13.562  0.00  0.00    +0.000 N 
ATOM     14  C   UNL     1       7.851   5.261  12.698  0.00  0.00    +0.000 C 
ATOM     15  C   UNL     1       6.875   4.897  14.908  0.00  0.00    +0.000 C 
ATOM     16  O   UNL     1       7.687   5.650  15.441  0.00  0.00    +0.000 OA
ENDBRANCH  11  15
ENDBRANCH   1  11
TORSDOF 3
ENDMDL
MODEL 6
REMARK VINA RESULT:      -5.8      1.054      1.524
REMARK  Name = 
REMARK  8 active torsions:
REMARK  status: ('A' for Active; 'I' for Inactive)
REMARK    1  A    between atoms: C_1  and  N_2
REMARK    2  A    between atoms: N_2  and  C_3
REMARK    3  A    between atoms: C_4  and  O_6
REMARK    4  A    between atoms: O_6  and  C_7
REMARK    5  A    between atoms: C_11  and  N_12
REMARK    6  A    between atoms: N_12  and  C_13
REMARK    7  A    between atoms: N_12  and  C_14
REMARK    8  A    between atoms: N_12  and  C_15
REMARK                            x       y       z     vdW  Elec       q    Type
REMARK                         _______ _______ _______ _____ _____    ______ ____
ROOT
ATOM      1  C   UNL     1       4.878   5.322  17.649  0.00  0.00    +0.000 A 
ATOM      2  C   UNL     1       4.375   6.613  17.536  0.00  0.00    +0.000 A 
ATOM      3  C   UNL     1       3.099   6.889  17.999  0.00  0.00    +0.000 A 
ATOM      4  C   UNL     1       2.336   5.874  18.575  0.00  0.00    +0.000 A 
ATOM      5  C   UNL     1       2.846   4.569  18.727  0.00  0.00    +0.000 A 
ATOM      6  C   UNL     1       4.103   4.286  18.189  0.00  0.00    +0.000 A 
ENDROOT
BRANCH   5   7
ATOM      7  N   UNL     1       2.061   3.552  19.554  0.00  0.00    +0.000 NA
ATOM      8  C   UNL     1       1.238   2.682  18.599  0.00  0.00    +0.000 C 
ATOM      9  C   UNL     1       3.031   2.724  20.386  0.00  0.00    +0.000 C 
ATOM     10  C   UNL     1       1.050   4.227  20.482  0.00  0.00    +0.000 C 
ENDBRANCH   5   7
BRANCH   1  11
ATOM     11  O   UNL     1       6.208   4.965  17.351  0.00  0.00    +0.000 OA
BRANCH  11  15
ATOM     12  C   UNL     1       6.019   3.502  15.128  0.00  0.00    +0.000 C 
ATOM     13  N   UNL     1       6.763   4.741  15.124  0.00  0.00    +0.000 N 
ATOM     14  C   UNL     1       7.392   5.174  13.896  0.00  0.00    +0.000 C 
ATOM     15  C   UNL     1       6.877   5.527  16.258  0.00  0.00    +0.000 C 
ATOM     16  O   UNL     1       7.598   6.520  16.314  0.00  0.00    +0.000 OA
ENDBRANCH  11  15
ENDBRANCH   1  11
TORSDOF 3
ENDMDL
MODEL 7
REMARK VINA RESULT:      -5.8      3.381      6.269
REMARK  Name = 
REMARK  8 active torsions:
REMARK  status: ('A' for Active; 'I' for Inactive)
REMARK    1  A    between atoms: C_1  and  N_2
REMARK    2  A    between atoms: N_2  and  C_3
REMARK    3  A    between atoms: C_4  and  O_6
REMARK    4  A    between atoms: O_6  and  C_7
REMARK    5  A    between atoms: C_11  and  N_12
REMARK    6  A    between atoms: N_12  and  C_13
REMARK    7  A    between atoms: N_12  and  C_14
REMARK    8  A    between atoms: N_12  and  C_15
REMARK                            x       y       z     vdW  Elec       q    Type
REMARK                         _______ _______ _______ _____ _____    ______ ____
ROOT
ATOM      1  C   UNL     1       3.068   6.311  18.260  0.00  0.00    +0.000 A 
ATOM      2  C   UNL     1       2.416   5.109  18.015  0.00  0.00    +0.000 A 
ATOM      3  C   UNL     1       3.085   4.096  17.348  0.00  0.00    +0.000 A 
ATOM      4  C   UNL     1       4.403   4.290  16.935  0.00  0.00    +0.000 A 
ATOM      5  C   UNL     1       5.087   5.492  17.207  0.00  0.00    +0.000 A 
ATOM      6  C   UNL     1       4.379   6.532  17.812  0.00  0.00    +0.000 A 
ENDROOT
BRANCH   5   7
ATOM      7  N   UNL     1       6.587   5.576  16.929  0.00  0.00    +0.000 NA
ATOM      8  C   UNL     1       6.834   5.162  15.474  0.00  0.00    +0.000 C 
ATOM      9  C   UNL     1       7.072   6.991  17.207  0.00  0.00    +0.000 C 
ATOM     10  C   UNL     1       7.385   4.591  17.784  0.00  0.00    +0.000 C 
ENDBRANCH   5   7
BRANCH   1  11
ATOM     11  O   UNL     1       2.540   7.347  19.056  0.00  0.00    +0.000 OA
BRANCH  11  15
ATOM     12  C   UNL     1       1.044   8.802  20.718  0.00  0.00    +0.000 C 
ATOM     13  N   UNL     1       1.271   9.248  19.362  0.00  0.00    +0.000 N 
ATOM     14  C   UNL     1       0.681  10.495  18.929  0.00  0.00    +0.000 C 
ATOM     15  C   UNL     1       2.045   8.520  18.475  0.00  0.00    +0.000 C 
ATOM     16  O   UNL     1       2.156   8.814  17.287  0.00  0.00    +0.000 OA
ENDBRANCH  11  15
ENDBRANCH   1  11
TORSDOF 3
ENDMDL
MODEL 8
REMARK VINA RESULT:      -5.7      2.384      5.824
REMARK  Name = 
REMARK  8 active torsions:
REMARK  status: ('A' for Active; 'I' for Inactive)
REMARK    1  A    between atoms: C_1  and  N_2
REMARK    2  A    between atoms: N_2  and  C_3
REMARK    3  A    between atoms: C_4  and  O_6
REMARK    4  A    between atoms: O_6  and  C_7
REMARK    5  A    between atoms: C_11  and  N_12
REMARK    6  A    between atoms: N_12  and  C_13
REMARK    7  A    between atoms: N_12  and  C_14
REMARK    8  A    between atoms: N_12  and  C_15
REMARK                            x       y       z     vdW  Elec       q    Type
REMARK                         _______ _______ _______ _____ _____    ______ ____
ROOT
ATOM      1  C   UNL     1       2.842   5.437  18.182  0.00  0.00    +0.000 A 
ATOM      2  C   UNL     1       2.732   6.815  18.041  0.00  0.00    +0.000 A 
ATOM      3  C   UNL     1       3.764   7.523  17.448  0.00  0.00    +0.000 A 
ATOM      4  C   UNL     1       4.898   6.847  16.995  0.00  0.00    +0.000 A 
ATOM      5  C   UNL     1       5.008   5.446  17.100  0.00  0.00    +0.000 A 
ATOM      6  C   UNL     1       3.995   4.754  17.768  0.00  0.00    +0.000 A 
ENDROOT
BRANCH   5   7
ATOM      7  N   UNL     1       6.162   4.734  16.399  0.00  0.00    +0.000 NA
ATOM      8  C   UNL     1       7.319   4.590  17.394  0.00  0.00    +0.000 C 
ATOM      9  C   UNL     1       5.684   3.383  15.886  0.00  0.00    +0.000 C 
ATOM     10  C   UNL     1       6.715   5.550  15.231  0.00  0.00    +0.000 C 
ENDBRANCH   5   7
BRANCH   1  11
ATOM     11  O   UNL     1       1.798   4.604  18.630  0.00  0.00    +0.000 OA
BRANCH  11  15
ATOM     12  C   UNL     1       1.821   2.010  19.253  0.00  0.00    +0.000 C 
ATOM     13  N   UNL     1       1.621   3.005  20.282  0.00  0.00    +0.000 N 
ATOM     14  C   UNL     1       1.443   2.569  21.650  0.00  0.00    +0.000 C 
ATOM     15  C   UNL     1       1.608   4.359  19.995  0.00  0.00    +0.000 C 
ATOM     16  O   UNL     1       1.323   5.217  20.827  0.00  0.00    +0.000 OA
ENDBRANCH  11  15
ENDBRANCH   1  11
TORSDOF 3
ENDMDL
MODEL 9
REMARK VINA RESULT:      -5.7      2.241      2.771
REMARK  Name = 
REMARK  8 active torsions:
REMARK  status: ('A' for Active; 'I' for Inactive)
REMARK    1  A    between atoms: C_1  and  N_2
REMARK    2  A    between atoms: N_2  and  C_3
REMARK    3  A    between atoms: C_4  and  O_6
REMARK    4  A    between atoms: O_6  and  C_7
REMARK    5  A    between atoms: C_11  and  N_12
REMARK    6  A    between atoms: N_12  and  C_13
REMARK    7  A    between atoms: N_12  and  C_14
REMARK    8  A    between atoms: N_12  and  C_15
REMARK                            x       y       z     vdW  Elec       q    Type
REMARK                         _______ _______ _______ _____ _____    ______ ____
ROOT
ATOM      1  C   UNL     1       5.072   3.822  18.101  0.00  0.00    +0.000 A 
ATOM      2  C   UNL     1       4.443   3.870  16.864  0.00  0.00    +0.000 A 
ATOM      3  C   UNL     1       3.062   3.777  16.799  0.00  0.00    +0.000 A 
ATOM      4  C   UNL     1       2.321   3.642  17.973  0.00  0.00    +0.000 A 
ATOM      5  C   UNL     1       2.944   3.627  19.236  0.00  0.00    +0.000 A 
ATOM      6  C   UNL     1       4.340   3.645  19.283  0.00  0.00    +0.000 A 
ENDROOT
BRANCH   5   7
ATOM      7  N   UNL     1       2.081   3.696  20.495  0.00  0.00    +0.000 NA
ATOM      8  C   UNL     1       2.663   2.732  21.535  0.00  0.00    +0.000 C 
ATOM      9  C   UNL     1       2.048   5.129  21.005  0.00  0.00    +0.000 C 
ATOM     10  C   UNL     1       0.651   3.219  20.236  0.00  0.00    +0.000 C 
ENDBRANCH   5   7
BRANCH   1  11
ATOM     11  O   UNL     1       6.448   4.056  18.295  0.00  0.00    +0.000 OA
BRANCH  11  15
ATOM     12  C   UNL     1       7.214   5.716  16.352  0.00  0.00    +0.000 C 
ATOM     13  N   UNL     1       7.303   6.124  17.736  0.00  0.00    +0.000 N 
ATOM     14  C   UNL     1       7.804   7.445  18.045  0.00  0.00    +0.000 C 
ATOM     15  C   UNL     1       6.910   5.290  18.768  0.00  0.00    +0.000 C 
ATOM     16  O   UNL     1       7.084   5.563  19.953  0.00  0.00    +0.000 OA
ENDBRANCH  11  15
ENDBRANCH   1  11
TORSDOF 3
ENDMDL
