MODEL 1
REMARK VINA RESULT:      -6.6      0.000      0.000
REMARK  Name = 
REMARK  7 active torsions:
REMARK  status: ('A' for Active; 'I' for Inactive)
REMARK    1  A    between atoms: C_1  and  O_2
REMARK    2  A    between atoms: O_2  and  C_3
REMARK    3  A    between atoms: C_6  and  C_7
REMARK    4  A    between atoms: C_8  and  C_9
REMARK    5  A    between atoms: C_13  and  O_14
REMARK    6  A    between atoms: O_14  and  C_15
REMARK    7  A    between atoms: N_19  and  C_20
REMARK                            x       y       z     vdW  Elec       q    Type
REMARK                         _______ _______ _______ _____ _____    ______ ____
ROOT
ATOM      1  C   UNL     1       2.013   7.153  19.812  0.00  0.00    +0.000 A 
ATOM      2  C   UNL     1       2.520   7.691  18.625  0.00  0.00    +0.000 A 
ATOM      3  C   UNL     1       3.424   6.765  18.066  0.00  0.00    +0.000 A 
ATOM      4  C   UNL     1       4.355   6.842  17.016  0.00  0.00    +0.000 A 
ATOM      5  C   UNL     1       4.928   5.689  16.485  0.00  0.00    +0.000 A 
ATOM      6  C   UNL     1       4.556   4.457  16.994  0.00  0.00    +0.000 A 
ATOM      7  C   UNL     1       3.700   4.352  18.123  0.00  0.00    +0.000 A 
ATOM      8  C   UNL     1       3.179   5.540  18.675  0.00  0.00    +0.000 A 
ATOM      9  N   UNL     1       2.424   5.818  19.814  0.00  0.00    +0.000 N 
ATOM     10  C   UNL     1       2.242   4.873  20.898  0.00  0.00    +0.000 C 
ENDROOT
BRANCH   1  14
ATOM     11  C   UNL     1       0.022   9.582  22.781  0.00  0.00    +0.000 A 
ATOM     12  C   UNL     1      -0.735   8.786  21.919  0.00  0.00    +0.000 A 
ATOM     13  C   UNL     1      -0.121   7.957  20.959  0.00  0.00    +0.000 A 
ATOM     14  C   UNL     1       1.269   7.894  20.861  0.00  0.00    +0.000 A 
ATOM     15  C   UNL     1       2.011   8.658  21.786  0.00  0.00    +0.000 A 
ATOM     16  C   UNL     1       1.404   9.519  22.706  0.00  0.00    +0.000 A 
BRANCH  11  18
ATOM     17  C   UNL     1      -1.565  11.330  23.020  0.00  0.00    +0.000 C 
ATOM     18  O   UNL     1      -0.688  10.387  23.630  0.00  0.00    +0.000 OA
ENDBRANCH  11  18
ENDBRANCH   1  14
BRANCH   2  19
ATOM     19  C   UNL     1       2.176   8.983  18.049  0.00  0.00    +0.000 C 
ATOM     20  O   UNL     1       1.055   9.296  17.660  0.00  0.00    +0.000 OA
ENDBRANCH   2  19
BRANCH   5  21
ATOM     21  O   UNL     1       5.801   5.958  15.473  0.00  0.00    +0.000 OA
ATOM     22  C   UNL     1       6.276   4.884  14.684  0.00  0.00    +0.000 C 
ENDBRANCH   5  21
TORSDOF 4
ENDMDL
MODEL 2
REMARK VINA RESULT:      -6.4      1.803      7.596
REMARK  Name = 
REMARK  7 active torsions:
REMARK  status: ('A' for Active; 'I' for Inactive)
REMARK    1  A    between atoms: C_1  and  O_2
REMARK    2  A    between atoms: O_2  and  C_3
REMARK    3  A    between atoms: C_6  and  C_7
REMARK    4  A    between atoms: C_8  and  C_9
REMARK    5  A    between atoms: C_13  and  O_14
REMARK    6  A    between atoms: O_14  and  C_15
REMARK    7  A    between atoms: N_19  and  C_20
REMARK                            x       y       z     vdW  Elec       q    Type
REMARK                         _______ _______ _______ _____ _____    ______ ____
ROOT
ATOM      1  C   UNL     1       2.538   6.975  18.962  0.00  0.00    +0.000 A 
ATOM      2  C   UNL     1       1.934   6.811  20.213  0.00  0.00    +0.000 A 
ATOM      3  C   UNL     1       1.419   8.057  20.625  0.00  0.00    +0.000 A 
ATOM      4  C   UNL     1       0.900   8.529  21.843  0.00  0.00    +0.000 A 
ATOM      5  C   UNL     1       0.200   9.732  21.901  0.00  0.00    +0.000 A 
ATOM      6  C   UNL     1       0.005  10.454  20.738  0.00  0.00    +0.000 A 
ATOM      7  C   UNL     1       0.607  10.058  19.512  0.00  0.00    +0.000 A 
ATOM      8  C   UNL     1       1.358   8.866  19.496  0.00  0.00    +0.000 A 
ATOM      9  N   UNL     1       2.157   8.248  18.534  0.00  0.00    +0.000 N 
ATOM     10  C   UNL     1       2.630   8.922  17.341  0.00  0.00    +0.000 C 
ENDROOT
BRANCH   1  14
ATOM     11  C   UNL     1       4.998   4.185  16.760  0.00  0.00    +0.000 A 
ATOM     12  C   UNL     1       5.596   5.253  17.432  0.00  0.00    +0.000 A 
ATOM     13  C   UNL     1       4.832   6.165  18.185  0.00  0.00    +0.000 A 
ATOM     14  C   UNL     1       3.450   6.009  18.298  0.00  0.00    +0.000 A 
ATOM     15  C   UNL     1       2.879   4.885  17.664  0.00  0.00    +0.000 A 
ATOM     16  C   UNL     1       3.628   4.008  16.874  0.00  0.00    +0.000 A 
BRANCH  11  18
ATOM     17  C   UNL     1       6.143   3.873  14.705  0.00  0.00    +0.000 C 
ATOM     18  O   UNL     1       5.836   3.402  16.014  0.00  0.00    +0.000 OA
ENDBRANCH  11  18
ENDBRANCH   1  14
BRANCH   2  19
ATOM     19  C   UNL     1       1.838   5.570  20.967  0.00  0.00    +0.000 C 
ATOM     20  O   UNL     1       1.103   4.632  20.676  0.00  0.00    +0.000 OA
ENDBRANCH   2  19
BRANCH   5  21
ATOM     21  O   UNL     1      -0.232  10.024  23.161  0.00  0.00    +0.000 OA
ATOM     22  C   UNL     1      -1.316  10.920  23.315  0.00  0.00    +0.000 C 
ENDBRANCH   5  21
TORSDOF 4
ENDMDL
MODEL 3
REMARK VINA RESULT:      -6.2      0.767      1.179
REMARK  Name = 
REMARK  7 active torsions:
REMARK  status: ('A' for Active; 'I' for Inactive)
REMARK    1  A    between atoms: C_1  and  O_2
REMARK    2  A    between atoms: O_2  and  C_3
REMARK    3  A    between atoms: C_6  and  C_7
REMARK    4  A    between atoms: C_8  and  C_9
REMARK    5  A    between atoms: C_13  and  O_14
REMARK    6  A    between atoms: O_14  and  C_15
REMARK    7  A    between atoms: N_19  and  C_20
REMARK                            x       y       z     vdW  Elec       q    Type
REMARK                         _______ _______ _______ _____ _____    ______ ____
ROOT
ATOM      1  C   UNL     1       1.998   7.327  19.631  0.00  0.00    +0.000 A 
ATOM      2  C   UNL     1       2.731   7.661  18.488  0.00  0.00    +0.000 A 
ATOM      3  C   UNL     1       3.395   6.505  18.031  0.00  0.00    +0.000 A 
ATOM      4  C   UNL     1       4.398   6.286  17.071  0.00  0.00    +0.000 A 
ATOM      5  C   UNL     1       4.681   5.001  16.615  0.00  0.00    +0.000 A 
ATOM      6  C   UNL     1       3.948   3.936  17.108  0.00  0.00    +0.000 A 
ATOM      7  C   UNL     1       3.003   4.111  18.154  0.00  0.00    +0.000 A 
ATOM      8  C   UNL     1       2.777   5.416  18.635  0.00  0.00    +0.000 A 
ATOM      9  N   UNL     1       2.031   5.933  19.694  0.00  0.00    +0.000 N 
ATOM     10  C   UNL     1       1.509   5.116  20.772  0.00  0.00    +0.000 C 
ENDROOT
BRANCH   1  14
ATOM     11  C   UNL     1      -0.051   9.969  22.371  0.00  0.00    +0.000 A 
ATOM     12  C   UNL     1       1.108   9.310  22.783  0.00  0.00    +0.000 A 
ATOM     13  C   UNL     1       1.821   8.466  21.910  0.00  0.00    +0.000 A 
ATOM     14  C   UNL     1       1.395   8.283  20.594  0.00  0.00    +0.000 A 
ATOM     15  C   UNL     1       0.259   9.012  20.183  0.00  0.00    +0.000 A 
ATOM     16  C   UNL     1      -0.479   9.811  21.061  0.00  0.00    +0.000 A 
BRANCH  11  18
ATOM     17  C   UNL     1      -1.460  11.817  22.853  0.00  0.00    +0.000 C 
ATOM     18  O   UNL     1      -0.688  10.716  23.324  0.00  0.00    +0.000 OA
ENDBRANCH  11  18
ENDBRANCH   1  14
BRANCH   2  19
ATOM     19  C   UNL     1       2.799   8.973  17.861  0.00  0.00    +0.000 C 
ATOM     20  O   UNL     1       1.858   9.526  17.299  0.00  0.00    +0.000 OA
ENDBRANCH   2  19
BRANCH   5  21
ATOM     21  O   UNL     1       5.677   4.985  15.684  0.00  0.00    +0.000 OA
ATOM     22  C   UNL     1       6.995   4.689  16.106  0.00  0.00    +0.000 C 
ENDBRANCH   5  21
TORSDOF 4
ENDMDL
MODEL 4
REMARK VINA RESULT:      -5.9      2.306      4.464
REMARK  Name = 
REMARK  7 active torsions:
REMARK  status: ('A' for Active; 'I' for Inactive)
REMARK    1  A    between atoms: C_1  and  O_2
REMARK    2  A    between atoms: O_2  and  C_3
REMARK    3  A    between atoms: C_6  and  C_7
REMARK    4  A    between atoms: C_8  and  C_9
REMARK    5  A    between atoms: C_13  and  O_14
REMARK    6  A    between atoms: O_14  and  C_15
REMARK    7  A    between atoms: N_19  and  C_20
REMARK                            x       y       z     vdW  Elec       q    Type
REMARK                         _______ _______ _______ _____ _____    ______ ____
ROOT
ATOM      1  C   UNL     1       4.533   5.618  17.346  0.00  0.00    +0.000 A 
ATOM      2  C   UNL     1       4.202   4.549  16.507  0.00  0.00    +0.000 A 
ATOM      3  C   UNL     1       5.097   4.545  15.418  0.00  0.00    +0.000 A 
ATOM      4  C   UNL     1       5.125   3.848  14.197  0.00  0.00    +0.000 A 
ATOM      5  C   UNL     1       6.278   3.825  13.416  0.00  0.00    +0.000 A 
ATOM      6  C   UNL     1       7.408   4.485  13.864  0.00  0.00    +0.000 A 
ATOM      7  C   UNL     1       7.379   5.286  15.039  0.00  0.00    +0.000 A 
ATOM      8  C   UNL     1       6.182   5.335  15.779  0.00  0.00    +0.000 A 
ATOM      9  N   UNL     1       5.766   6.080  16.884  0.00  0.00    +0.000 N 
ATOM     10  C   UNL     1       6.468   7.255  17.360  0.00  0.00    +0.000 C 
ENDROOT
BRANCH   1  14
ATOM     11  C   UNL     1       1.830   7.255  20.296  0.00  0.00    +0.000 A 
ATOM     12  C   UNL     1       2.520   6.073  20.571  0.00  0.00    +0.000 A 
ATOM     13  C   UNL     1       3.432   5.525  19.649  0.00  0.00    +0.000 A 
ATOM     14  C   UNL     1       3.688   6.167  18.437  0.00  0.00    +0.000 A 
ATOM     15  C   UNL     1       3.027   7.393  18.211  0.00  0.00    +0.000 A 
ATOM     16  C   UNL     1       2.084   7.913  19.102  0.00  0.00    +0.000 A 
BRANCH  11  18
ATOM     17  C   UNL     1       1.203   8.898  21.889  0.00  0.00    +0.000 C 
ATOM     18  O   UNL     1       0.929   7.657  21.243  0.00  0.00    +0.000 OA
ENDBRANCH  11  18
ENDBRANCH   1  14
BRANCH   2  19
ATOM     19  C   UNL     1       3.125   3.592  16.714  0.00  0.00    +0.000 C 
ATOM     20  O   UNL     1       3.136   2.703  17.561  0.00  0.00    +0.000 OA
ENDBRANCH   2  19
BRANCH   5  21
ATOM     21  O   UNL     1       6.121   3.096  12.274  0.00  0.00    +0.000 OA
ATOM     22  C   UNL     1       4.842   3.049  11.671  0.00  0.00    +0.000 C 
ENDBRANCH   5  21
TORSDOF 4
ENDMDL
MODEL 5
REMARK VINA RESULT:      -5.8      2.943      4.562
REMARK  Name = 
REMARK  7 active torsions:
REMARK  status: ('A' for Active; 'I' for Inactive)
REMARK    1  A    between atoms: C_1  and  O_2
REMARK    2  A    between atoms: O_2  and  C_3
REMARK    3  A    between atoms: C_6  and  C_7
REMARK    4  A    between atoms: C_8  and  C_9
REMARK    5  A    between atoms: C_13  and  O_14
REMARK    6  A    between atoms: O_14  and  C_15
REMARK    7  A    between atoms: N_19  and  C_20
REMARK                            x       y       z     vdW  Elec       q    Type
REMARK                         _______ _______ _______ _____ _____    ______ ____
ROOT
ATOM      1  C   UNL     1       1.109   9.388  19.909  0.00  0.00    +0.000 A 
ATOM      2  C   UNL     1       1.116   8.468  20.962  0.00  0.00    +0.000 A 
ATOM      3  C   UNL     1       1.605   7.238  20.476  0.00  0.00    +0.000 A 
ATOM      4  C   UNL     1       1.648   5.939  21.011  0.00  0.00    +0.000 A 
ATOM      5  C   UNL     1       2.442   4.954  20.429  0.00  0.00    +0.000 A 
ATOM      6  C   UNL     1       3.207   5.274  19.321  0.00  0.00    +0.000 A 
ATOM      7  C   UNL     1       3.104   6.545  18.694  0.00  0.00    +0.000 A 
ATOM      8  C   UNL     1       2.249   7.504  19.273  0.00  0.00    +0.000 A 
ATOM      9  N   UNL     1       1.826   8.774  18.880  0.00  0.00    +0.000 N 
ATOM     10  C   UNL     1       1.994   9.288  17.535  0.00  0.00    +0.000 C 
ENDROOT
BRANCH   1  14
ATOM     11  C   UNL     1      -1.169  13.058  20.055  0.00  0.00    +0.000 A 
ATOM     12  C   UNL     1       0.193  13.078  20.360  0.00  0.00    +0.000 A 
ATOM     13  C   UNL     1       0.975  11.909  20.294  0.00  0.00    +0.000 A 
ATOM     14  C   UNL     1       0.409  10.697  19.897  0.00  0.00    +0.000 A 
ATOM     15  C   UNL     1      -0.953  10.718  19.530  0.00  0.00    +0.000 A 
ATOM     16  C   UNL     1      -1.743  11.865  19.644  0.00  0.00    +0.000 A 
BRANCH  11  18
ATOM     17  C   UNL     1      -1.030  15.392  20.464  0.00  0.00    +0.000 C 
ATOM     18  O   UNL     1      -1.835  14.243  20.211  0.00  0.00    +0.000 OA
ENDBRANCH  11  18
ENDBRANCH   1  14
BRANCH   2  19
ATOM     19  C   UNL     1       0.699   8.724  22.333  0.00  0.00    +0.000 C 
ATOM     20  O   UNL     1       1.196   9.575  23.065  0.00  0.00    +0.000 OA
ENDBRANCH   2  19
BRANCH   5  21
ATOM     21  O   UNL     1       2.362   3.763  21.087  0.00  0.00    +0.000 OA
ATOM     22  C   UNL     1       1.239   2.935  20.857  0.00  0.00    +0.000 C 
ENDBRANCH   5  21
TORSDOF 4
ENDMDL
MODEL 6
REMARK VINA RESULT:      -5.8      1.569      7.112
REMARK  Name = 
REMARK  7 active torsions:
REMARK  status: ('A' for Active; 'I' for Inactive)
REMARK    1  A    between atoms: C_1  and  O_2
REMARK    2  A    between atoms: O_2  and  C_3
REMARK    3  A    between atoms: C_6  and  C_7
REMARK    4  A    between atoms: C_8  and  C_9
REMARK    5  A    between atoms: C_13  and  O_14
REMARK    6  A    between atoms: O_14  and  C_15
REMARK    7  A    between atoms: N_19  and  C_20
REMARK                            x       y       z     vdW  Elec       q    Type
REMARK                         _______ _______ _______ _____ _____    ______ ____
ROOT
ATOM      1  C   UNL     1       2.261   7.448  19.083  0.00  0.00    +0.000 A 
ATOM      2  C   UNL     1       1.814   8.733  18.758  0.00  0.00    +0.000 A 
ATOM      3  C   UNL     1       0.927   9.164  19.765  0.00  0.00    +0.000 A 
ATOM      4  C   UNL     1       0.044  10.253  19.869  0.00  0.00    +0.000 A 
ATOM      5  C   UNL     1      -0.516  10.602  21.095  0.00  0.00    +0.000 A 
ATOM      6  C   UNL     1      -0.180   9.871  22.221  0.00  0.00    +0.000 A 
ATOM      7  C   UNL     1       0.623   8.702  22.130  0.00  0.00    +0.000 A 
ATOM      8  C   UNL     1       1.131   8.341  20.866  0.00  0.00    +0.000 A 
ATOM      9  N   UNL     1       1.836   7.233  20.396  0.00  0.00    +0.000 N 
ATOM     10  C   UNL     1       1.959   5.995  21.139  0.00  0.00    +0.000 C 
ENDROOT
BRANCH   1  14
ATOM     11  C   UNL     1       4.589   4.784  16.600  0.00  0.00    +0.000 A 
ATOM     12  C   UNL     1       3.384   4.341  17.148  0.00  0.00    +0.000 A 
ATOM     13  C   UNL     1       2.583   5.189  17.936  0.00  0.00    +0.000 A 
ATOM     14  C   UNL     1       2.965   6.510  18.173  0.00  0.00    +0.000 A 
ATOM     15  C   UNL     1       4.153   6.952  17.553  0.00  0.00    +0.000 A 
ATOM     16  C   UNL     1       4.976   6.098  16.813  0.00  0.00    +0.000 A 
BRANCH  11  18
ATOM     17  C   UNL     1       5.947   4.310  14.712  0.00  0.00    +0.000 C 
ATOM     18  O   UNL     1       5.308   3.853  15.901  0.00  0.00    +0.000 OA
ENDBRANCH  11  18
ENDBRANCH   1  14
BRANCH   2  19
ATOM     19  C   UNL     1       2.197   9.507  17.586  0.00  0.00    +0.000 C 
ATOM     20  O   UNL     1       2.517  10.692  17.608  0.00  0.00    +0.000 OA
ENDBRANCH   2  19
BRANCH   5  21
ATOM     21  O   UNL     1      -1.340  11.685  21.004  0.00  0.00    +0.000 OA
ATOM     22  C   UNL     1      -1.913  11.997  19.750  0.00  0.00    +0.000 C 
ENDBRANCH   5  21
TORSDOF 4
ENDMDL
MODEL 7
REMARK VINA RESULT:      -5.8      1.761      7.543
REMARK  Name = 
REMARK  7 active torsions:
REMARK  status: ('A' for Active; 'I' for Inactive)
REMARK    1  A    between atoms: C_1  and  O_2
REMARK    2  A    between atoms: O_2  and  C_3
REMARK    3  A    between atoms: C_6  and  C_7
REMARK    4  A    between atoms: C_8  and  C_9
REMARK    5  A    between atoms: C_13  and  O_14
REMARK    6  A    between atoms: O_14  and  C_15
REMARK    7  A    between atoms: N_19  and  C_20
REMARK                            x       y       z     vdW  Elec       q    Type
REMARK                         _______ _______ _______ _____ _____    ______ ____
ROOT
ATOM      1  C   UNL     1       2.479   7.308  18.764  0.00  0.00    +0.000 A 
ATOM      2  C   UNL     1       1.913   7.029  20.013  0.00  0.00    +0.000 A 
ATOM      3  C   UNL     1       1.310   8.205  20.501  0.00  0.00    +0.000 A 
ATOM      4  C   UNL     1       0.779   8.567  21.751  0.00  0.00    +0.000 A 
ATOM      5  C   UNL     1      -0.013   9.704  21.887  0.00  0.00    +0.000 A 
ATOM      6  C   UNL     1      -0.287  10.471  20.769  0.00  0.00    +0.000 A 
ATOM      7  C   UNL     1       0.322  10.192  19.515  0.00  0.00    +0.000 A 
ATOM      8  C   UNL     1       1.163   9.066  19.420  0.00  0.00    +0.000 A 
ATOM      9  N   UNL     1       1.991   8.568  18.414  0.00  0.00    +0.000 N 
ATOM     10  C   UNL     1       2.386   9.342  17.254  0.00  0.00    +0.000 C 
ENDROOT
BRANCH   1  14
ATOM     11  C   UNL     1       5.530   4.894  16.881  0.00  0.00    +0.000 A 
ATOM     12  C   UNL     1       4.247   4.373  17.056  0.00  0.00    +0.000 A 
ATOM     13  C   UNL     1       3.218   5.139  17.637  0.00  0.00    +0.000 A 
ATOM     14  C   UNL     1       3.451   6.456  18.034  0.00  0.00    +0.000 A 
ATOM     15  C   UNL     1       4.738   6.980  17.787  0.00  0.00    +0.000 A 
ATOM     16  C   UNL     1       5.774   6.206  17.257  0.00  0.00    +0.000 A 
BRANCH  11  18
ATOM     17  C   UNL     1       6.412   3.836  14.949  0.00  0.00    +0.000 C 
ATOM     18  O   UNL     1       6.459   4.036  16.359  0.00  0.00    +0.000 OA
ENDBRANCH  11  18
ENDBRANCH   1  14
BRANCH   2  19
ATOM     19  C   UNL     1       1.930   5.745  20.698  0.00  0.00    +0.000 C 
ATOM     20  O   UNL     1       1.094   4.860  20.541  0.00  0.00    +0.000 OA
ENDBRANCH   2  19
BRANCH   5  21
ATOM     21  O   UNL     1      -0.443   9.892  23.167  0.00  0.00    +0.000 OA
ATOM     22  C   UNL     1      -1.378  10.922  23.425  0.00  0.00    +0.000 C 
ENDBRANCH   5  21
TORSDOF 4
ENDMDL
MODEL 8
REMARK VINA RESULT:      -5.7      2.282      8.179
REMARK  Name = 
REMARK  7 active torsions:
REMARK  status: ('A' for Active; 'I' for Inactive)
REMARK    1  A    between atoms: C_1  and  O_2
REMARK    2  A    between atoms: O_2  and  C_3
REMARK    3  A    between atoms: C_6  and  C_7
REMARK    4  A    between atoms: C_8  and  C_9
REMARK    5  A    between atoms: C_13  and  O_14
REMARK    6  A    between atoms: O_14  and  C_15
REMARK    7  A    between atoms: N_19  and  C_20
REMARK                            x       y       z     vdW  Elec       q    Type
REMARK                         _______ _______ _______ _____ _____    ______ ____
ROOT
ATOM      1  C   UNL     1       4.626   4.625  17.079  0.00  0.00    +0.000 A 
ATOM      2  C   UNL     1       4.333   5.881  17.621  0.00  0.00    +0.000 A 
ATOM      3  C   UNL     1       3.366   5.716  18.633  0.00  0.00    +0.000 A 
ATOM      4  C   UNL     1       2.573   6.617  19.364  0.00  0.00    +0.000 A 
ATOM      5  C   UNL     1       1.894   6.204  20.507  0.00  0.00    +0.000 A 
ATOM      6  C   UNL     1       2.022   4.893  20.929  0.00  0.00    +0.000 A 
ATOM      7  C   UNL     1       2.728   3.933  20.155  0.00  0.00    +0.000 A 
ATOM      8  C   UNL     1       3.359   4.368  18.972  0.00  0.00    +0.000 A 
ATOM      9  N   UNL     1       4.022   3.706  17.939  0.00  0.00    +0.000 N 
ATOM     10  C   UNL     1       3.945   2.273  17.734  0.00  0.00    +0.000 C 
ENDROOT
BRANCH   1  14
ATOM     11  C   UNL     1       6.531   4.070  13.240  0.00  0.00    +0.000 A 
ATOM     12  C   UNL     1       7.302   4.419  14.350  0.00  0.00    +0.000 A 
ATOM     13  C   UNL     1       6.723   4.579  15.623  0.00  0.00    +0.000 A 
ATOM     14  C   UNL     1       5.357   4.368  15.813  0.00  0.00    +0.000 A 
ATOM     15  C   UNL     1       4.612   3.952  14.689  0.00  0.00    +0.000 A 
ATOM     16  C   UNL     1       5.175   3.842  13.415  0.00  0.00    +0.000 A 
BRANCH  11  18
ATOM     17  C   UNL     1       7.185   2.736  11.389  0.00  0.00    +0.000 C 
ATOM     18  O   UNL     1       7.196   4.001  12.046  0.00  0.00    +0.000 OA
ENDBRANCH  11  18
ENDBRANCH   1  14
BRANCH   2  19
ATOM     19  C   UNL     1       4.926   7.150  17.224  0.00  0.00    +0.000 C 
ATOM     20  O   UNL     1       6.104   7.452  17.389  0.00  0.00    +0.000 OA
ENDBRANCH   2  19
BRANCH   5  21
ATOM     21  O   UNL     1       1.183   7.214  21.086  0.00  0.00    +0.000 OA
ATOM     22  C   UNL     1       1.385   8.536  20.626  0.00  0.00    +0.000 C 
ENDBRANCH   5  21
TORSDOF 4
ENDMDL
MODEL 9
REMARK VINA RESULT:      -5.7      2.604      4.947
REMARK  Name = 
REMARK  7 active torsions:
REMARK  status: ('A' for Active; 'I' for Inactive)
REMARK    1  A    between atoms: C_1  and  O_2
REMARK    2  A    between atoms: O_2  and  C_3
REMARK    3  A    between atoms: C_6  and  C_7
REMARK    4  A    between atoms: C_8  and  C_9
REMARK    5  A    between atoms: C_13  and  O_14
REMARK    6  A    between atoms: O_14  and  C_15
REMARK    7  A    between atoms: N_19  and  C_20
REMARK                            x       y       z     vdW  Elec       q    Type
REMARK                         _______ _______ _______ _____ _____    ______ ____
ROOT
ATOM      1  C   UNL     1       0.118  10.948  21.033  0.00  0.00    +0.000 A 
ATOM      2  C   UNL     1       0.867   9.851  21.470  0.00  0.00    +0.000 A 
ATOM      3  C   UNL     1       1.199   9.063  20.349  0.00  0.00    +0.000 A 
ATOM      4  C   UNL     1       1.753   7.779  20.204  0.00  0.00    +0.000 A 
ATOM      5  C   UNL     1       2.238   7.347  18.972  0.00  0.00    +0.000 A 
ATOM      6  C   UNL     1       2.184   8.206  17.889  0.00  0.00    +0.000 A 
ATOM      7  C   UNL     1       1.536   9.467  17.977  0.00  0.00    +0.000 A 
ATOM      8  C   UNL     1       1.004   9.855  19.223  0.00  0.00    +0.000 A 
ATOM      9  N   UNL     1       0.227  10.936  19.641  0.00  0.00    +0.000 N 
ATOM     10  C   UNL     1      -0.475  11.812  18.724  0.00  0.00    +0.000 C 
ENDROOT
BRANCH   1  14
ATOM     11  C   UNL     1      -2.188  13.829  23.284  0.00  0.00    +0.000 A 
ATOM     12  C   UNL     1      -2.635  12.510  23.186  0.00  0.00    +0.000 A 
ATOM     13  C   UNL     1      -1.896  11.536  22.488  0.00  0.00    +0.000 A 
ATOM     14  C   UNL     1      -0.678  11.861  21.891  0.00  0.00    +0.000 A 
ATOM     15  C   UNL     1      -0.217  13.184  22.060  0.00  0.00    +0.000 A 
ATOM     16  C   UNL     1      -0.972  14.165  22.709  0.00  0.00    +0.000 A 
BRANCH  11  18
ATOM     17  C   UNL     1      -4.417  14.453  23.805  0.00  0.00    +0.000 C 
ATOM     18  O   UNL     1      -3.019  14.697  23.937  0.00  0.00    +0.000 OA
ENDBRANCH  11  18
ENDBRANCH   1  14
BRANCH   2  19
ATOM     19  C   UNL     1       1.252   9.563  22.843  0.00  0.00    +0.000 C 
ATOM     20  O   UNL     1       0.476   9.537  23.794  0.00  0.00    +0.000 OA
ENDBRANCH   2  19
BRANCH   5  21
ATOM     21  O   UNL     1       2.741   6.081  19.024  0.00  0.00    +0.000 OA
ATOM     22  C   UNL     1       2.323   5.144  18.050  0.00  0.00    +0.000 C 
ENDBRANCH   5  21
TORSDOF 4
ENDMDL
