MODEL 1
REMARK VINA RESULT:      -6.5      0.000      0.000
REMARK  Name = 
REMARK  4 active torsions:
REMARK  status: ('A' for Active; 'I' for Inactive)
REMARK    1  A    between atoms: C_6  and  C_7
REMARK    2  A    between atoms: C_7  and  C_8
REMARK    3  A    between atoms: C_8  and  C_9
REMARK    4  A    between atoms: C_9  and  N_10
REMARK                            x       y       z     vdW  Elec       q    Type
REMARK                         _______ _______ _______ _____ _____    ______ ____
ROOT
ATOM      1  C   UNL     1       3.922   5.074  17.169  0.00  0.00    +0.000 C 
ENDROOT
BRANCH   1   7
ATOM      2  F   UNL     1       0.262   2.180  18.649  0.00  0.00    +0.000 F 
ATOM      3  C   UNL     1       1.089   3.204  18.901  0.00  0.00    +0.000 A 
ATOM      4  C   UNL     1       1.006   3.863  20.122  0.00  0.00    +0.000 A 
ATOM      5  C   UNL     1       1.868   4.924  20.385  0.00  0.00    +0.000 A 
ATOM      6  C   UNL     1       2.806   5.318  19.425  0.00  0.00    +0.000 A 
ATOM      7  C   UNL     1       2.889   4.658  18.189  0.00  0.00    +0.000 A 
ATOM      8  C   UNL     1       2.019   3.588  17.937  0.00  0.00    +0.000 A 
ENDBRANCH   1   7
BRANCH   1   9
ATOM      9  C   UNL     1       4.846   3.910  16.800  0.00  0.00    +0.000 C 
BRANCH   9  10
ATOM     10  C   UNL     1       6.215   4.390  16.321  0.00  0.00    +0.000 C 
BRANCH  10  11
ATOM     11  N   UNL     1       6.882   5.189  17.330  0.00  0.00    +0.000 N 
ATOM     12  C   UNL     1       7.260   6.492  17.250  0.00  0.00    +0.000 A 
ATOM     13  N   UNL     1       7.848   6.847  18.368  0.00  0.00    +0.000 NA
ATOM     14  C   UNL     1       7.806   5.703  19.114  0.00  0.00    +0.000 A 
ATOM     15  N   UNL     1       7.222   4.658  18.519  0.00  0.00    +0.000 NA
ENDBRANCH  10  11
ENDBRANCH   9  10
ENDBRANCH   1   9
TORSDOF 4
ENDMDL
MODEL 2
REMARK VINA RESULT:      -6.4      1.941      2.694
REMARK  Name = 
REMARK  4 active torsions:
REMARK  status: ('A' for Active; 'I' for Inactive)
REMARK    1  A    between atoms: C_6  and  C_7
REMARK    2  A    between atoms: C_7  and  C_8
REMARK    3  A    between atoms: C_8  and  C_9
REMARK    4  A    between atoms: C_9  and  N_10
REMARK                            x       y       z     vdW  Elec       q    Type
REMARK                         _______ _______ _______ _____ _____    ______ ____
ROOT
ATOM      1  C   UNL     1       2.999   5.580  17.728  0.00  0.00    +0.000 C 
ENDROOT
BRANCH   1   7
ATOM      2  F   UNL     1       2.326   3.815  22.245  0.00  0.00    +0.000 F 
ATOM      3  C   UNL     1       2.034   3.765  20.938  0.00  0.00    +0.000 A 
ATOM      4  C   UNL     1       1.115   2.829  20.480  0.00  0.00    +0.000 A 
ATOM      5  C   UNL     1       0.808   2.779  19.122  0.00  0.00    +0.000 A 
ATOM      6  C   UNL     1       1.425   3.666  18.234  0.00  0.00    +0.000 A 
ATOM      7  C   UNL     1       2.359   4.609  18.692  0.00  0.00    +0.000 A 
ATOM      8  C   UNL     1       2.655   4.653  20.062  0.00  0.00    +0.000 A 
ENDBRANCH   1   7
BRANCH   1   9
ATOM      9  C   UNL     1       4.341   6.092  18.258  0.00  0.00    +0.000 C 
BRANCH   9  10
ATOM     10  C   UNL     1       5.146   6.818  17.181  0.00  0.00    +0.000 C 
BRANCH  10  11
ATOM     11  N   UNL     1       6.065   5.922  16.508  0.00  0.00    +0.000 N 
ATOM     12  C   UNL     1       7.107   5.235  17.045  0.00  0.00    +0.000 A 
ATOM     13  N   UNL     1       7.707   4.543  16.105  0.00  0.00    +0.000 NA
ATOM     14  C   UNL     1       6.980   4.847  14.988  0.00  0.00    +0.000 A 
ATOM     15  N   UNL     1       5.962   5.691  15.186  0.00  0.00    +0.000 NA
ENDBRANCH  10  11
ENDBRANCH   9  10
ENDBRANCH   1   9
TORSDOF 4
ENDMDL
MODEL 3
REMARK VINA RESULT:      -6.3      1.295      1.738
REMARK  Name = 
REMARK  4 active torsions:
REMARK  status: ('A' for Active; 'I' for Inactive)
REMARK    1  A    between atoms: C_6  and  C_7
REMARK    2  A    between atoms: C_7  and  C_8
REMARK    3  A    between atoms: C_8  and  C_9
REMARK    4  A    between atoms: C_9  and  N_10
REMARK                            x       y       z     vdW  Elec       q    Type
REMARK                         _______ _______ _______ _____ _____    ______ ____
ROOT
ATOM      1  C   UNL     1       2.235   6.212  17.749  0.00  0.00    +0.000 C 
ENDROOT
BRANCH   1   7
ATOM      2  F   UNL     1       0.591   1.692  18.662  0.00  0.00    +0.000 F 
ATOM      3  C   UNL     1       1.107   2.841  19.122  0.00  0.00    +0.000 A 
ATOM      4  C   UNL     1       1.368   2.975  20.480  0.00  0.00    +0.000 A 
ATOM      5  C   UNL     1       1.908   4.167  20.958  0.00  0.00    +0.000 A 
ATOM      6  C   UNL     1       2.180   5.215  20.073  0.00  0.00    +0.000 A 
ATOM      7  C   UNL     1       1.912   5.084  18.700  0.00  0.00    +0.000 A 
ATOM      8  C   UNL     1       1.374   3.878  18.231  0.00  0.00    +0.000 A 
ENDBRANCH   1   7
BRANCH   1   9
ATOM      9  C   UNL     1       3.622   6.798  18.025  0.00  0.00    +0.000 C 
BRANCH   9  10
ATOM     10  C   UNL     1       4.729   6.015  17.322  0.00  0.00    +0.000 C 
BRANCH  10  11
ATOM     11  N   UNL     1       5.906   5.888  18.159  0.00  0.00    +0.000 N 
ATOM     12  C   UNL     1       6.028   5.215  19.333  0.00  0.00    +0.000 A 
ATOM     13  N   UNL     1       7.250   5.352  19.791  0.00  0.00    +0.000 NA
ATOM     14  C   UNL     1       7.848   6.133  18.842  0.00  0.00    +0.000 A 
ATOM     15  N   UNL     1       7.062   6.488  17.820  0.00  0.00    +0.000 NA
ENDBRANCH  10  11
ENDBRANCH   9  10
ENDBRANCH   1   9
TORSDOF 4
ENDMDL
MODEL 4
REMARK VINA RESULT:      -6.3      1.192      1.676
REMARK  Name = 
REMARK  4 active torsions:
REMARK  status: ('A' for Active; 'I' for Inactive)
REMARK    1  A    between atoms: C_6  and  C_7
REMARK    2  A    between atoms: C_7  and  C_8
REMARK    3  A    between atoms: C_8  and  C_9
REMARK    4  A    between atoms: C_9  and  N_10
REMARK                            x       y       z     vdW  Elec       q    Type
REMARK                         _______ _______ _______ _____ _____    ______ ____
ROOT
ATOM      1  C   UNL     1       3.994   5.029  17.448  0.00  0.00    +0.000 C 
ENDROOT
BRANCH   1   7
ATOM      2  F   UNL     1       2.286   4.105  21.942  0.00  0.00    +0.000 F 
ATOM      3  C   UNL     1       2.153   3.975  20.614  0.00  0.00    +0.000 A 
ATOM      4  C   UNL     1       1.061   3.285  20.102  0.00  0.00    +0.000 A 
ATOM      5  C   UNL     1       0.921   3.153  18.723  0.00  0.00    +0.000 A 
ATOM      6  C   UNL     1       1.875   3.713  17.867  0.00  0.00    +0.000 A 
ATOM      7  C   UNL     1       2.983   4.406  18.382  0.00  0.00    +0.000 A 
ATOM      8  C   UNL     1       3.110   4.536  19.772  0.00  0.00    +0.000 A 
ENDBRANCH   1   7
BRANCH   1   9
ATOM      9  C   UNL     1       4.932   3.975  16.854  0.00  0.00    +0.000 C 
BRANCH   9  10
ATOM     10  C   UNL     1       6.220   4.590  16.311  0.00  0.00    +0.000 C 
BRANCH  10  11
ATOM     11  N   UNL     1       6.930   5.331  17.336  0.00  0.00    +0.000 N 
ATOM     12  C   UNL     1       7.276   6.645  17.329  0.00  0.00    +0.000 A 
ATOM     13  N   UNL     1       7.922   6.933  18.434  0.00  0.00    +0.000 NA
ATOM     14  C   UNL     1       7.946   5.738  19.097  0.00  0.00    +0.000 A 
ATOM     15  N   UNL     1       7.349   4.724  18.461  0.00  0.00    +0.000 NA
ENDBRANCH  10  11
ENDBRANCH   9  10
ENDBRANCH   1   9
TORSDOF 4
ENDMDL
MODEL 5
REMARK VINA RESULT:      -6.3      1.806      2.596
REMARK  Name = 
REMARK  4 active torsions:
REMARK  status: ('A' for Active; 'I' for Inactive)
REMARK    1  A    between atoms: C_6  and  C_7
REMARK    2  A    between atoms: C_7  and  C_8
REMARK    3  A    between atoms: C_8  and  C_9
REMARK    4  A    between atoms: C_9  and  N_10
REMARK                            x       y       z     vdW  Elec       q    Type
REMARK                         _______ _______ _______ _____ _____    ______ ____
ROOT
ATOM      1  C   UNL     1       4.955   3.767  19.232  0.00  0.00    +0.000 C 
ENDROOT
BRANCH   1   7
ATOM      2  F   UNL     1       1.052   2.546  21.923  0.00  0.00    +0.000 F 
ATOM      3  C   UNL     1       1.561   2.902  20.736  0.00  0.00    +0.000 A 
ATOM      4  C   UNL     1       0.712   3.047  19.645  0.00  0.00    +0.000 A 
ATOM      5  C   UNL     1       1.241   3.421  18.412  0.00  0.00    +0.000 A 
ATOM      6  C   UNL     1       2.615   3.646  18.280  0.00  0.00    +0.000 A 
ATOM      7  C   UNL     1       3.476   3.495  19.379  0.00  0.00    +0.000 A 
ATOM      8  C   UNL     1       2.931   3.124  20.616  0.00  0.00    +0.000 A 
ENDBRANCH   1   7
BRANCH   1   9
ATOM      9  C   UNL     1       5.243   5.267  19.142  0.00  0.00    +0.000 C 
BRANCH   9  10
ATOM     10  C   UNL     1       6.606   5.556  18.516  0.00  0.00    +0.000 C 
BRANCH  10  11
ATOM     11  N   UNL     1       6.566   5.432  17.072  0.00  0.00    +0.000 N 
ATOM     12  C   UNL     1       5.673   5.984  16.210  0.00  0.00    +0.000 A 
ATOM     13  N   UNL     1       5.968   5.623  14.983  0.00  0.00    +0.000 NA
ATOM     14  C   UNL     1       7.072   4.834  15.152  0.00  0.00    +0.000 A 
ATOM     15  N   UNL     1       7.477   4.687  16.418  0.00  0.00    +0.000 NA
ENDBRANCH  10  11
ENDBRANCH   9  10
ENDBRANCH   1   9
TORSDOF 4
ENDMDL
MODEL 6
REMARK VINA RESULT:      -6.3      1.190      1.237
REMARK  Name = 
REMARK  4 active torsions:
REMARK  status: ('A' for Active; 'I' for Inactive)
REMARK    1  A    between atoms: C_6  and  C_7
REMARK    2  A    between atoms: C_7  and  C_8
REMARK    3  A    between atoms: C_8  and  C_9
REMARK    4  A    between atoms: C_9  and  N_10
REMARK                            x       y       z     vdW  Elec       q    Type
REMARK                         _______ _______ _______ _____ _____    ______ ____
ROOT
ATOM      1  C   UNL     1       4.351   4.530  16.698  0.00  0.00    +0.000 C 
ENDROOT
BRANCH   1   7
ATOM      2  F   UNL     1       0.339   2.375  18.492  0.00  0.00    +0.000 F 
ATOM      3  C   UNL     1       1.624   2.721  18.650  0.00  0.00    +0.000 A 
ATOM      4  C   UNL     1       2.285   2.370  19.821  0.00  0.00    +0.000 A 
ATOM      5  C   UNL     1       3.621   2.726  19.984  0.00  0.00    +0.000 A 
ATOM      6  C   UNL     1       4.285   3.431  18.975  0.00  0.00    +0.000 A 
ATOM      7  C   UNL     1       3.618   3.792  17.793  0.00  0.00    +0.000 A 
ATOM      8  C   UNL     1       2.275   3.423  17.638  0.00  0.00    +0.000 A 
ENDBRANCH   1   7
BRANCH   1   9
ATOM      9  C   UNL     1       5.566   3.739  16.206  0.00  0.00    +0.000 C 
BRANCH   9  10
ATOM     10  C   UNL     1       6.761   4.644  15.909  0.00  0.00    +0.000 C 
BRANCH  10  11
ATOM     11  N   UNL     1       7.232   5.313  17.105  0.00  0.00    +0.000 N 
ATOM     12  C   UNL     1       7.378   6.648  17.313  0.00  0.00    +0.000 A 
ATOM     13  N   UNL     1       7.846   6.854  18.522  0.00  0.00    +0.000 NA
ATOM     14  C   UNL     1       7.973   5.589  19.023  0.00  0.00    +0.000 A 
ATOM     15  N   UNL     1       7.608   4.609  18.189  0.00  0.00    +0.000 NA
ENDBRANCH  10  11
ENDBRANCH   9  10
ENDBRANCH   1   9
TORSDOF 4
ENDMDL
MODEL 7
REMARK VINA RESULT:      -6.3      3.568      5.794
REMARK  Name = 
REMARK  4 active torsions:
REMARK  status: ('A' for Active; 'I' for Inactive)
REMARK    1  A    between atoms: C_6  and  C_7
REMARK    2  A    between atoms: C_7  and  C_8
REMARK    3  A    between atoms: C_8  and  C_9
REMARK    4  A    between atoms: C_9  and  N_10
REMARK                            x       y       z     vdW  Elec       q    Type
REMARK                         _______ _______ _______ _____ _____    ______ ____
ROOT
ATOM      1  C   UNL     1       3.296   4.619  17.601  0.00  0.00    +0.000 C 
ENDROOT
BRANCH   1   7
ATOM      2  F   UNL     1       8.166   4.505  18.084  0.00  0.00    +0.000 F 
ATOM      3  C   UNL     1       7.093   4.544  17.282  0.00  0.00    +0.000 A 
ATOM      4  C   UNL     1       7.271   4.553  15.904  0.00  0.00    +0.000 A 
ATOM      5  C   UNL     1       6.156   4.589  15.071  0.00  0.00    +0.000 A 
ATOM      6  C   UNL     1       4.872   4.618  15.623  0.00  0.00    +0.000 A 
ATOM      7  C   UNL     1       4.688   4.615  17.015  0.00  0.00    +0.000 A 
ATOM      8  C   UNL     1       5.818   4.572  17.843  0.00  0.00    +0.000 A 
ENDBRANCH   1   7
BRANCH   1   9
ATOM      9  C   UNL     1       2.526   3.350  17.226  0.00  0.00    +0.000 C 
BRANCH   9  10
ATOM     10  C   UNL     1       2.850   2.183  18.157  0.00  0.00    +0.000 C 
BRANCH  10  11
ATOM     11  N   UNL     1       2.430   2.455  19.518  0.00  0.00    +0.000 N 
ATOM     12  C   UNL     1       1.169   2.669  19.977  0.00  0.00    +0.000 A 
ATOM     13  N   UNL     1       1.205   2.896  21.269  0.00  0.00    +0.000 NA
ATOM     14  C   UNL     1       2.539   2.808  21.558  0.00  0.00    +0.000 A 
ATOM     15  N   UNL     1       3.330   2.540  20.515  0.00  0.00    +0.000 NA
ENDBRANCH  10  11
ENDBRANCH   9  10
ENDBRANCH   1   9
TORSDOF 4
ENDMDL
MODEL 8
REMARK VINA RESULT:      -6.3      1.662      2.281
REMARK  Name = 
REMARK  4 active torsions:
REMARK  status: ('A' for Active; 'I' for Inactive)
REMARK    1  A    between atoms: C_6  and  C_7
REMARK    2  A    between atoms: C_7  and  C_8
REMARK    3  A    between atoms: C_8  and  C_9
REMARK    4  A    between atoms: C_9  and  N_10
REMARK                            x       y       z     vdW  Elec       q    Type
REMARK                         _______ _______ _______ _____ _____    ______ ____
ROOT
ATOM      1  C   UNL     1       3.470   4.628  17.442  0.00  0.00    +0.000 C 
ENDROOT
BRANCH   1   7
ATOM      2  F   UNL     1       2.402   3.927  22.168  0.00  0.00    +0.000 F 
ATOM      3  C   UNL     1       2.105   3.709  20.880  0.00  0.00    +0.000 A 
ATOM      4  C   UNL     1       0.988   2.947  20.557  0.00  0.00    +0.000 A 
ATOM      5  C   UNL     1       0.676   2.723  19.218  0.00  0.00    +0.000 A 
ATOM      6  C   UNL     1       1.485   3.263  18.213  0.00  0.00    +0.000 A 
ATOM      7  C   UNL     1       2.618   4.028  18.536  0.00  0.00    +0.000 A 
ATOM      8  C   UNL     1       2.918   4.251  19.887  0.00  0.00    +0.000 A 
ENDBRANCH   1   7
BRANCH   1   9
ATOM      9  C   UNL     1       3.818   6.089  17.741  0.00  0.00    +0.000 C 
BRANCH   9  10
ATOM     10  C   UNL     1       4.965   6.598  16.870  0.00  0.00    +0.000 C 
BRANCH  10  11
ATOM     11  N   UNL     1       6.143   5.762  16.999  0.00  0.00    +0.000 N 
ATOM     12  C   UNL     1       6.843   5.146  16.010  0.00  0.00    +0.000 A 
ATOM     13  N   UNL     1       7.838   4.469  16.534  0.00  0.00    +0.000 NA
ATOM     14  C   UNL     1       7.700   4.707  17.873  0.00  0.00    +0.000 A 
ATOM     15  N   UNL     1       6.672   5.496  18.207  0.00  0.00    +0.000 NA
ENDBRANCH  10  11
ENDBRANCH   9  10
ENDBRANCH   1   9
TORSDOF 4
ENDMDL
MODEL 9
REMARK VINA RESULT:      -6.2      1.434      1.962
REMARK  Name = 
REMARK  4 active torsions:
REMARK  status: ('A' for Active; 'I' for Inactive)
REMARK    1  A    between atoms: C_6  and  C_7
REMARK    2  A    between atoms: C_7  and  C_8
REMARK    3  A    between atoms: C_8  and  C_9
REMARK    4  A    between atoms: C_9  and  N_10
REMARK                            x       y       z     vdW  Elec       q    Type
REMARK                         _______ _______ _______ _____ _____    ______ ____
ROOT
ATOM      1  C   UNL     1       3.013   6.267  18.184  0.00  0.00    +0.000 C 
ENDROOT
BRANCH   1   7
ATOM      2  F   UNL     1       2.013   3.583  22.154  0.00  0.00    +0.000 F 
ATOM      3  C   UNL     1       1.881   3.773  20.834  0.00  0.00    +0.000 A 
ATOM      4  C   UNL     1       1.124   2.877  20.089  0.00  0.00    +0.000 A 
ATOM      5  C   UNL     1       0.983   3.076  18.718  0.00  0.00    +0.000 A 
ATOM      6  C   UNL     1       1.601   4.170  18.103  0.00  0.00    +0.000 A 
ATOM      7  C   UNL     1       2.371   5.074  18.853  0.00  0.00    +0.000 A 
ATOM      8  C   UNL     1       2.501   4.866  20.233  0.00  0.00    +0.000 A 
ENDBRANCH   1   7
BRANCH   1   9
ATOM      9  C   UNL     1       4.112   5.838  17.208  0.00  0.00    +0.000 C 
BRANCH   9  10
ATOM     10  C   UNL     1       5.052   4.800  17.818  0.00  0.00    +0.000 C 
BRANCH  10  11
ATOM     11  N   UNL     1       6.246   5.419  18.363  0.00  0.00    +0.000 N 
ATOM     12  C   UNL     1       7.015   6.388  17.802  0.00  0.00    +0.000 A 
ATOM     13  N   UNL     1       8.016   6.670  18.602  0.00  0.00    +0.000 NA
ATOM     14  C   UNL     1       7.810   5.829  19.660  0.00  0.00    +0.000 A 
ATOM     15  N   UNL     1       6.735   5.041  19.558  0.00  0.00    +0.000 NA
ENDBRANCH  10  11
ENDBRANCH   9  10
ENDBRANCH   1   9
TORSDOF 4
ENDMDL
