MODEL 1
REMARK VINA RESULT:      -8.5      0.000      0.000
REMARK  Name = 
REMARK  8 active torsions:
REMARK  status: ('A' for Active; 'I' for Inactive)
REMARK    1  A    between atoms: C_1  and  S_2
REMARK    2  A    between atoms: S_2  and  C_3
REMARK    3  A    between atoms: C_6  and  O_7
REMARK    4  A    between atoms: O_7  and  C_8
REMARK    5  A    between atoms: C_8  and  C_10
REMARK    6  A    between atoms: C_15  and  N_16
REMARK    7  A    between atoms: N_16  and  C_17
REMARK    8  A    between atoms: C_21  and  C_22
REMARK                            x       y       z     vdW  Elec       q    Type
REMARK                         _______ _______ _______ _____ _____    ______ ____
ROOT
ATOM      1  C   UNL     1       2.087   3.888  19.035  0.00  0.00    +0.000 A 
ATOM      2  C   UNL     1       1.283   3.913  20.196  0.00  0.00    +0.000 A 
ATOM      3  C   UNL     1       1.634   3.183  21.331  0.00  0.00    +0.000 A 
ATOM      4  C   UNL     1       2.788   2.415  21.324  0.00  0.00    +0.000 A 
ATOM      5  C   UNL     1       3.580   2.364  20.176  0.00  0.00    +0.000 A 
ATOM      6  C   UNL     1       3.258   3.095  19.011  0.00  0.00    +0.000 A 
ENDROOT
BRANCH   1   7
ATOM      7  C   UNL     1       1.735   4.825  17.932  0.00  0.00    +0.000 C 
ATOM      8  O   UNL     1       0.854   4.628  17.110  0.00  0.00    +0.000 OA
BRANCH   7   9
ATOM      9  O   UNL     1       2.583   5.928  18.004  0.00  0.00    +0.000 OA
BRANCH   9  13
ATOM     10  C   UNL     1       1.163   9.516  19.685  0.00  0.00    +0.000 A 
ATOM     11  C   UNL     1       1.497   8.413  20.477  0.00  0.00    +0.000 A 
ATOM     12  C   UNL     1       2.044   7.264  19.895  0.00  0.00    +0.000 A 
ATOM     13  C   UNL     1       2.238   7.205  18.512  0.00  0.00    +0.000 A 
ATOM     14  C   UNL     1       1.977   8.318  17.723  0.00  0.00    +0.000 A 
ATOM     15  C   UNL     1       1.431   9.465  18.311  0.00  0.00    +0.000 A 
BRANCH  10  17
ATOM     16  C   UNL     1      -0.471  11.612  18.797  0.00  0.00    +0.000 C 
ATOM     17  S   UNL     1       0.302  10.958  20.296  0.00  0.00    +0.000 S 
ENDBRANCH  10  17
ENDBRANCH   9  13
ENDBRANCH   7   9
ENDBRANCH   1   7
BRANCH   6  18
ATOM     18  N   UNL     1       4.144   2.950  17.920  0.00  0.00    +0.000 N 
ATOM     19  H   UNL     1       3.742   2.410  17.153  0.00  0.00    +0.000 HD
BRANCH  18  20
ATOM     20  C   UNL     1       5.240   3.702  17.474  0.00  0.00    +0.000 A 
ATOM     21  C   UNL     1       5.586   3.843  16.129  0.00  0.00    +0.000 A 
ATOM     22  C   UNL     1       6.706   4.593  15.814  0.00  0.00    +0.000 A 
ATOM     23  N   UNL     1       7.482   5.221  16.718  0.00  0.00    +0.000 NA
ATOM     24  C   UNL     1       7.133   5.113  18.032  0.00  0.00    +0.000 A 
ATOM     25  C   UNL     1       6.025   4.360  18.427  0.00  0.00    +0.000 A 
BRANCH  24  26
ATOM     26  C   UNL     1       7.960   5.805  19.102  0.00  0.00    +0.000 C 
ATOM     27  F   UNL     1       9.056   5.110  19.519  0.00  0.00    +0.000 F 
ATOM     28  F   UNL     1       8.426   7.028  18.700  0.00  0.00    +0.000 F 
ATOM     29  F   UNL     1       7.233   6.056  20.234  0.00  0.00    +0.000 F 
ENDBRANCH  24  26
ENDBRANCH  18  20
ENDBRANCH   6  18
TORSDOF 7
ENDMDL
MODEL 2
REMARK VINA RESULT:      -8.4      3.023      3.515
REMARK  Name = 
REMARK  8 active torsions:
REMARK  status: ('A' for Active; 'I' for Inactive)
REMARK    1  A    between atoms: C_1  and  S_2
REMARK    2  A    between atoms: S_2  and  C_3
REMARK    3  A    between atoms: C_6  and  O_7
REMARK    4  A    between atoms: O_7  and  C_8
REMARK    5  A    between atoms: C_8  and  C_10
REMARK    6  A    between atoms: C_15  and  N_16
REMARK    7  A    between atoms: N_16  and  C_17
REMARK    8  A    between atoms: C_21  and  C_22
REMARK                            x       y       z     vdW  Elec       q    Type
REMARK                         _______ _______ _______ _____ _____    ______ ____
ROOT
ATOM      1  C   UNL     1       3.041   4.431  18.405  0.00  0.00    +0.000 A 
ATOM      2  C   UNL     1       1.671   4.245  18.696  0.00  0.00    +0.000 A 
ATOM      3  C   UNL     1       1.081   2.985  18.606  0.00  0.00    +0.000 A 
ATOM      4  C   UNL     1       1.845   1.894  18.224  0.00  0.00    +0.000 A 
ATOM      5  C   UNL     1       3.194   2.068  17.913  0.00  0.00    +0.000 A 
ATOM      6  C   UNL     1       3.826   3.328  17.998  0.00  0.00    +0.000 A 
ENDROOT
BRANCH   1   7
ATOM      7  C   UNL     1       3.630   5.770  18.688  0.00  0.00    +0.000 C 
ATOM      8  O   UNL     1       4.605   5.962  19.397  0.00  0.00    +0.000 OA
BRANCH   7   9
ATOM      9  O   UNL     1       2.874   6.733  18.022  0.00  0.00    +0.000 OA
BRANCH   9  13
ATOM     10  C   UNL     1       0.733   9.842  19.882  0.00  0.00    +0.000 A 
ATOM     11  C   UNL     1       1.151   8.710  20.590  0.00  0.00    +0.000 A 
ATOM     12  C   UNL     1       1.932   7.733  19.961  0.00  0.00    +0.000 A 
ATOM     13  C   UNL     1       2.279   7.874  18.615  0.00  0.00    +0.000 A 
ATOM     14  C   UNL     1       1.931   9.026  17.922  0.00  0.00    +0.000 A 
ATOM     15  C   UNL     1       1.151  10.000  18.555  0.00  0.00    +0.000 A 
BRANCH  10  17
ATOM     16  C   UNL     1      -1.523  11.325  19.133  0.00  0.00    +0.000 C 
ATOM     17  S   UNL     1      -0.406  11.057  20.531  0.00  0.00    +0.000 S 
ENDBRANCH  10  17
ENDBRANCH   9  13
ENDBRANCH   7   9
ENDBRANCH   1   7
BRANCH   6  18
ATOM     18  N   UNL     1       5.196   3.362  17.652  0.00  0.00    +0.000 N 
ATOM     19  H   UNL     1       5.714   2.560  18.010  0.00  0.00    +0.000 HD
BRANCH  18  20
ATOM     20  C   UNL     1       5.903   3.984  16.612  0.00  0.00    +0.000 A 
ATOM     21  C   UNL     1       6.843   4.995  16.813  0.00  0.00    +0.000 A 
ATOM     22  C   UNL     1       7.459   5.549  15.704  0.00  0.00    +0.000 A 
ATOM     23  N   UNL     1       7.232   5.163  14.433  0.00  0.00    +0.000 NA
ATOM     24  C   UNL     1       6.336   4.154  14.231  0.00  0.00    +0.000 A 
ATOM     25  C   UNL     1       5.664   3.559  15.301  0.00  0.00    +0.000 A 
BRANCH  24  26
ATOM     26  C   UNL     1       6.041   3.664  12.825  0.00  0.00    +0.000 C 
ATOM     27  F   UNL     1       6.241   2.330  12.627  0.00  0.00    +0.000 F 
ATOM     28  F   UNL     1       4.750   3.908  12.440  0.00  0.00    +0.000 F 
ATOM     29  F   UNL     1       6.815   4.293  11.887  0.00  0.00    +0.000 F 
ENDBRANCH  24  26
ENDBRANCH  18  20
ENDBRANCH   6  18
TORSDOF 7
ENDMDL
MODEL 3
REMARK VINA RESULT:      -8.4      1.201      1.650
REMARK  Name = 
REMARK  8 active torsions:
REMARK  status: ('A' for Active; 'I' for Inactive)
REMARK    1  A    between atoms: C_1  and  S_2
REMARK    2  A    between atoms: S_2  and  C_3
REMARK    3  A    between atoms: C_6  and  O_7
REMARK    4  A    between atoms: O_7  and  C_8
REMARK    5  A    between atoms: C_8  and  C_10
REMARK    6  A    between atoms: C_15  and  N_16
REMARK    7  A    between atoms: N_16  and  C_17
REMARK    8  A    between atoms: C_21  and  C_22
REMARK                            x       y       z     vdW  Elec       q    Type
REMARK                         _______ _______ _______ _____ _____    ______ ____
ROOT
ATOM      1  C   UNL     1       2.169   4.855  18.890  0.00  0.00    +0.000 A 
ATOM      2  C   UNL     1       1.359   4.476  19.984  0.00  0.00    +0.000 A 
ATOM      3  C   UNL     1       1.150   3.133  20.294  0.00  0.00    +0.000 A 
ATOM      4  C   UNL     1       1.743   2.149  19.519  0.00  0.00    +0.000 A 
ATOM      5  C   UNL     1       2.528   2.509  18.423  0.00  0.00    +0.000 A 
ATOM      6  C   UNL     1       2.764   3.859  18.082  0.00  0.00    +0.000 A 
ENDROOT
BRANCH   1   7
ATOM      7  C   UNL     1       2.478   6.304  18.730  0.00  0.00    +0.000 C 
ATOM      8  O   UNL     1       2.854   6.821  17.691  0.00  0.00    +0.000 OA
BRANCH   7   9
ATOM      9  O   UNL     1       2.275   6.934  19.956  0.00  0.00    +0.000 OA
BRANCH   9  13
ATOM     10  C   UNL     1      -0.001  10.406  20.646  0.00  0.00    +0.000 A 
ATOM     11  C   UNL     1       0.293   9.503  21.672  0.00  0.00    +0.000 A 
ATOM     12  C   UNL     1       1.121   8.401  21.428  0.00  0.00    +0.000 A 
ATOM     13  C   UNL     1       1.641   8.187  20.149  0.00  0.00    +0.000 A 
ATOM     14  C   UNL     1       1.414   9.114  19.139  0.00  0.00    +0.000 A 
ATOM     15  C   UNL     1       0.586  10.213  19.390  0.00  0.00    +0.000 A 
BRANCH  10  17
ATOM     16  C   UNL     1      -1.849  11.864  19.124  0.00  0.00    +0.000 C 
ATOM     17  S   UNL     1      -1.180  11.740  20.801  0.00  0.00    +0.000 S 
ENDBRANCH  10  17
ENDBRANCH   9  13
ENDBRANCH   7   9
ENDBRANCH   1   7
BRANCH   6  18
ATOM     18  N   UNL     1       3.575   4.082  16.946  0.00  0.00    +0.000 N 
ATOM     19  H   UNL     1       3.057   4.480  16.163  0.00  0.00    +0.000 HD
BRANCH  18  20
ATOM     20  C   UNL     1       4.953   4.284  16.782  0.00  0.00    +0.000 A 
ATOM     21  C   UNL     1       5.644   3.979  15.609  0.00  0.00    +0.000 A 
ATOM     22  C   UNL     1       7.010   4.201  15.575  0.00  0.00    +0.000 A 
ATOM     23  N   UNL     1       7.725   4.716  16.594  0.00  0.00    +0.000 NA
ATOM     24  C   UNL     1       7.050   5.045  17.734  0.00  0.00    +0.000 A 
ATOM     25  C   UNL     1       5.675   4.834  17.846  0.00  0.00    +0.000 A 
BRANCH  24  26
ATOM     26  C   UNL     1       7.794   5.640  18.916  0.00  0.00    +0.000 C 
ATOM     27  F   UNL     1       8.342   6.867  18.692  0.00  0.00    +0.000 F 
ATOM     28  F   UNL     1       6.998   5.785  20.021  0.00  0.00    +0.000 F 
ATOM     29  F   UNL     1       8.830   4.846  19.327  0.00  0.00    +0.000 F 
ENDBRANCH  24  26
ENDBRANCH  18  20
ENDBRANCH   6  18
TORSDOF 7
ENDMDL
MODEL 4
REMARK VINA RESULT:      -8.4      1.080      1.466
REMARK  Name = 
REMARK  8 active torsions:
REMARK  status: ('A' for Active; 'I' for Inactive)
REMARK    1  A    between atoms: C_1  and  S_2
REMARK    2  A    between atoms: S_2  and  C_3
REMARK    3  A    between atoms: C_6  and  O_7
REMARK    4  A    between atoms: O_7  and  C_8
REMARK    5  A    between atoms: C_8  and  C_10
REMARK    6  A    between atoms: C_15  and  N_16
REMARK    7  A    between atoms: N_16  and  C_17
REMARK    8  A    between atoms: C_21  and  C_22
REMARK                            x       y       z     vdW  Elec       q    Type
REMARK                         _______ _______ _______ _____ _____    ______ ____
ROOT
ATOM      1  C   UNL     1       2.782   3.990  19.036  0.00  0.00    +0.000 A 
ATOM      2  C   UNL     1       2.340   3.818  20.367  0.00  0.00    +0.000 A 
ATOM      3  C   UNL     1       2.951   2.896  21.215  0.00  0.00    +0.000 A 
ATOM      4  C   UNL     1       4.010   2.132  20.751  0.00  0.00    +0.000 A 
ATOM      5  C   UNL     1       4.443   2.277  19.432  0.00  0.00    +0.000 A 
ATOM      6  C   UNL     1       3.850   3.204  18.547  0.00  0.00    +0.000 A 
ENDROOT
BRANCH   1   7
ATOM      7  C   UNL     1       2.190   5.110  18.252  0.00  0.00    +0.000 C 
ATOM      8  O   UNL     1       1.270   4.990  17.459  0.00  0.00    +0.000 OA
BRANCH   7   9
ATOM      9  O   UNL     1       2.873   6.282  18.575  0.00  0.00    +0.000 OA
BRANCH   9  13
ATOM     10  C   UNL     1       0.727   9.800  19.431  0.00  0.00    +0.000 A 
ATOM     11  C   UNL     1       1.093   8.897  20.435  0.00  0.00    +0.000 A 
ATOM     12  C   UNL     1       1.876   7.778  20.129  0.00  0.00    +0.000 A 
ATOM     13  C   UNL     1       2.280   7.547  18.811  0.00  0.00    +0.000 A 
ATOM     14  C   UNL     1       1.983   8.472  17.818  0.00  0.00    +0.000 A 
ATOM     15  C   UNL     1       1.200   9.588  18.131  0.00  0.00    +0.000 A 
BRANCH  10  17
ATOM     16  C   UNL     1      -1.605  10.906  18.343  0.00  0.00    +0.000 C 
ATOM     17  S   UNL     1      -0.410  11.156  19.678  0.00  0.00    +0.000 S 
ENDBRANCH  10  17
ENDBRANCH   9  13
ENDBRANCH   7   9
ENDBRANCH   1   7
BRANCH   6  18
ATOM     18  N   UNL     1       4.385   3.246  17.239  0.00  0.00    +0.000 N 
ATOM     19  H   UNL     1       3.740   2.885  16.536  0.00  0.00    +0.000 HD
BRANCH  18  20
ATOM     20  C   UNL     1       5.381   4.030  16.640  0.00  0.00    +0.000 A 
ATOM     21  C   UNL     1       5.915   3.768  15.377  0.00  0.00    +0.000 A 
ATOM     22  C   UNL     1       6.913   4.602  14.901  0.00  0.00    +0.000 A 
ATOM     23  N   UNL     1       7.396   5.670  15.564  0.00  0.00    +0.000 NA
ATOM     24  C   UNL     1       6.857   5.949  16.786  0.00  0.00    +0.000 A 
ATOM     25  C   UNL     1       5.859   5.144  17.338  0.00  0.00    +0.000 A 
BRANCH  24  26
ATOM     26  C   UNL     1       7.349   7.145  17.583  0.00  0.00    +0.000 C 
ATOM     27  F   UNL     1       6.382   8.043  17.926  0.00  0.00    +0.000 F 
ATOM     28  F   UNL     1       7.956   6.785  18.756  0.00  0.00    +0.000 F 
ATOM     29  F   UNL     1       8.292   7.866  16.902  0.00  0.00    +0.000 F 
ENDBRANCH  24  26
ENDBRANCH  18  20
ENDBRANCH   6  18
TORSDOF 7
ENDMDL
MODEL 5
REMARK VINA RESULT:      -8.4      3.149      3.773
REMARK  Name = 
REMARK  8 active torsions:
REMARK  status: ('A' for Active; 'I' for Inactive)
REMARK    1  A    between atoms: C_1  and  S_2
REMARK    2  A    between atoms: S_2  and  C_3
REMARK    3  A    between atoms: C_6  and  O_7
REMARK    4  A    between atoms: O_7  and  C_8
REMARK    5  A    between atoms: C_8  and  C_10
REMARK    6  A    between atoms: C_15  and  N_16
REMARK    7  A    between atoms: N_16  and  C_17
REMARK    8  A    between atoms: C_21  and  C_22
REMARK                            x       y       z     vdW  Elec       q    Type
REMARK                         _______ _______ _______ _____ _____    ______ ____
ROOT
ATOM      1  C   UNL     1       3.145   4.477  18.353  0.00  0.00    +0.000 A 
ATOM      2  C   UNL     1       1.785   4.333  18.706  0.00  0.00    +0.000 A 
ATOM      3  C   UNL     1       1.143   3.099  18.607  0.00  0.00    +0.000 A 
ATOM      4  C   UNL     1       1.845   1.993  18.155  0.00  0.00    +0.000 A 
ATOM      5  C   UNL     1       3.184   2.126  17.784  0.00  0.00    +0.000 A 
ATOM      6  C   UNL     1       3.867   3.359  17.874  0.00  0.00    +0.000 A 
ENDROOT
BRANCH   1   7
ATOM      7  C   UNL     1       3.799   5.783  18.646  0.00  0.00    +0.000 C 
ATOM      8  O   UNL     1       4.799   5.919  19.332  0.00  0.00    +0.000 OA
BRANCH   7   9
ATOM      9  O   UNL     1       3.068   6.791  18.020  0.00  0.00    +0.000 OA
BRANCH   9  13
ATOM     10  C   UNL     1       0.903   9.902  19.850  0.00  0.00    +0.000 A 
ATOM     11  C   UNL     1       1.182   9.906  18.479  0.00  0.00    +0.000 A 
ATOM     12  C   UNL     1       1.833   8.817  17.887  0.00  0.00    +0.000 A 
ATOM     13  C   UNL     1       2.226   7.728  18.670  0.00  0.00    +0.000 A 
ATOM     14  C   UNL     1       1.892   7.680  20.017  0.00  0.00    +0.000 A 
ATOM     15  C   UNL     1       1.241   8.771  20.603  0.00  0.00    +0.000 A 
BRANCH  10  17
ATOM     16  C   UNL     1       1.482  12.583  20.424  0.00  0.00    +0.000 C 
ATOM     17  S   UNL     1       0.239  11.306  20.735  0.00  0.00    +0.000 S 
ENDBRANCH  10  17
ENDBRANCH   9  13
ENDBRANCH   7   9
ENDBRANCH   1   7
BRANCH   6  18
ATOM     18  N   UNL     1       5.218   3.353  17.462  0.00  0.00    +0.000 N 
ATOM     19  H   UNL     1       5.727   2.531  17.786  0.00  0.00    +0.000 HD
BRANCH  18  20
ATOM     20  C   UNL     1       5.894   3.964  16.395  0.00  0.00    +0.000 A 
ATOM     21  C   UNL     1       6.831   4.985  16.557  0.00  0.00    +0.000 A 
ATOM     22  C   UNL     1       7.415   5.526  15.424  0.00  0.00    +0.000 A 
ATOM     23  N   UNL     1       7.158   5.120  14.165  0.00  0.00    +0.000 NA
ATOM     24  C   UNL     1       6.265   4.101  14.002  0.00  0.00    +0.000 A 
ATOM     25  C   UNL     1       5.625   3.518  15.097  0.00  0.00    +0.000 A 
BRANCH  24  26
ATOM     26  C   UNL     1       5.938   3.588  12.611  0.00  0.00    +0.000 C 
ATOM     27  F   UNL     1       6.141   2.252  12.429  0.00  0.00    +0.000 F 
ATOM     28  F   UNL     1       4.636   3.817  12.256  0.00  0.00    +0.000 F 
ATOM     29  F   UNL     1       6.683   4.207  11.644  0.00  0.00    +0.000 F 
ENDBRANCH  24  26
ENDBRANCH  18  20
ENDBRANCH   6  18
TORSDOF 7
ENDMDL
MODEL 6
REMARK VINA RESULT:      -8.3      0.952      1.108
REMARK  Name = 
REMARK  8 active torsions:
REMARK  status: ('A' for Active; 'I' for Inactive)
REMARK    1  A    between atoms: C_1  and  S_2
REMARK    2  A    between atoms: S_2  and  C_3
REMARK    3  A    between atoms: C_6  and  O_7
REMARK    4  A    between atoms: O_7  and  C_8
REMARK    5  A    between atoms: C_8  and  C_10
REMARK    6  A    between atoms: C_15  and  N_16
REMARK    7  A    between atoms: N_16  and  C_17
REMARK    8  A    between atoms: C_21  and  C_22
REMARK                            x       y       z     vdW  Elec       q    Type
REMARK                         _______ _______ _______ _____ _____    ______ ____
ROOT
ATOM      1  C   UNL     1       2.286   3.875  19.101  0.00  0.00    +0.000 A 
ATOM      2  C   UNL     1       1.398   3.867  20.200  0.00  0.00    +0.000 A 
ATOM      3  C   UNL     1       1.719   3.199  21.381  0.00  0.00    +0.000 A 
ATOM      4  C   UNL     1       2.927   2.527  21.483  0.00  0.00    +0.000 A 
ATOM      5  C   UNL     1       3.804   2.510  20.398  0.00  0.00    +0.000 A 
ATOM      6  C   UNL     1       3.513   3.179  19.189  0.00  0.00    +0.000 A 
ENDROOT
BRANCH   1   7
ATOM      7  C   UNL     1       1.944   4.750  17.945  0.00  0.00    +0.000 C 
ATOM      8  O   UNL     1       1.111   4.480  17.095  0.00  0.00    +0.000 OA
BRANCH   7   9
ATOM      9  O   UNL     1       2.740   5.892  18.008  0.00  0.00    +0.000 OA
BRANCH   9  13
ATOM     10  C   UNL     1       1.140   9.436  19.619  0.00  0.00    +0.000 A 
ATOM     11  C   UNL     1       1.508   8.358  20.431  0.00  0.00    +0.000 A 
ATOM     12  C   UNL     1       2.113   7.226  19.872  0.00  0.00    +0.000 A 
ATOM     13  C   UNL     1       2.333   7.160  18.494  0.00  0.00    +0.000 A 
ATOM     14  C   UNL     1       2.037   8.251  17.686  0.00  0.00    +0.000 A 
ATOM     15  C   UNL     1       1.433   9.379  18.251  0.00  0.00    +0.000 A 
BRANCH  10  17
ATOM     16  C   UNL     1       0.702  12.141  19.035  0.00  0.00    +0.000 C 
ATOM     17  S   UNL     1       0.208  10.846  20.198  0.00  0.00    +0.000 S 
ENDBRANCH  10  17
ENDBRANCH   9  13
ENDBRANCH   7   9
ENDBRANCH   1   7
BRANCH   6  18
ATOM     18  N   UNL     1       4.488   3.077  18.170  0.00  0.00    +0.000 N 
ATOM     19  H   UNL     1       4.558   2.135  17.784  0.00  0.00    +0.000 HD
BRANCH  18  20
ATOM     20  C   UNL     1       5.058   4.014  17.296  0.00  0.00    +0.000 A 
ATOM     21  C   UNL     1       4.886   3.984  15.912  0.00  0.00    +0.000 A 
ATOM     22  C   UNL     1       5.520   4.951  15.150  0.00  0.00    +0.000 A 
ATOM     23  N   UNL     1       6.280   5.943  15.655  0.00  0.00    +0.000 NA
ATOM     24  C   UNL     1       6.427   5.996  17.011  0.00  0.00    +0.000 A 
ATOM     25  C   UNL     1       5.830   5.044  17.841  0.00  0.00    +0.000 A 
BRANCH  24  26
ATOM     26  C   UNL     1       7.262   7.094  17.646  0.00  0.00    +0.000 C 
ATOM     27  F   UNL     1       7.900   6.737  18.796  0.00  0.00    +0.000 F 
ATOM     28  F   UNL     1       8.239   7.565  16.810  0.00  0.00    +0.000 F 
ATOM     29  F   UNL     1       6.511   8.191  17.969  0.00  0.00    +0.000 F 
ENDBRANCH  24  26
ENDBRANCH  18  20
ENDBRANCH   6  18
TORSDOF 7
ENDMDL
MODEL 7
REMARK VINA RESULT:      -8.3      1.624      2.068
REMARK  Name = 
REMARK  8 active torsions:
REMARK  status: ('A' for Active; 'I' for Inactive)
REMARK    1  A    between atoms: C_1  and  S_2
REMARK    2  A    between atoms: S_2  and  C_3
REMARK    3  A    between atoms: C_6  and  O_7
REMARK    4  A    between atoms: O_7  and  C_8
REMARK    5  A    between atoms: C_8  and  C_10
REMARK    6  A    between atoms: C_15  and  N_16
REMARK    7  A    between atoms: N_16  and  C_17
REMARK    8  A    between atoms: C_21  and  C_22
REMARK                            x       y       z     vdW  Elec       q    Type
REMARK                         _______ _______ _______ _____ _____    ______ ____
ROOT
ATOM      1  C   UNL     1       2.017   5.236  19.499  0.00  0.00    +0.000 A 
ATOM      2  C   UNL     1       1.277   4.709  20.581  0.00  0.00    +0.000 A 
ATOM      3  C   UNL     1       1.102   3.334  20.730  0.00  0.00    +0.000 A 
ATOM      4  C   UNL     1       1.658   2.465  19.804  0.00  0.00    +0.000 A 
ATOM      5  C   UNL     1       2.373   2.974  18.720  0.00  0.00    +0.000 A 
ATOM      6  C   UNL     1       2.574   4.360  18.539  0.00  0.00    +0.000 A 
ENDROOT
BRANCH   1   7
ATOM      7  C   UNL     1       2.300   6.699  19.505  0.00  0.00    +0.000 C 
ATOM      8  O   UNL     1       2.917   7.289  18.633  0.00  0.00    +0.000 OA
BRANCH   7   9
ATOM      9  O   UNL     1       1.757   7.247  20.666  0.00  0.00    +0.000 OA
BRANCH   9  13
ATOM     10  C   UNL     1      -0.392  10.825  21.205  0.00  0.00    +0.000 A 
ATOM     11  C   UNL     1       0.065  10.070  22.290  0.00  0.00    +0.000 A 
ATOM     12  C   UNL     1       0.847   8.928  22.077  0.00  0.00    +0.000 A 
ATOM     13  C   UNL     1       1.157   8.526  20.776  0.00  0.00    +0.000 A 
ATOM     14  C   UNL     1       0.770   9.306  19.693  0.00  0.00    +0.000 A 
ATOM     15  C   UNL     1      -0.010  10.446  19.912  0.00  0.00    +0.000 A 
BRANCH  10  17
ATOM     16  C   UNL     1      -1.183  12.813  23.014  0.00  0.00    +0.000 C 
ATOM     17  S   UNL     1      -1.535  12.191  21.352  0.00  0.00    +0.000 S 
ENDBRANCH  10  17
ENDBRANCH   9  13
ENDBRANCH   7   9
ENDBRANCH   1   7
BRANCH   6  18
ATOM     18  N   UNL     1       3.314   4.739  17.396  0.00  0.00    +0.000 N 
ATOM     19  H   UNL     1       2.818   5.408  16.808  0.00  0.00    +0.000 HD
BRANCH  18  20
ATOM     20  C   UNL     1       4.687   4.748  17.107  0.00  0.00    +0.000 A 
ATOM     21  C   UNL     1       5.221   4.358  15.878  0.00  0.00    +0.000 A 
ATOM     22  C   UNL     1       6.596   4.388  15.721  0.00  0.00    +0.000 A 
ATOM     23  N   UNL     1       7.464   4.791  16.669  0.00  0.00    +0.000 NA
ATOM     24  C   UNL     1       6.947   5.202  17.863  0.00  0.00    +0.000 A 
ATOM     25  C   UNL     1       5.571   5.184  18.099  0.00  0.00    +0.000 A 
BRANCH  24  26
ATOM     26  C   UNL     1       7.869   5.678  18.971  0.00  0.00    +0.000 C 
ATOM     27  F   UNL     1       8.918   4.850  19.241  0.00  0.00    +0.000 F 
ATOM     28  F   UNL     1       8.421   6.903  18.710  0.00  0.00    +0.000 F 
ATOM     29  F   UNL     1       7.209   5.832  20.160  0.00  0.00    +0.000 F 
ENDBRANCH  24  26
ENDBRANCH  18  20
ENDBRANCH   6  18
TORSDOF 7
ENDMDL
MODEL 8
REMARK VINA RESULT:      -8.2      2.487      4.564
REMARK  Name = 
REMARK  8 active torsions:
REMARK  status: ('A' for Active; 'I' for Inactive)
REMARK    1  A    between atoms: C_1  and  S_2
REMARK    2  A    between atoms: S_2  and  C_3
REMARK    3  A    between atoms: C_6  and  O_7
REMARK    4  A    between atoms: O_7  and  C_8
REMARK    5  A    between atoms: C_8  and  C_10
REMARK    6  A    between atoms: C_15  and  N_16
REMARK    7  A    between atoms: N_16  and  C_17
REMARK    8  A    between atoms: C_21  and  C_22
REMARK                            x       y       z     vdW  Elec       q    Type
REMARK                         _______ _______ _______ _____ _____    ______ ____
ROOT
ATOM      1  C   UNL     1       5.858   6.228  17.424  0.00  0.00    +0.000 A 
ATOM      2  C   UNL     1       6.735   7.253  17.844  0.00  0.00    +0.000 A 
ATOM      3  C   UNL     1       7.866   6.964  18.606  0.00  0.00    +0.000 A 
ATOM      4  C   UNL     1       8.138   5.653  18.963  0.00  0.00    +0.000 A 
ATOM      5  C   UNL     1       7.268   4.634  18.572  0.00  0.00    +0.000 A 
ATOM      6  C   UNL     1       6.117   4.889  17.796  0.00  0.00    +0.000 A 
ENDROOT
BRANCH   1   7
ATOM      7  C   UNL     1       4.771   6.598  16.474  0.00  0.00    +0.000 C 
ATOM      8  O   UNL     1       4.952   6.974  15.327  0.00  0.00    +0.000 OA
BRANCH   7   9
ATOM      9  O   UNL     1       3.549   6.450  17.126  0.00  0.00    +0.000 OA
BRANCH   9  13
ATOM     10  C   UNL     1       1.344   9.021  19.625  0.00  0.00    +0.000 A 
ATOM     11  C   UNL     1       1.856   7.804  20.087  0.00  0.00    +0.000 A 
ATOM     12  C   UNL     1       2.654   7.011  19.255  0.00  0.00    +0.000 A 
ATOM     13  C   UNL     1       2.926   7.422  17.947  0.00  0.00    +0.000 A 
ATOM     14  C   UNL     1       2.483   8.660  17.499  0.00  0.00    +0.000 A 
ATOM     15  C   UNL     1       1.686   9.449  18.336  0.00  0.00    +0.000 A 
BRANCH  10  17
ATOM     16  C   UNL     1       0.826  11.693  20.289  0.00  0.00    +0.000 C 
ATOM     17  S   UNL     1       0.178  10.022  20.536  0.00  0.00    +0.000 S 
ENDBRANCH  10  17
ENDBRANCH   9  13
ENDBRANCH   7   9
ENDBRANCH   1   7
BRANCH   6  18
ATOM     18  N   UNL     1       5.322   3.766  17.473  0.00  0.00    +0.000 N 
ATOM     19  H   UNL     1       5.850   3.029  17.006  0.00  0.00    +0.000 HD
BRANCH  18  20
ATOM     20  C   UNL     1       4.127   3.258  18.004  0.00  0.00    +0.000 A 
ATOM     21  C   UNL     1       3.396   2.227  17.412  0.00  0.00    +0.000 A 
ATOM     22  C   UNL     1       2.217   1.827  18.018  0.00  0.00    +0.000 A 
ATOM     23  N   UNL     1       1.731   2.350  19.161  0.00  0.00    +0.000 NA
ATOM     24  C   UNL     1       2.457   3.337  19.761  0.00  0.00    +0.000 A 
ATOM     25  C   UNL     1       3.647   3.803  19.199  0.00  0.00    +0.000 A 
BRANCH  24  26
ATOM     26  C   UNL     1       1.971   3.962  21.056  0.00  0.00    +0.000 C 
ATOM     27  F   UNL     1       2.859   4.805  21.656  0.00  0.00    +0.000 F 
ATOM     28  F   UNL     1       0.822   4.689  20.894  0.00  0.00    +0.000 F 
ATOM     29  F   UNL     1       1.665   3.021  22.001  0.00  0.00    +0.000 F 
ENDBRANCH  24  26
ENDBRANCH  18  20
ENDBRANCH   6  18
TORSDOF 7
ENDMDL
MODEL 9
REMARK VINA RESULT:      -8.2      2.429      3.102
REMARK  Name = 
REMARK  8 active torsions:
REMARK  status: ('A' for Active; 'I' for Inactive)
REMARK    1  A    between atoms: C_1  and  S_2
REMARK    2  A    between atoms: S_2  and  C_3
REMARK    3  A    between atoms: C_6  and  O_7
REMARK    4  A    between atoms: O_7  and  C_8
REMARK    5  A    between atoms: C_8  and  C_10
REMARK    6  A    between atoms: C_15  and  N_16
REMARK    7  A    between atoms: N_16  and  C_17
REMARK    8  A    between atoms: C_21  and  C_22
REMARK                            x       y       z     vdW  Elec       q    Type
REMARK                         _______ _______ _______ _____ _____    ______ ____
ROOT
ATOM      1  C   UNL     1       2.520   3.983  19.524  0.00  0.00    +0.000 A 
ATOM      2  C   UNL     1       1.264   3.379  19.295  0.00  0.00    +0.000 A 
ATOM      3  C   UNL     1       1.149   2.230  18.513  0.00  0.00    +0.000 A 
ATOM      4  C   UNL     1       2.283   1.668  17.947  0.00  0.00    +0.000 A 
ATOM      5  C   UNL     1       3.527   2.267  18.148  0.00  0.00    +0.000 A 
ATOM      6  C   UNL     1       3.681   3.427  18.938  0.00  0.00    +0.000 A 
ENDROOT
BRANCH   1   7
ATOM      7  C   UNL     1       2.579   5.102  20.505  0.00  0.00    +0.000 C 
ATOM      8  O   UNL     1       2.282   5.006  21.685  0.00  0.00    +0.000 OA
BRANCH   7   9
ATOM      9  O   UNL     1       3.008   6.248  19.839  0.00  0.00    +0.000 OA
BRANCH   9  13
ATOM     10  C   UNL     1       1.095   9.898  18.981  0.00  0.00    +0.000 A 
ATOM     11  C   UNL     1       1.768   9.170  17.995  0.00  0.00    +0.000 A 
ATOM     12  C   UNL     1       2.324   7.920  18.295  0.00  0.00    +0.000 A 
ATOM     13  C   UNL     1       2.226   7.404  19.589  0.00  0.00    +0.000 A 
ATOM     14  C   UNL     1       1.500   8.083  20.558  0.00  0.00    +0.000 A 
ATOM     15  C   UNL     1       0.946   9.331  20.253  0.00  0.00    +0.000 A 
BRANCH  10  17
ATOM     16  C   UNL     1       2.044  12.506  18.603  0.00  0.00    +0.000 C 
ATOM     17  S   UNL     1       0.504  11.569  18.757  0.00  0.00    +0.000 S 
ENDBRANCH  10  17
ENDBRANCH   9  13
ENDBRANCH   7   9
ENDBRANCH   1   7
BRANCH   6  18
ATOM     18  N   UNL     1       4.997   3.930  19.056  0.00  0.00    +0.000 N 
ATOM     19  H   UNL     1       5.553   3.424  19.745  0.00  0.00    +0.000 HD
BRANCH  18  20
ATOM     20  C   UNL     1       5.825   4.650  18.183  0.00  0.00    +0.000 A 
ATOM     21  C   UNL     1       6.718   5.638  18.603  0.00  0.00    +0.000 A 
ATOM     22  C   UNL     1       7.467   6.297  17.643  0.00  0.00    +0.000 A 
ATOM     23  N   UNL     1       7.413   6.037  16.322  0.00  0.00    +0.000 NA
ATOM     24  C   UNL     1       6.565   5.052  15.908  0.00  0.00    +0.000 A 
ATOM     25  C   UNL     1       5.766   4.355  16.818  0.00  0.00    +0.000 A 
BRANCH  24  26
ATOM     26  C   UNL     1       6.464   4.701  14.434  0.00  0.00    +0.000 C 
ATOM     27  F   UNL     1       6.625   3.379  14.146  0.00  0.00    +0.000 F 
ATOM     28  F   UNL     1       5.259   5.056  13.889  0.00  0.00    +0.000 F 
ATOM     29  F   UNL     1       7.400   5.357  13.682  0.00  0.00    +0.000 F 
ENDBRANCH  24  26
ENDBRANCH  18  20
ENDBRANCH   6  18
TORSDOF 7
ENDMDL
