MODEL 1
REMARK VINA RESULT:      -7.5      0.000      0.000
REMARK  Name = 
REMARK  6 active torsions:
REMARK  status: ('A' for Active; 'I' for Inactive)
REMARK    1  A    between atoms: C_1  and  C_2
REMARK    2  A    between atoms: C_2  and  C_3
REMARK    3  A    between atoms: C_3  and  N_4
REMARK    4  A    between atoms: C_9  and  N_10
REMARK    5  A    between atoms: C_11  and  C_13
REMARK    6  A    between atoms: C_13  and  C_14
REMARK                            x       y       z     vdW  Elec       q    Type
REMARK                         _______ _______ _______ _____ _____    ______ ____
ROOT
ATOM      1  N   UNL     1       2.512   5.752  19.971  0.00  0.00    +0.000 N 
ATOM      2  C   UNL     1       2.236   7.080  19.764  0.00  0.00    +0.000 A 
ATOM      3  C   UNL     1       2.815   7.454  18.577  0.00  0.00    +0.000 A 
ATOM      4  C   UNL     1       3.456   6.310  18.038  0.00  0.00    +0.000 A 
ATOM      5  C   UNL     1       4.188   6.091  16.854  0.00  0.00    +0.000 A 
ATOM      6  C   UNL     1       4.692   4.823  16.559  0.00  0.00    +0.000 A 
ATOM      7  C   UNL     1       4.504   3.781  17.474  0.00  0.00    +0.000 A 
ATOM      8  C   UNL     1       3.782   3.972  18.664  0.00  0.00    +0.000 A 
ATOM      9  C   UNL     1       3.258   5.249  18.923  0.00  0.00    +0.000 A 
ENDROOT
BRANCH   6  10
ATOM     10  N   UNL     1       5.381   4.545  15.359  0.00  0.00    +0.000 N 
ATOM     11  C   UNL     1       6.613   5.055  14.987  0.00  0.00    +0.000 C 
ATOM     12  O   UNL     1       7.324   5.815  15.638  0.00  0.00    +0.000 OA
ATOM     13  H   UNL     1       4.871   4.047  14.633  0.00  0.00    +0.000 HD
BRANCH  11  14
ATOM     14  C   UNL     1       7.077   4.594  13.620  0.00  0.00    +0.000 C 
BRANCH  14  15
ATOM     15  C   UNL     1       6.255   3.450  13.052  0.00  0.00    +0.000 C 
ATOM     16  C   UNL     1       6.826   2.748  11.831  0.00  0.00    +0.000 C 
ATOM     17  C   UNL     1       5.588   2.079  11.287  0.00  0.00    +0.000 C 
ATOM     18  C   UNL     1       4.524   3.131  11.527  0.00  0.00    +0.000 C 
ATOM     19  O   UNL     1       4.940   3.904  12.668  0.00  0.00    +0.000 OA
ENDBRANCH  14  15
ENDBRANCH  11  14
ENDBRANCH   6  10
BRANCH   1  20
ATOM     20  C   UNL     1       2.048   5.007  21.131  0.00  0.00    +0.000 C 
BRANCH  20  22
ATOM     21  C   UNL     1       1.589   2.565  21.508  0.00  0.00    +0.000 C 
ATOM     22  C   UNL     1       1.187   3.810  20.734  0.00  0.00    +0.000 C 
ENDBRANCH  20  22
ENDBRANCH   1  20
TORSDOF 5
ENDMDL
MODEL 2
REMARK VINA RESULT:      -6.9      3.340      5.262
REMARK  Name = 
REMARK  6 active torsions:
REMARK  status: ('A' for Active; 'I' for Inactive)
REMARK    1  A    between atoms: C_1  and  C_2
REMARK    2  A    between atoms: C_2  and  C_3
REMARK    3  A    between atoms: C_3  and  N_4
REMARK    4  A    between atoms: C_9  and  N_10
REMARK    5  A    between atoms: C_11  and  C_13
REMARK    6  A    between atoms: C_13  and  C_14
REMARK                            x       y       z     vdW  Elec       q    Type
REMARK                         _______ _______ _______ _____ _____    ______ ____
ROOT
ATOM      1  N   UNL     1       0.383  10.029  20.636  0.00  0.00    +0.000 N 
ATOM      2  C   UNL     1       0.242  10.930  19.612  0.00  0.00    +0.000 A 
ATOM      3  C   UNL     1       0.888  10.426  18.510  0.00  0.00    +0.000 A 
ATOM      4  C   UNL     1       1.431   9.168  18.875  0.00  0.00    +0.000 A 
ATOM      5  C   UNL     1       2.172   8.203  18.165  0.00  0.00    +0.000 A 
ATOM      6  C   UNL     1       2.560   7.013  18.785  0.00  0.00    +0.000 A 
ATOM      7  C   UNL     1       2.248   6.810  20.133  0.00  0.00    +0.000 A 
ATOM      8  C   UNL     1       1.513   7.758  20.867  0.00  0.00    +0.000 A 
ATOM      9  C   UNL     1       1.107   8.931  20.211  0.00  0.00    +0.000 A 
ENDROOT
BRANCH   6  10
ATOM     10  N   UNL     1       3.254   5.995  18.096  0.00  0.00    +0.000 N 
ATOM     11  C   UNL     1       2.741   4.765  17.724  0.00  0.00    +0.000 C 
ATOM     12  O   UNL     1       1.597   4.356  17.908  0.00  0.00    +0.000 OA
ATOM     13  H   UNL     1       4.260   6.104  17.992  0.00  0.00    +0.000 HD
BRANCH  11  14
ATOM     14  C   UNL     1       3.744   3.870  17.024  0.00  0.00    +0.000 C 
BRANCH  14  15
ATOM     15  C   UNL     1       5.007   4.595  16.593  0.00  0.00    +0.000 C 
ATOM     16  C   UNL     1       5.731   4.030  15.382  0.00  0.00    +0.000 C 
ATOM     17  C   UNL     1       7.100   4.639  15.562  0.00  0.00    +0.000 C 
ATOM     18  C   UNL     1       7.287   4.563  17.064  0.00  0.00    +0.000 C 
ATOM     19  O   UNL     1       5.978   4.615  17.661  0.00  0.00    +0.000 OA
ENDBRANCH  14  15
ENDBRANCH  11  14
ENDBRANCH   6  10
BRANCH   1  20
ATOM     20  C   UNL     1      -0.183  10.225  21.961  0.00  0.00    +0.000 C 
BRANCH  20  22
ATOM     21  C   UNL     1      -1.841  11.766  23.053  0.00  0.00    +0.000 C 
ATOM     22  C   UNL     1      -0.585  11.678  22.202  0.00  0.00    +0.000 C 
ENDBRANCH  20  22
ENDBRANCH   1  20
TORSDOF 5
ENDMDL
MODEL 3
REMARK VINA RESULT:      -6.8      3.478      5.689
REMARK  Name = 
REMARK  6 active torsions:
REMARK  status: ('A' for Active; 'I' for Inactive)
REMARK    1  A    between atoms: C_1  and  C_2
REMARK    2  A    between atoms: C_2  and  C_3
REMARK    3  A    between atoms: C_3  and  N_4
REMARK    4  A    between atoms: C_9  and  N_10
REMARK    5  A    between atoms: C_11  and  C_13
REMARK    6  A    between atoms: C_13  and  C_14
REMARK                            x       y       z     vdW  Elec       q    Type
REMARK                         _______ _______ _______ _____ _____    ______ ____
ROOT
ATOM      1  N   UNL     1       0.445  10.412  20.398  0.00  0.00    +0.000 N 
ATOM      2  C   UNL     1       0.424  10.012  21.710  0.00  0.00    +0.000 A 
ATOM      3  C   UNL     1       1.035   8.785  21.790  0.00  0.00    +0.000 A 
ATOM      4  C   UNL     1       1.451   8.432  20.481  0.00  0.00    +0.000 A 
ATOM      5  C   UNL     1       2.131   7.312  19.962  0.00  0.00    +0.000 A 
ATOM      6  C   UNL     1       2.443   7.242  18.603  0.00  0.00    +0.000 A 
ATOM      7  C   UNL     1       2.031   8.274  17.751  0.00  0.00    +0.000 A 
ATOM      8  C   UNL     1       1.348   9.400  18.241  0.00  0.00    +0.000 A 
ATOM      9  C   UNL     1       1.075   9.462  19.617  0.00  0.00    +0.000 A 
ENDROOT
BRANCH   6  10
ATOM     10  N   UNL     1       3.172   6.167  18.050  0.00  0.00    +0.000 N 
ATOM     11  C   UNL     1       2.690   4.894  17.804  0.00  0.00    +0.000 C 
ATOM     12  O   UNL     1       1.549   4.485  18.005  0.00  0.00    +0.000 OA
ATOM     13  H   UNL     1       4.178   6.284  17.960  0.00  0.00    +0.000 HD
BRANCH  11  14
ATOM     14  C   UNL     1       3.727   3.947  17.234  0.00  0.00    +0.000 C 
BRANCH  14  15
ATOM     15  C   UNL     1       4.987   4.645  16.752  0.00  0.00    +0.000 C 
ATOM     16  C   UNL     1       5.687   4.024  15.554  0.00  0.00    +0.000 C 
ATOM     17  C   UNL     1       7.062   4.632  15.686  0.00  0.00    +0.000 C 
ATOM     18  C   UNL     1       7.274   4.619  17.186  0.00  0.00    +0.000 C 
ATOM     19  O   UNL     1       5.975   4.703  17.802  0.00  0.00    +0.000 OA
ENDBRANCH  14  15
ENDBRANCH  11  14
ENDBRANCH   6  10
BRANCH   1  20
ATOM     20  C   UNL     1      -0.108  11.675  19.934  0.00  0.00    +0.000 C 
BRANCH  20  22
ATOM     21  C   UNL     1      -0.954  13.713  21.137  0.00  0.00    +0.000 C 
ATOM     22  C   UNL     1      -1.157  12.227  20.897  0.00  0.00    +0.000 C 
ENDBRANCH  20  22
ENDBRANCH   1  20
TORSDOF 5
ENDMDL
MODEL 4
REMARK VINA RESULT:      -6.7      3.356      5.919
REMARK  Name = 
REMARK  6 active torsions:
REMARK  status: ('A' for Active; 'I' for Inactive)
REMARK    1  A    between atoms: C_1  and  C_2
REMARK    2  A    between atoms: C_2  and  C_3
REMARK    3  A    between atoms: C_3  and  N_4
REMARK    4  A    between atoms: C_9  and  N_10
REMARK    5  A    between atoms: C_11  and  C_13
REMARK    6  A    between atoms: C_13  and  C_14
REMARK                            x       y       z     vdW  Elec       q    Type
REMARK                         _______ _______ _______ _____ _____    ______ ____
ROOT
ATOM      1  N   UNL     1       0.848  10.410  20.165  0.00  0.00    +0.000 N 
ATOM      2  C   UNL     1       0.688  10.023  21.472  0.00  0.00    +0.000 A 
ATOM      3  C   UNL     1       1.083   8.712  21.578  0.00  0.00    +0.000 A 
ATOM      4  C   UNL     1       1.509   8.291  20.293  0.00  0.00    +0.000 A 
ATOM      5  C   UNL     1       2.023   7.073  19.806  0.00  0.00    +0.000 A 
ATOM      6  C   UNL     1       2.396   6.948  18.466  0.00  0.00    +0.000 A 
ATOM      7  C   UNL     1       2.208   8.031  17.599  0.00  0.00    +0.000 A 
ATOM      8  C   UNL     1       1.693   9.256  18.057  0.00  0.00    +0.000 A 
ATOM      9  C   UNL     1       1.356   9.366  19.416  0.00  0.00    +0.000 A 
ENDROOT
BRANCH   6  10
ATOM     10  N   UNL     1       2.968   5.766  17.948  0.00  0.00    +0.000 N 
ATOM     11  C   UNL     1       4.307   5.562  17.667  0.00  0.00    +0.000 C 
ATOM     12  O   UNL     1       5.227   6.359  17.835  0.00  0.00    +0.000 OA
ATOM     13  H   UNL     1       2.330   5.050  17.609  0.00  0.00    +0.000 HD
BRANCH  11  14
ATOM     14  C   UNL     1       4.608   4.194  17.087  0.00  0.00    +0.000 C 
BRANCH  14  15
ATOM     15  C   UNL     1       4.051   3.048  17.913  0.00  0.00    +0.000 C 
ATOM     16  C   UNL     1       2.663   2.556  17.538  0.00  0.00    +0.000 C 
ATOM     17  C   UNL     1       2.269   1.833  18.803  0.00  0.00    +0.000 C 
ATOM     18  C   UNL     1       2.840   2.737  19.878  0.00  0.00    +0.000 C 
ATOM     19  O   UNL     1       3.980   3.408  19.309  0.00  0.00    +0.000 OA
ENDBRANCH  14  15
ENDBRANCH  11  14
ENDBRANCH   6  10
BRANCH   1  20
ATOM     20  C   UNL     1       0.538  11.745  19.679  0.00  0.00    +0.000 C 
BRANCH  20  22
ATOM     21  C   UNL     1       2.260  12.916  18.274  0.00  0.00    +0.000 C 
ATOM     22  C   UNL     1       1.764  12.655  19.686  0.00  0.00    +0.000 C 
ENDBRANCH  20  22
ENDBRANCH   1  20
TORSDOF 5
ENDMDL
MODEL 5
REMARK VINA RESULT:      -6.6      3.265      5.760
REMARK  Name = 
REMARK  6 active torsions:
REMARK  status: ('A' for Active; 'I' for Inactive)
REMARK    1  A    between atoms: C_1  and  C_2
REMARK    2  A    between atoms: C_2  and  C_3
REMARK    3  A    between atoms: C_3  and  N_4
REMARK    4  A    between atoms: C_9  and  N_10
REMARK    5  A    between atoms: C_11  and  C_13
REMARK    6  A    between atoms: C_13  and  C_14
REMARK                            x       y       z     vdW  Elec       q    Type
REMARK                         _______ _______ _______ _____ _____    ______ ____
ROOT
ATOM      1  N   UNL     1       0.388  10.607  19.821  0.00  0.00    +0.000 N 
ATOM      2  C   UNL     1       0.045  10.372  21.128  0.00  0.00    +0.000 A 
ATOM      3  C   UNL     1       0.534   9.138  21.480  0.00  0.00    +0.000 A 
ATOM      4  C   UNL     1       1.209   8.611  20.350  0.00  0.00    +0.000 A 
ATOM      5  C   UNL     1       1.908   7.408  20.128  0.00  0.00    +0.000 A 
ATOM      6  C   UNL     1       2.512   7.159  18.893  0.00  0.00    +0.000 A 
ATOM      7  C   UNL     1       2.376   8.096  17.863  0.00  0.00    +0.000 A 
ATOM      8  C   UNL     1       1.680   9.302  18.055  0.00  0.00    +0.000 A 
ATOM      9  C   UNL     1       1.110   9.543  19.316  0.00  0.00    +0.000 A 
ENDROOT
BRANCH   6  10
ATOM     10  N   UNL     1       3.270   5.994  18.644  0.00  0.00    +0.000 N 
ATOM     11  C   UNL     1       2.795   4.809  18.111  0.00  0.00    +0.000 C 
ATOM     12  O   UNL     1       1.646   4.572  17.746  0.00  0.00    +0.000 OA
ATOM     13  H   UNL     1       4.213   5.962  19.025  0.00  0.00    +0.000 HD
BRANCH  11  14
ATOM     14  C   UNL     1       3.849   3.726  17.995  0.00  0.00    +0.000 C 
BRANCH  14  15
ATOM     15  C   UNL     1       4.968   4.068  17.027  0.00  0.00    +0.000 C 
ATOM     16  C   UNL     1       6.331   4.343  17.640  0.00  0.00    +0.000 C 
ATOM     17  C   UNL     1       6.997   5.096  16.514  0.00  0.00    +0.000 C 
ATOM     18  C   UNL     1       5.861   5.947  15.982  0.00  0.00    +0.000 C 
ATOM     19  O   UNL     1       4.637   5.240  16.253  0.00  0.00    +0.000 OA
ENDBRANCH  14  15
ENDBRANCH  11  14
ENDBRANCH   6  10
BRANCH   1  20
ATOM     20  C   UNL     1       0.043  11.827  19.108  0.00  0.00    +0.000 C 
BRANCH  20  22
ATOM     21  C   UNL     1       2.160  12.976  18.391  0.00  0.00    +0.000 C 
ATOM     22  C   UNL     1       1.026  12.958  19.401  0.00  0.00    +0.000 C 
ENDBRANCH  20  22
ENDBRANCH   1  20
TORSDOF 5
ENDMDL
MODEL 6
REMARK VINA RESULT:      -6.6      2.136      3.310
REMARK  Name = 
REMARK  6 active torsions:
REMARK  status: ('A' for Active; 'I' for Inactive)
REMARK    1  A    between atoms: C_1  and  C_2
REMARK    2  A    between atoms: C_2  and  C_3
REMARK    3  A    between atoms: C_3  and  N_4
REMARK    4  A    between atoms: C_9  and  N_10
REMARK    5  A    between atoms: C_11  and  C_13
REMARK    6  A    between atoms: C_13  and  C_14
REMARK                            x       y       z     vdW  Elec       q    Type
REMARK                         _______ _______ _______ _____ _____    ______ ____
ROOT
ATOM      1  N   UNL     1       1.349   8.581  20.371  0.00  0.00    +0.000 N 
ATOM      2  C   UNL     1       1.058   9.594  19.492  0.00  0.00    +0.000 A 
ATOM      3  C   UNL     1       1.646   9.294  18.288  0.00  0.00    +0.000 A 
ATOM      4  C   UNL     1       2.308   8.048  18.437  0.00  0.00    +0.000 A 
ATOM      5  C   UNL     1       3.056   7.250  17.550  0.00  0.00    +0.000 A 
ATOM      6  C   UNL     1       3.580   6.025  17.972  0.00  0.00    +0.000 A 
ATOM      7  C   UNL     1       3.396   5.622  19.299  0.00  0.00    +0.000 A 
ATOM      8  C   UNL     1       2.658   6.402  20.207  0.00  0.00    +0.000 A 
ATOM      9  C   UNL     1       2.114   7.613  19.749  0.00  0.00    +0.000 A 
ENDROOT
BRANCH   6  10
ATOM     10  N   UNL     1       4.286   5.167  17.102  0.00  0.00    +0.000 N 
ATOM     11  C   UNL     1       5.484   5.449  16.471  0.00  0.00    +0.000 C 
ATOM     12  O   UNL     1       6.147   6.478  16.571  0.00  0.00    +0.000 OA
ATOM     13  H   UNL     1       3.807   4.326  16.788  0.00  0.00    +0.000 HD
BRANCH  11  14
ATOM     14  C   UNL     1       5.978   4.334  15.570  0.00  0.00    +0.000 C 
BRANCH  14  15
ATOM     15  C   UNL     1       6.281   4.787  14.153  0.00  0.00    +0.000 C 
ATOM     16  C   UNL     1       6.325   3.701  13.091  0.00  0.00    +0.000 C 
ATOM     17  C   UNL     1       7.106   4.400  12.005  0.00  0.00    +0.000 C 
ATOM     18  C   UNL     1       8.138   5.173  12.802  0.00  0.00    +0.000 C 
ATOM     19  O   UNL     1       7.560   5.454  14.090  0.00  0.00    +0.000 OA
ENDBRANCH  14  15
ENDBRANCH  11  14
ENDBRANCH   6  10
BRANCH   1  20
ATOM     20  C   UNL     1       0.883   8.555  21.748  0.00  0.00    +0.000 C 
BRANCH  20  22
ATOM     21  C   UNL     1      -0.611  10.051  23.107  0.00  0.00    +0.000 C 
ATOM     22  C   UNL     1      -0.517   9.148  21.888  0.00  0.00    +0.000 C 
ENDBRANCH  20  22
ENDBRANCH   1  20
TORSDOF 5
ENDMDL
MODEL 7
REMARK VINA RESULT:      -6.6      3.243      5.592
REMARK  Name = 
REMARK  6 active torsions:
REMARK  status: ('A' for Active; 'I' for Inactive)
REMARK    1  A    between atoms: C_1  and  C_2
REMARK    2  A    between atoms: C_2  and  C_3
REMARK    3  A    between atoms: C_3  and  N_4
REMARK    4  A    between atoms: C_9  and  N_10
REMARK    5  A    between atoms: C_11  and  C_13
REMARK    6  A    between atoms: C_13  and  C_14
REMARK                            x       y       z     vdW  Elec       q    Type
REMARK                         _______ _______ _______ _____ _____    ______ ____
ROOT
ATOM      1  N   UNL     1       0.497  10.249  20.325  0.00  0.00    +0.000 N 
ATOM      2  C   UNL     1       0.327   9.946  21.651  0.00  0.00    +0.000 A 
ATOM      3  C   UNL     1       0.880   8.710  21.880  0.00  0.00    +0.000 A 
ATOM      4  C   UNL     1       1.417   8.251  20.649  0.00  0.00    +0.000 A 
ATOM      5  C   UNL     1       2.104   7.078  20.283  0.00  0.00    +0.000 A 
ATOM      6  C   UNL     1       2.552   6.901  18.972  0.00  0.00    +0.000 A 
ATOM      7  C   UNL     1       2.268   7.879  18.013  0.00  0.00    +0.000 A 
ATOM      8  C   UNL     1       1.580   9.058  18.350  0.00  0.00    +0.000 A 
ATOM      9  C   UNL     1       1.169   9.226  19.682  0.00  0.00    +0.000 A 
ENDROOT
BRANCH   6  10
ATOM     10  N   UNL     1       3.294   5.768  18.574  0.00  0.00    +0.000 N 
ATOM     11  C   UNL     1       2.792   4.640  17.949  0.00  0.00    +0.000 C 
ATOM     12  O   UNL     1       1.627   4.438  17.615  0.00  0.00    +0.000 OA
ATOM     13  H   UNL     1       4.253   5.699  18.906  0.00  0.00    +0.000 HD
BRANCH  11  14
ATOM     14  C   UNL     1       3.836   3.576  17.677  0.00  0.00    +0.000 C 
BRANCH  14  15
ATOM     15  C   UNL     1       5.050   4.093  16.924  0.00  0.00    +0.000 C 
ATOM     16  C   UNL     1       6.254   4.477  17.767  0.00  0.00    +0.000 C 
ATOM     17  C   UNL     1       7.002   5.362  16.801  0.00  0.00    +0.000 C 
ATOM     18  C   UNL     1       5.876   6.116  16.121  0.00  0.00    +0.000 C 
ATOM     19  O   UNL     1       4.714   5.266  16.154  0.00  0.00    +0.000 OA
ENDBRANCH  14  15
ENDBRANCH  11  14
ENDBRANCH   6  10
BRANCH   1  20
ATOM     20  C   UNL     1       0.041  11.490  19.720  0.00  0.00    +0.000 C 
BRANCH  20  22
ATOM     21  C   UNL     1      -1.644  12.179  17.987  0.00  0.00    +0.000 C 
ATOM     22  C   UNL     1      -1.418  11.409  19.278  0.00  0.00    +0.000 C 
ENDBRANCH  20  22
ENDBRANCH   1  20
TORSDOF 5
ENDMDL
MODEL 8
REMARK VINA RESULT:      -6.6      2.357      3.616
REMARK  Name = 
REMARK  6 active torsions:
REMARK  status: ('A' for Active; 'I' for Inactive)
REMARK    1  A    between atoms: C_1  and  C_2
REMARK    2  A    between atoms: C_2  and  C_3
REMARK    3  A    between atoms: C_3  and  N_4
REMARK    4  A    between atoms: C_9  and  N_10
REMARK    5  A    between atoms: C_11  and  C_13
REMARK    6  A    between atoms: C_13  and  C_14
REMARK                            x       y       z     vdW  Elec       q    Type
REMARK                         _______ _______ _______ _____ _____    ______ ____
ROOT
ATOM      1  N   UNL     1       1.051   8.856  19.907  0.00  0.00    +0.000 N 
ATOM      2  C   UNL     1       0.904   9.911  19.043  0.00  0.00    +0.000 A 
ATOM      3  C   UNL     1       1.758   9.716  17.986  0.00  0.00    +0.000 A 
ATOM      4  C   UNL     1       2.440   8.493  18.210  0.00  0.00    +0.000 A 
ATOM      5  C   UNL     1       3.409   7.787  17.470  0.00  0.00    +0.000 A 
ATOM      6  C   UNL     1       3.895   6.562  17.931  0.00  0.00    +0.000 A 
ATOM      7  C   UNL     1       3.447   6.064  19.159  0.00  0.00    +0.000 A 
ATOM      8  C   UNL     1       2.484   6.750  19.920  0.00  0.00    +0.000 A 
ATOM      9  C   UNL     1       1.987   7.964  19.420  0.00  0.00    +0.000 A 
ENDROOT
BRANCH   6  10
ATOM     10  N   UNL     1       4.823   5.793  17.195  0.00  0.00    +0.000 N 
ATOM     11  C   UNL     1       4.603   4.534  16.664  0.00  0.00    +0.000 C 
ATOM     12  O   UNL     1       3.565   3.879  16.723  0.00  0.00    +0.000 OA
ATOM     13  H   UNL     1       5.787   6.119  17.176  0.00  0.00    +0.000 HD
BRANCH  11  14
ATOM     14  C   UNL     1       5.807   3.952  15.952  0.00  0.00    +0.000 C 
BRANCH  14  15
ATOM     15  C   UNL     1       6.067   4.573  14.591  0.00  0.00    +0.000 C 
ATOM     16  C   UNL     1       6.110   3.618  13.410  0.00  0.00    +0.000 C 
ATOM     17  C   UNL     1       6.849   4.457  12.396  0.00  0.00    +0.000 C 
ATOM     18  C   UNL     1       7.883   5.158  13.255  0.00  0.00    +0.000 C 
ATOM     19  O   UNL     1       7.329   5.274  14.579  0.00  0.00    +0.000 OA
ENDBRANCH  14  15
ENDBRANCH  11  14
ENDBRANCH   6  10
BRANCH   1  20
ATOM     20  C   UNL     1       0.295   8.719  21.142  0.00  0.00    +0.000 C 
BRANCH  20  22
ATOM     21  C   UNL     1      -0.320   9.797  23.327  0.00  0.00    +0.000 C 
ATOM     22  C   UNL     1       0.269  10.018  21.944  0.00  0.00    +0.000 C 
ENDBRANCH  20  22
ENDBRANCH   1  20
TORSDOF 5
ENDMDL
MODEL 9
REMARK VINA RESULT:      -6.5      3.293      5.637
REMARK  Name = 
REMARK  6 active torsions:
REMARK  status: ('A' for Active; 'I' for Inactive)
REMARK    1  A    between atoms: C_1  and  C_2
REMARK    2  A    between atoms: C_2  and  C_3
REMARK    3  A    between atoms: C_3  and  N_4
REMARK    4  A    between atoms: C_9  and  N_10
REMARK    5  A    between atoms: C_11  and  C_13
REMARK    6  A    between atoms: C_13  and  C_14
REMARK                            x       y       z     vdW  Elec       q    Type
REMARK                         _______ _______ _______ _____ _____    ______ ____
ROOT
ATOM      1  N   UNL     1       0.580  10.285  20.467  0.00  0.00    +0.000 N 
ATOM      2  C   UNL     1       0.448  11.154  19.414  0.00  0.00    +0.000 A 
ATOM      3  C   UNL     1       0.988  10.558  18.301  0.00  0.00    +0.000 A 
ATOM      4  C   UNL     1       1.454   9.277  18.689  0.00  0.00    +0.000 A 
ATOM      5  C   UNL     1       2.076   8.230  17.982  0.00  0.00    +0.000 A 
ATOM      6  C   UNL     1       2.409   7.038  18.630  0.00  0.00    +0.000 A 
ATOM      7  C   UNL     1       2.162   6.912  20.002  0.00  0.00    +0.000 A 
ATOM      8  C   UNL     1       1.546   7.943  20.733  0.00  0.00    +0.000 A 
ATOM      9  C   UNL     1       1.193   9.119  20.051  0.00  0.00    +0.000 A 
ENDROOT
BRANCH   6  10
ATOM     10  N   UNL     1       2.980   5.942  17.949  0.00  0.00    +0.000 N 
ATOM     11  C   UNL     1       4.275   5.865  17.466  0.00  0.00    +0.000 C 
ATOM     12  O   UNL     1       5.151   6.721  17.562  0.00  0.00    +0.000 OA
ATOM     13  H   UNL     1       2.352   5.200  17.650  0.00  0.00    +0.000 HD
BRANCH  11  14
ATOM     14  C   UNL     1       4.583   4.566  16.748  0.00  0.00    +0.000 C 
BRANCH  14  15
ATOM     15  C   UNL     1       4.301   3.329  17.583  0.00  0.00    +0.000 C 
ATOM     16  C   UNL     1       2.934   2.691  17.405  0.00  0.00    +0.000 C 
ATOM     17  C   UNL     1       2.837   1.875  18.670  0.00  0.00    +0.000 C 
ATOM     18  C   UNL     1       3.474   2.795  19.693  0.00  0.00    +0.000 C 
ATOM     19  O   UNL     1       4.423   3.620  18.991  0.00  0.00    +0.000 OA
ENDBRANCH  14  15
ENDBRANCH  11  14
ENDBRANCH   6  10
BRANCH   1  20
ATOM     20  C   UNL     1       0.110  10.577  21.812  0.00  0.00    +0.000 C 
BRANCH  20  22
ATOM     21  C   UNL     1      -0.881  12.782  22.497  0.00  0.00    +0.000 C 
ATOM     22  C   UNL     1      -1.138  11.455  21.804  0.00  0.00    +0.000 C 
ENDBRANCH  20  22
ENDBRANCH   1  20
TORSDOF 5
ENDMDL
