MODEL 1
REMARK VINA RESULT:      -7.6      0.000      0.000
REMARK  Name = 
REMARK  8 active torsions:
REMARK  status: ('A' for Active; 'I' for Inactive)
REMARK    1  A    between atoms: N_1  and  C_2
REMARK    2  A    between atoms: C_2  and  C_3
REMARK    3  A    between atoms: C_2  and  C_8
REMARK    4  A    between atoms: C_3  and  C_4
REMARK    5  A    between atoms: C_4  and  C_5
REMARK    6  A    between atoms: N_10  and  C_11
REMARK    7  A    between atoms: C_14  and  O_15
REMARK    8  A    between atoms: C_16  and  C_17
REMARK                            x       y       z     vdW  Elec       q    Type
REMARK                         _______ _______ _______ _____ _____    ______ ____
ROOT
ATOM      1  C   UNL     1       2.388   3.985  18.022  0.00  0.00    +0.000 C 
ATOM      2  O   UNL     1       2.191   5.159  17.663  0.00  0.00    +0.000 OA
ATOM      3  N   UNL     1       3.655   3.406  18.039  0.00  0.00    +0.000 N 
ATOM      4  H   UNL     1       3.735   2.389  17.983  0.00  0.00    +0.000 HD
ENDROOT
BRANCH   3   5
ATOM      5  C   UNL     1       4.807   4.139  17.700  0.00  0.00    +0.000 A 
ATOM      6  C   UNL     1       5.411   4.998  18.620  0.00  0.00    +0.000 A 
ATOM      7  C   UNL     1       6.418   5.852  18.209  0.00  0.00    +0.000 A 
ATOM      8  C   UNL     1       6.854   5.827  16.889  0.00  0.00    +0.000 A 
ATOM      9  C   UNL     1       6.349   4.900  15.971  0.00  0.00    +0.000 A 
ATOM     10  C   UNL     1       5.310   4.048  16.402  0.00  0.00    +0.000 A 
BRANCH   9  11
ATOM     11  C   UNL     1       6.860   4.761  14.557  0.00  0.00    +0.000 C 
ATOM     12  O   UNL     1       6.295   3.870  13.851  0.00  0.00    +0.000 OA
ATOM     13  O   UNL     1       7.823   5.511  14.220  0.00  0.00    +0.000 OA
ENDBRANCH   9  11
BRANCH   8  14
ATOM     14  O   UNL     1       7.739   6.815  16.579  0.00  0.00    +0.000 OA
ATOM     15  H   UNL     1       7.740   6.878  15.605  0.00  0.00    +0.000 HD
ENDBRANCH   8  14
ENDBRANCH   3   5
BRANCH   1  16
ATOM     16  C   UNL     1       1.228   3.018  18.334  0.00  0.00    +0.000 C 
BRANCH  16  17
ATOM     17  N   UNL     1       1.793   1.646  18.469  0.00  0.00    +0.000 NA
ATOM     18  H   UNL     1       2.576   1.674  19.122  0.00  0.00    +0.000 HD
ATOM     19  H   UNL     1       1.091   1.045  18.908  0.00  0.00    +0.000 HD
ENDBRANCH  16  17
BRANCH  16  20
ATOM     20  C   UNL     1       0.652   3.288  19.715  0.00  0.00    +0.000 C 
BRANCH  20  21
ATOM     21  C   UNL     1       1.526   3.993  20.745  0.00  0.00    +0.000 C 
BRANCH  21  22
ATOM     22  C   UNL     1       2.220   2.878  21.537  0.00  0.00    +0.000 C 
ATOM     23  O   UNL     1       3.373   2.544  21.106  0.00  0.00    +0.000 OA
ATOM     24  O   UNL     1       1.542   2.336  22.435  0.00  0.00    +0.000 OA
ENDBRANCH  21  22
ENDBRANCH  20  21
ENDBRANCH  16  20
ENDBRANCH   1  16
TORSDOF 8
ENDMDL
MODEL 2
REMARK VINA RESULT:      -7.1      0.941      1.183
REMARK  Name = 
REMARK  8 active torsions:
REMARK  status: ('A' for Active; 'I' for Inactive)
REMARK    1  A    between atoms: N_1  and  C_2
REMARK    2  A    between atoms: C_2  and  C_3
REMARK    3  A    between atoms: C_2  and  C_8
REMARK    4  A    between atoms: C_3  and  C_4
REMARK    5  A    between atoms: C_4  and  C_5
REMARK    6  A    between atoms: N_10  and  C_11
REMARK    7  A    between atoms: C_14  and  O_15
REMARK    8  A    between atoms: C_16  and  C_17
REMARK                            x       y       z     vdW  Elec       q    Type
REMARK                         _______ _______ _______ _____ _____    ______ ____
ROOT
ATOM      1  C   UNL     1       2.797   3.217  18.202  0.00  0.00    +0.000 C 
ATOM      2  O   UNL     1       3.713   2.462  18.572  0.00  0.00    +0.000 OA
ATOM      3  N   UNL     1       3.036   4.463  17.625  0.00  0.00    +0.000 N 
ATOM      4  H   UNL     1       2.308   5.177  17.672  0.00  0.00    +0.000 HD
ENDROOT
BRANCH   3   5
ATOM      5  C   UNL     1       4.341   4.921  17.371  0.00  0.00    +0.000 A 
ATOM      6  C   UNL     1       5.011   5.734  18.287  0.00  0.00    +0.000 A 
ATOM      7  C   UNL     1       6.208   6.331  17.934  0.00  0.00    +0.000 A 
ATOM      8  C   UNL     1       6.762   6.090  16.682  0.00  0.00    +0.000 A 
ATOM      9  C   UNL     1       6.175   5.191  15.786  0.00  0.00    +0.000 A 
ATOM     10  C   UNL     1       4.945   4.604  16.154  0.00  0.00    +0.000 A 
BRANCH   9  11
ATOM     11  C   UNL     1       6.788   4.814  14.459  0.00  0.00    +0.000 C 
ATOM     12  O   UNL     1       7.848   5.438  14.141  0.00  0.00    +0.000 OA
ATOM     13  O   UNL     1       6.173   3.947  13.770  0.00  0.00    +0.000 OA
ENDBRANCH   9  11
BRANCH   8  14
ATOM     14  O   UNL     1       7.857   6.851  16.405  0.00  0.00    +0.000 OA
ATOM     15  H   UNL     1       7.874   6.952  15.434  0.00  0.00    +0.000 HD
ENDBRANCH   8  14
ENDBRANCH   3   5
BRANCH   1  16
ATOM     16  C   UNL     1       1.314   2.910  18.492  0.00  0.00    +0.000 C 
BRANCH  16  17
ATOM     17  N   UNL     1       1.193   1.457  18.799  0.00  0.00    +0.000 NA
ATOM     18  H   UNL     1       0.326   1.104  18.393  0.00  0.00    +0.000 HD
ATOM     19  H   UNL     1       1.945   0.957  18.319  0.00  0.00    +0.000 HD
ENDBRANCH  16  17
BRANCH  16  20
ATOM     20  C   UNL     1       0.864   3.571  19.784  0.00  0.00    +0.000 C 
BRANCH  20  21
ATOM     21  C   UNL     1       1.926   4.022  20.780  0.00  0.00    +0.000 C 
BRANCH  21  22
ATOM     22  C   UNL     1       2.062   2.877  21.791  0.00  0.00    +0.000 C 
ATOM     23  O   UNL     1       3.218   2.342  21.850  0.00  0.00    +0.000 OA
ATOM     24  O   UNL     1       1.010   2.512  22.356  0.00  0.00    +0.000 OA
ENDBRANCH  21  22
ENDBRANCH  20  21
ENDBRANCH  16  20
ENDBRANCH   1  16
TORSDOF 8
ENDMDL
MODEL 3
REMARK VINA RESULT:      -7.0      1.839      2.570
REMARK  Name = 
REMARK  8 active torsions:
REMARK  status: ('A' for Active; 'I' for Inactive)
REMARK    1  A    between atoms: N_1  and  C_2
REMARK    2  A    between atoms: C_2  and  C_3
REMARK    3  A    between atoms: C_2  and  C_8
REMARK    4  A    between atoms: C_3  and  C_4
REMARK    5  A    between atoms: C_4  and  C_5
REMARK    6  A    between atoms: N_10  and  C_11
REMARK    7  A    between atoms: C_14  and  O_15
REMARK    8  A    between atoms: C_16  and  C_17
REMARK                            x       y       z     vdW  Elec       q    Type
REMARK                         _______ _______ _______ _____ _____    ______ ____
ROOT
ATOM      1  C   UNL     1       2.248   3.993  17.851  0.00  0.00    +0.000 C 
ATOM      2  O   UNL     1       2.925   3.357  17.026  0.00  0.00    +0.000 OA
ATOM      3  N   UNL     1       2.708   5.158  18.464  0.00  0.00    +0.000 N 
ATOM      4  H   UNL     1       2.308   5.435  19.361  0.00  0.00    +0.000 HD
ENDROOT
BRANCH   3   5
ATOM      5  C   UNL     1       3.956   5.719  18.138  0.00  0.00    +0.000 A 
ATOM      6  C   UNL     1       4.071   6.692  17.144  0.00  0.00    +0.000 A 
ATOM      7  C   UNL     1       5.323   7.086  16.706  0.00  0.00    +0.000 A 
ATOM      8  C   UNL     1       6.464   6.541  17.283  0.00  0.00    +0.000 A 
ATOM      9  C   UNL     1       6.384   5.651  18.358  0.00  0.00    +0.000 A 
ATOM     10  C   UNL     1       5.100   5.245  18.781  0.00  0.00    +0.000 A 
BRANCH   9  11
ATOM     11  C   UNL     1       7.590   5.110  19.087  0.00  0.00    +0.000 C 
ATOM     12  O   UNL     1       8.387   4.407  18.393  0.00  0.00    +0.000 OA
ATOM     13  O   UNL     1       7.675   5.371  20.324  0.00  0.00    +0.000 OA
ENDBRANCH   9  11
BRANCH   8  14
ATOM     14  O   UNL     1       7.623   6.899  16.662  0.00  0.00    +0.000 OA
ATOM     15  H   UNL     1       7.585   6.498  15.773  0.00  0.00    +0.000 HD
ENDBRANCH   8  14
ENDBRANCH   3   5
BRANCH   1  16
ATOM     16  C   UNL     1       0.901   3.467  18.388  0.00  0.00    +0.000 C 
BRANCH  16  17
ATOM     17  N   UNL     1       0.965   1.979  18.419  0.00  0.00    +0.000 NA
ATOM     18  H   UNL     1       0.027   1.605  18.271  0.00  0.00    +0.000 HD
ATOM     19  H   UNL     1       1.517   1.658  17.620  0.00  0.00    +0.000 HD
ENDBRANCH  16  17
BRANCH  16  20
ATOM     20  C   UNL     1       0.719   3.832  19.852  0.00  0.00    +0.000 C 
BRANCH  20  21
ATOM     21  C   UNL     1       1.046   2.785  20.911  0.00  0.00    +0.000 C 
BRANCH  21  22
ATOM     22  C   UNL     1       2.345   3.256  21.575  0.00  0.00    +0.000 C 
ATOM     23  O   UNL     1       2.578   4.507  21.485  0.00  0.00    +0.000 OA
ATOM     24  O   UNL     1       3.091   2.360  22.024  0.00  0.00    +0.000 OA
ENDBRANCH  21  22
ENDBRANCH  20  21
ENDBRANCH  16  20
ENDBRANCH   1  16
TORSDOF 8
ENDMDL
MODEL 4
REMARK VINA RESULT:      -7.0      1.070      2.366
REMARK  Name = 
REMARK  8 active torsions:
REMARK  status: ('A' for Active; 'I' for Inactive)
REMARK    1  A    between atoms: N_1  and  C_2
REMARK    2  A    between atoms: C_2  and  C_3
REMARK    3  A    between atoms: C_2  and  C_8
REMARK    4  A    between atoms: C_3  and  C_4
REMARK    5  A    between atoms: C_4  and  C_5
REMARK    6  A    between atoms: N_10  and  C_11
REMARK    7  A    between atoms: C_14  and  O_15
REMARK    8  A    between atoms: C_16  and  C_17
REMARK                            x       y       z     vdW  Elec       q    Type
REMARK                         _______ _______ _______ _____ _____    ______ ____
ROOT
ATOM      1  C   UNL     1       2.158   4.019  17.943  0.00  0.00    +0.000 C 
ATOM      2  O   UNL     1       1.868   5.198  17.677  0.00  0.00    +0.000 OA
ATOM      3  N   UNL     1       3.409   3.470  17.665  0.00  0.00    +0.000 N 
ATOM      4  H   UNL     1       3.491   2.459  17.557  0.00  0.00    +0.000 HD
ENDROOT
BRANCH   3   5
ATOM      5  C   UNL     1       4.447   4.242  17.111  0.00  0.00    +0.000 A 
ATOM      6  C   UNL     1       4.569   4.400  15.730  0.00  0.00    +0.000 A 
ATOM      7  C   UNL     1       5.701   4.993  15.201  0.00  0.00    +0.000 A 
ATOM      8  C   UNL     1       6.698   5.466  16.047  0.00  0.00    +0.000 A 
ATOM      9  C   UNL     1       6.553   5.426  17.437  0.00  0.00    +0.000 A 
ATOM     10  C   UNL     1       5.401   4.802  17.961  0.00  0.00    +0.000 A 
BRANCH   9  11
ATOM     11  C   UNL     1       7.555   6.019  18.399  0.00  0.00    +0.000 C 
ATOM     12  O   UNL     1       7.906   5.270  19.363  0.00  0.00    +0.000 OA
ATOM     13  O   UNL     1       7.920   7.212  18.182  0.00  0.00    +0.000 OA
ENDBRANCH   9  11
BRANCH   8  14
ATOM     14  O   UNL     1       7.819   5.890  15.400  0.00  0.00    +0.000 OA
ATOM     15  H   UNL     1       7.528   6.604  14.801  0.00  0.00    +0.000 HD
ENDBRANCH   8  14
ENDBRANCH   3   5
BRANCH   1  16
ATOM     16  C   UNL     1       1.110   3.015  18.464  0.00  0.00    +0.000 C 
BRANCH  16  17
ATOM     17  N   UNL     1       1.705   1.651  18.401  0.00  0.00    +0.000 NA
ATOM     18  H   UNL     1       0.988   0.967  18.645  0.00  0.00    +0.000 HD
ATOM     19  H   UNL     1       1.958   1.449  17.431  0.00  0.00    +0.000 HD
ENDBRANCH  16  17
BRANCH  16  20
ATOM     20  C   UNL     1       0.861   3.211  19.950  0.00  0.00    +0.000 C 
BRANCH  20  21
ATOM     21  C   UNL     1       1.945   3.878  20.790  0.00  0.00    +0.000 C 
BRANCH  21  22
ATOM     22  C   UNL     1       2.881   2.748  21.234  0.00  0.00    +0.000 C 
ATOM     23  O   UNL     1       2.585   2.207  22.351  0.00  0.00    +0.000 OA
ATOM     24  O   UNL     1       3.893   2.559  20.526  0.00  0.00    +0.000 OA
ENDBRANCH  21  22
ENDBRANCH  20  21
ENDBRANCH  16  20
ENDBRANCH   1  16
TORSDOF 8
ENDMDL
MODEL 5
REMARK VINA RESULT:      -6.9      2.084      6.468
REMARK  Name = 
REMARK  8 active torsions:
REMARK  status: ('A' for Active; 'I' for Inactive)
REMARK    1  A    between atoms: N_1  and  C_2
REMARK    2  A    between atoms: C_2  and  C_3
REMARK    3  A    between atoms: C_2  and  C_8
REMARK    4  A    between atoms: C_3  and  C_4
REMARK    5  A    between atoms: C_4  and  C_5
REMARK    6  A    between atoms: N_10  and  C_11
REMARK    7  A    between atoms: C_14  and  O_15
REMARK    8  A    between atoms: C_16  and  C_17
REMARK                            x       y       z     vdW  Elec       q    Type
REMARK                         _______ _______ _______ _____ _____    ______ ____
ROOT
ATOM      1  C   UNL     1       5.140   4.872  16.748  0.00  0.00    +0.000 C 
ATOM      2  O   UNL     1       5.138   3.715  16.293  0.00  0.00    +0.000 OA
ATOM      3  N   UNL     1       4.196   5.318  17.672  0.00  0.00    +0.000 N 
ATOM      4  H   UNL     1       4.006   6.319  17.740  0.00  0.00    +0.000 HD
ENDROOT
BRANCH   3   5
ATOM      5  C   UNL     1       3.209   4.461  18.193  0.00  0.00    +0.000 A 
ATOM      6  C   UNL     1       2.025   4.217  17.495  0.00  0.00    +0.000 A 
ATOM      7  C   UNL     1       0.991   3.533  18.107  0.00  0.00    +0.000 A 
ATOM      8  C   UNL     1       1.146   3.056  19.404  0.00  0.00    +0.000 A 
ATOM      9  C   UNL     1       2.359   3.184  20.088  0.00  0.00    +0.000 A 
ATOM     10  C   UNL     1       3.398   3.900  19.456  0.00  0.00    +0.000 A 
BRANCH   9  11
ATOM     11  C   UNL     1       2.615   2.594  21.454  0.00  0.00    +0.000 C 
ATOM     12  O   UNL     1       3.759   2.071  21.626  0.00  0.00    +0.000 OA
ATOM     13  O   UNL     1       1.659   2.638  22.284  0.00  0.00    +0.000 OA
ENDBRANCH   9  11
BRANCH   8  14
ATOM     14  O   UNL     1       0.008   2.535  19.942  0.00  0.00    +0.000 OA
ATOM     15  H   UNL     1       0.250   1.648  20.270  0.00  0.00    +0.000 HD
ENDBRANCH   8  14
ENDBRANCH   3   5
BRANCH   1  16
ATOM     16  C   UNL     1       6.091   5.962  16.215  0.00  0.00    +0.000 C 
BRANCH  16  17
ATOM     17  N   UNL     1       5.338   6.796  15.237  0.00  0.00    +0.000 NA
ATOM     18  H   UNL     1       6.004   7.301  14.652  0.00  0.00    +0.000 HD
ATOM     19  H   UNL     1       4.831   6.176  14.601  0.00  0.00    +0.000 HD
ENDBRANCH  16  17
BRANCH  16  20
ATOM     20  C   UNL     1       6.446   6.955  17.309  0.00  0.00    +0.000 C 
BRANCH  20  21
ATOM     21  C   UNL     1       7.736   6.746  18.094  0.00  0.00    +0.000 C 
BRANCH  21  22
ATOM     22  C   UNL     1       7.567   5.406  18.822  0.00  0.00    +0.000 C 
ATOM     23  O   UNL     1       6.807   5.437  19.845  0.00  0.00    +0.000 OA
ATOM     24  O   UNL     1       8.278   4.463  18.413  0.00  0.00    +0.000 OA
ENDBRANCH  21  22
ENDBRANCH  20  21
ENDBRANCH  16  20
ENDBRANCH   1  16
TORSDOF 8
ENDMDL
MODEL 6
REMARK VINA RESULT:      -6.9      1.912      7.134
REMARK  Name = 
REMARK  8 active torsions:
REMARK  status: ('A' for Active; 'I' for Inactive)
REMARK    1  A    between atoms: N_1  and  C_2
REMARK    2  A    between atoms: C_2  and  C_3
REMARK    3  A    between atoms: C_2  and  C_8
REMARK    4  A    between atoms: C_3  and  C_4
REMARK    5  A    between atoms: C_4  and  C_5
REMARK    6  A    between atoms: N_10  and  C_11
REMARK    7  A    between atoms: C_14  and  O_15
REMARK    8  A    between atoms: C_16  and  C_17
REMARK                            x       y       z     vdW  Elec       q    Type
REMARK                         _______ _______ _______ _____ _____    ______ ____
ROOT
ATOM      1  C   UNL     1       5.302   4.914  16.544  0.00  0.00    +0.000 C 
ATOM      2  O   UNL     1       4.647   5.936  16.812  0.00  0.00    +0.000 OA
ATOM      3  N   UNL     1       4.946   3.649  17.008  0.00  0.00    +0.000 N 
ATOM      4  H   UNL     1       5.666   2.929  17.080  0.00  0.00    +0.000 HD
ENDROOT
BRANCH   3   5
ATOM      5  C   UNL     1       3.781   3.443  17.769  0.00  0.00    +0.000 A 
ATOM      6  C   UNL     1       2.517   3.701  17.236  0.00  0.00    +0.000 A 
ATOM      7  C   UNL     1       1.404   3.681  18.058  0.00  0.00    +0.000 A 
ATOM      8  C   UNL     1       1.541   3.365  19.405  0.00  0.00    +0.000 A 
ATOM      9  C   UNL     1       2.775   2.989  19.944  0.00  0.00    +0.000 A 
ATOM     10  C   UNL     1       3.904   3.033  19.097  0.00  0.00    +0.000 A 
BRANCH   9  11
ATOM     11  C   UNL     1       2.961   2.537  21.372  0.00  0.00    +0.000 C 
ATOM     12  O   UNL     1       4.056   1.947  21.628  0.00  0.00    +0.000 OA
ATOM     13  O   UNL     1       1.999   2.748  22.169  0.00  0.00    +0.000 OA
ENDBRANCH   9  11
BRANCH   8  14
ATOM     14  O   UNL     1       0.399   3.525  20.130  0.00  0.00    +0.000 OA
ATOM     15  H   UNL     1       0.578   3.123  21.001  0.00  0.00    +0.000 HD
ENDBRANCH   8  14
ENDBRANCH   3   5
BRANCH   1  16
ATOM     16  C   UNL     1       6.653   4.977  15.802  0.00  0.00    +0.000 C 
BRANCH  16  17
ATOM     17  N   UNL     1       7.707   4.453  16.715  0.00  0.00    +0.000 NA
ATOM     18  H   UNL     1       8.617   4.571  16.270  0.00  0.00    +0.000 HD
ATOM     19  H   UNL     1       7.733   5.037  17.554  0.00  0.00    +0.000 HD
ENDBRANCH  16  17
BRANCH  16  20
ATOM     20  C   UNL     1       6.683   3.993  14.644  0.00  0.00    +0.000 C 
BRANCH  20  21
ATOM     21  C   UNL     1       5.545   4.025  13.630  0.00  0.00    +0.000 C 
BRANCH  21  22
ATOM     22  C   UNL     1       6.143   3.504  12.317  0.00  0.00    +0.000 C 
ATOM     23  O   UNL     1       5.544   2.500  11.809  0.00  0.00    +0.000 OA
ATOM     24  O   UNL     1       7.212   4.035  11.949  0.00  0.00    +0.000 OA
ENDBRANCH  21  22
ENDBRANCH  20  21
ENDBRANCH  16  20
ENDBRANCH   1  16
TORSDOF 8
ENDMDL
MODEL 7
REMARK VINA RESULT:      -6.8      1.972      6.431
REMARK  Name = 
REMARK  8 active torsions:
REMARK  status: ('A' for Active; 'I' for Inactive)
REMARK    1  A    between atoms: N_1  and  C_2
REMARK    2  A    between atoms: C_2  and  C_3
REMARK    3  A    between atoms: C_2  and  C_8
REMARK    4  A    between atoms: C_3  and  C_4
REMARK    5  A    between atoms: C_4  and  C_5
REMARK    6  A    between atoms: N_10  and  C_11
REMARK    7  A    between atoms: C_14  and  O_15
REMARK    8  A    between atoms: C_16  and  C_17
REMARK                            x       y       z     vdW  Elec       q    Type
REMARK                         _______ _______ _______ _____ _____    ______ ____
ROOT
ATOM      1  C   UNL     1       5.127   4.510  16.567  0.00  0.00    +0.000 C 
ATOM      2  O   UNL     1       4.523   5.561  16.839  0.00  0.00    +0.000 OA
ATOM      3  N   UNL     1       4.729   3.265  17.052  0.00  0.00    +0.000 N 
ATOM      4  H   UNL     1       5.418   2.516  17.115  0.00  0.00    +0.000 HD
ENDROOT
BRANCH   3   5
ATOM      5  C   UNL     1       3.573   3.116  17.840  0.00  0.00    +0.000 A 
ATOM      6  C   UNL     1       2.302   3.334  17.305  0.00  0.00    +0.000 A 
ATOM      7  C   UNL     1       1.200   3.374  18.140  0.00  0.00    +0.000 A 
ATOM      8  C   UNL     1       1.354   3.158  19.504  0.00  0.00    +0.000 A 
ATOM      9  C   UNL     1       2.595   2.824  20.054  0.00  0.00    +0.000 A 
ATOM     10  C   UNL     1       3.713   2.805  19.193  0.00  0.00    +0.000 A 
BRANCH   9  11
ATOM     11  C   UNL     1       2.798   2.478  21.510  0.00  0.00    +0.000 C 
ATOM     12  O   UNL     1       3.871   1.857  21.786  0.00  0.00    +0.000 OA
ATOM     13  O   UNL     1       1.870   2.799  22.310  0.00  0.00    +0.000 OA
ENDBRANCH   9  11
BRANCH   8  14
ATOM     14  O   UNL     1       0.221   3.372  20.230  0.00  0.00    +0.000 OA
ATOM     15  H   UNL     1       0.379   4.191  20.738  0.00  0.00    +0.000 HD
ENDBRANCH   8  14
ENDBRANCH   3   5
BRANCH   1  16
ATOM     16  C   UNL     1       6.462   4.508  15.795  0.00  0.00    +0.000 C 
BRANCH  16  17
ATOM     17  N   UNL     1       6.328   5.434  14.636  0.00  0.00    +0.000 NA
ATOM     18  H   UNL     1       5.531   5.142  14.070  0.00  0.00    +0.000 HD
ATOM     19  H   UNL     1       6.089   6.365  14.986  0.00  0.00    +0.000 HD
ENDBRANCH  16  17
BRANCH  16  20
ATOM     20  C   UNL     1       7.567   5.149  16.619  0.00  0.00    +0.000 C 
BRANCH  20  21
ATOM     21  C   UNL     1       7.870   4.581  18.000  0.00  0.00    +0.000 C 
BRANCH  21  22
ATOM     22  C   UNL     1       7.678   5.744  18.981  0.00  0.00    +0.000 C 
ATOM     23  O   UNL     1       7.988   6.894  18.525  0.00  0.00    +0.000 OA
ATOM     24  O   UNL     1       7.356   5.434  20.147  0.00  0.00    +0.000 OA
ENDBRANCH  21  22
ENDBRANCH  20  21
ENDBRANCH  16  20
ENDBRANCH   1  16
TORSDOF 8
ENDMDL
MODEL 8
REMARK VINA RESULT:      -6.8      1.585      2.423
REMARK  Name = 
REMARK  8 active torsions:
REMARK  status: ('A' for Active; 'I' for Inactive)
REMARK    1  A    between atoms: N_1  and  C_2
REMARK    2  A    between atoms: C_2  and  C_3
REMARK    3  A    between atoms: C_2  and  C_8
REMARK    4  A    between atoms: C_3  and  C_4
REMARK    5  A    between atoms: C_4  and  C_5
REMARK    6  A    between atoms: N_10  and  C_11
REMARK    7  A    between atoms: C_14  and  O_15
REMARK    8  A    between atoms: C_16  and  C_17
REMARK                            x       y       z     vdW  Elec       q    Type
REMARK                         _______ _______ _______ _____ _____    ______ ____
ROOT
ATOM      1  C   UNL     1       4.118   2.992  19.792  0.00  0.00    +0.000 C 
ATOM      2  O   UNL     1       5.198   2.409  19.989  0.00  0.00    +0.000 OA
ATOM      3  N   UNL     1       4.017   4.153  19.027  0.00  0.00    +0.000 N 
ATOM      4  H   UNL     1       3.228   4.780  19.183  0.00  0.00    +0.000 HD
ENDROOT
BRANCH   3   5
ATOM      5  C   UNL     1       5.135   4.708  18.377  0.00  0.00    +0.000 A 
ATOM      6  C   UNL     1       6.029   5.533  19.061  0.00  0.00    +0.000 A 
ATOM      7  C   UNL     1       7.004   6.223  18.362  0.00  0.00    +0.000 A 
ATOM      8  C   UNL     1       7.116   6.063  16.986  0.00  0.00    +0.000 A 
ATOM      9  C   UNL     1       6.311   5.157  16.289  0.00  0.00    +0.000 A 
ATOM     10  C   UNL     1       5.310   4.475  17.013  0.00  0.00    +0.000 A 
BRANCH   9  11
ATOM     11  C   UNL     1       6.461   4.869  14.814  0.00  0.00    +0.000 C 
ATOM     12  O   UNL     1       7.531   5.288  14.275  0.00  0.00    +0.000 OA
ATOM     13  O   UNL     1       5.496   4.276  14.246  0.00  0.00    +0.000 OA
ENDBRANCH   9  11
BRANCH   8  14
ATOM     14  O   UNL     1       8.012   6.907  16.402  0.00  0.00    +0.000 OA
ATOM     15  H   UNL     1       7.642   7.124  15.525  0.00  0.00    +0.000 HD
ENDBRANCH   8  14
ENDBRANCH   3   5
BRANCH   1  16
ATOM     16  C   UNL     1       2.817   2.570  20.506  0.00  0.00    +0.000 C 
BRANCH  16  17
ATOM     17  N   UNL     1       3.148   2.254  21.923  0.00  0.00    +0.000 NA
ATOM     18  H   UNL     1       3.996   2.758  22.184  0.00  0.00    +0.000 HD
ATOM     19  H   UNL     1       2.410   2.630  22.523  0.00  0.00    +0.000 HD
ENDBRANCH  16  17
BRANCH  16  20
ATOM     20  C   UNL     1       1.862   3.745  20.631  0.00  0.00    +0.000 C 
BRANCH  20  21
ATOM     21  C   UNL     1       0.478   3.631  20.003  0.00  0.00    +0.000 C 
BRANCH  21  22
ATOM     22  C   UNL     1       0.703   3.054  18.600  0.00  0.00    +0.000 C 
ATOM     23  O   UNL     1       1.241   3.854  17.765  0.00  0.00    +0.000 OA
ATOM     24  O   UNL     1       0.234   1.915  18.389  0.00  0.00    +0.000 OA
ENDBRANCH  21  22
ENDBRANCH  20  21
ENDBRANCH  16  20
ENDBRANCH   1  16
TORSDOF 8
ENDMDL
MODEL 9
REMARK VINA RESULT:      -6.7      1.279      2.522
REMARK  Name = 
REMARK  8 active torsions:
REMARK  status: ('A' for Active; 'I' for Inactive)
REMARK    1  A    between atoms: N_1  and  C_2
REMARK    2  A    between atoms: C_2  and  C_3
REMARK    3  A    between atoms: C_2  and  C_8
REMARK    4  A    between atoms: C_3  and  C_4
REMARK    5  A    between atoms: C_4  and  C_5
REMARK    6  A    between atoms: N_10  and  C_11
REMARK    7  A    between atoms: C_14  and  O_15
REMARK    8  A    between atoms: C_16  and  C_17
REMARK                            x       y       z     vdW  Elec       q    Type
REMARK                         _______ _______ _______ _____ _____    ______ ____
ROOT
ATOM      1  C   UNL     1       2.376   3.452  17.891  0.00  0.00    +0.000 C 
ATOM      2  O   UNL     1       1.899   4.496  17.415  0.00  0.00    +0.000 OA
ATOM      3  N   UNL     1       3.747   3.210  17.948  0.00  0.00    +0.000 N 
ATOM      4  H   UNL     1       4.077   2.245  17.997  0.00  0.00    +0.000 HD
ENDROOT
BRANCH   3   5
ATOM      5  C   UNL     1       4.685   4.166  17.517  0.00  0.00    +0.000 A 
ATOM      6  C   UNL     1       4.755   4.553  16.178  0.00  0.00    +0.000 A 
ATOM      7  C   UNL     1       5.805   5.341  15.742  0.00  0.00    +0.000 A 
ATOM      8  C   UNL     1       6.768   5.778  16.645  0.00  0.00    +0.000 A 
ATOM      9  C   UNL     1       6.663   5.503  18.012  0.00  0.00    +0.000 A 
ATOM     10  C   UNL     1       5.596   4.683  18.438  0.00  0.00    +0.000 A 
BRANCH   9  11
ATOM     11  C   UNL     1       7.621   6.039  19.048  0.00  0.00    +0.000 C 
ATOM     12  O   UNL     1       8.274   7.076  18.714  0.00  0.00    +0.000 OA
ATOM     13  O   UNL     1       7.716   5.390  20.131  0.00  0.00    +0.000 OA
ENDBRANCH   9  11
BRANCH   8  14
ATOM     14  O   UNL     1       7.822   6.417  16.065  0.00  0.00    +0.000 OA
ATOM     15  H   UNL     1       7.546   7.348  15.963  0.00  0.00    +0.000 HD
ENDBRANCH   8  14
ENDBRANCH   3   5
BRANCH   1  16
ATOM     16  C   UNL     1       1.489   2.266  18.320  0.00  0.00    +0.000 C 
BRANCH  16  17
ATOM     17  N   UNL     1       2.373   1.201  18.870  0.00  0.00    +0.000 NA
ATOM     18  H   UNL     1       2.924   0.803  18.109  0.00  0.00    +0.000 HD
ATOM     19  H   UNL     1       3.051   1.633  19.503  0.00  0.00    +0.000 HD
ENDBRANCH  16  17
BRANCH  16  20
ATOM     20  C   UNL     1       0.621   2.639  19.511  0.00  0.00    +0.000 C 
BRANCH  20  21
ATOM     21  C   UNL     1       0.929   3.929  20.262  0.00  0.00    +0.000 C 
BRANCH  21  22
ATOM     22  C   UNL     1       1.828   3.523  21.436  0.00  0.00    +0.000 C 
ATOM     23  O   UNL     1       2.655   4.414  21.819  0.00  0.00    +0.000 OA
ATOM     24  O   UNL     1       1.740   2.335  21.813  0.00  0.00    +0.000 OA
ENDBRANCH  21  22
ENDBRANCH  20  21
ENDBRANCH  16  20
ENDBRANCH   1  16
TORSDOF 8
ENDMDL
