MODEL 1
REMARK VINA RESULT:      -7.3      0.000      0.000
REMARK  Name = 
REMARK  12 active torsions:
REMARK  status: ('A' for Active; 'I' for Inactive)
REMARK    1  A    between atoms: C_1  and  O_2
REMARK    2  A    between atoms: O_2  and  C_3
REMARK    3  A    between atoms: C_6  and  C_7
REMARK    4  A    between atoms: C_21  and  O_22
REMARK    5  A    between atoms: O_22  and  C_23
REMARK    6  A    between atoms: N_27  and  O_28
REMARK    7  A    between atoms: O_28  and  C_29
REMARK    8  A    between atoms: C_29  and  C_30
REMARK    9  A    between atoms: C_30  and  C_31
REMARK   10  A    between atoms: C_31  and  N_32
REMARK   11  A    between atoms: N_32  and  C_33
REMARK   12  A    between atoms: N_32  and  C_34
REMARK                            x       y       z     vdW  Elec       q    Type
REMARK                         _______ _______ _______ _____ _____    ______ ____
ROOT
ATOM      1  C   UNL     1      -1.743  11.670  20.139  0.00  0.00    +0.000 A 
ATOM      2  N   UNL     1      -2.733  11.971  19.265  0.00  0.00    +0.000 NA
ATOM      3  C   UNL     1      -2.838  11.334  18.094  0.00  0.00    +0.000 A 
ATOM      4  C   UNL     1      -3.799  11.831  17.240  0.00  0.00    +0.000 A 
ATOM      5  C   UNL     1      -4.104  11.203  16.044  0.00  0.00    +0.000 A 
ATOM      6  C   UNL     1      -3.402  10.066  15.687  0.00  0.00    +0.000 A 
ATOM      7  F   UNL     1      -3.752   9.406  14.584  0.00  0.00    +0.000 F 
ATOM      8  C   UNL     1      -2.329   9.608  16.470  0.00  0.00    +0.000 A 
ATOM      9  C   UNL     1      -2.007  10.248  17.695  0.00  0.00    +0.000 A 
ATOM     10  C   UNL     1      -0.916   9.984  18.565  0.00  0.00    +0.000 A 
ATOM     11  C   UNL     1      -0.740  10.760  19.761  0.00  0.00    +0.000 A 
ATOM     12  C   UNL     1       0.665  11.128  19.895  0.00  0.00    +0.000 A 
ATOM     13  C   UNL     1       1.269  11.984  20.759  0.00  0.00    +0.000 A 
ATOM     14  C   UNL     1       2.092  12.947  20.215  0.00  0.00    +0.000 A 
ATOM     15  C   UNL     1       2.455  12.918  18.855  0.00  0.00    +0.000 A 
ATOM     16  C   UNL     1       2.077  11.850  18.047  0.00  0.00    +0.000 A 
ATOM     17  C   UNL     1       1.210  10.952  18.616  0.00  0.00    +0.000 A 
ATOM     18  C   UNL     1       0.517   9.765  18.141  0.00  0.00    +0.000 C 
ATOM     19  N   UNL     1       1.173   8.651  17.897  0.00  0.00    +0.000 NA
ENDROOT
BRANCH   1  23
ATOM     20  C   UNL     1      -1.309  14.151  23.642  0.00  0.00    +0.000 A 
ATOM     21  C   UNL     1      -1.215  14.700  22.363  0.00  0.00    +0.000 A 
ATOM     22  C   UNL     1      -1.389  13.907  21.222  0.00  0.00    +0.000 A 
ATOM     23  C   UNL     1      -1.697  12.542  21.328  0.00  0.00    +0.000 A 
ATOM     24  C   UNL     1      -1.918  12.038  22.625  0.00  0.00    +0.000 A 
ATOM     25  C   UNL     1      -1.703  12.822  23.772  0.00  0.00    +0.000 A 
BRANCH  20  27
ATOM     26  C   UNL     1      -2.058  15.730  25.273  0.00  0.00    +0.000 C 
ATOM     27  O   UNL     1      -0.997  15.016  24.653  0.00  0.00    +0.000 OA
ENDBRANCH  20  27
ENDBRANCH   1  23
BRANCH  15  28
ATOM     28  O   UNL     1       3.111  14.033  18.431  0.00  0.00    +0.000 OA
ATOM     29  C   UNL     1       2.356  15.232  18.500  0.00  0.00    +0.000 C 
ENDBRANCH  15  28
BRANCH  19  30
ATOM     30  O   UNL     1       2.537   9.025  17.815  0.00  0.00    +0.000 OA
BRANCH  30  31
ATOM     31  C   UNL     1       3.502   7.970  17.733  0.00  0.00    +0.000 C 
BRANCH  31  32
ATOM     32  C   UNL     1       2.773   6.691  18.127  0.00  0.00    +0.000 C 
BRANCH  32  33
ATOM     33  C   UNL     1       3.657   5.429  17.995  0.00  0.00    +0.000 C 
BRANCH  33  34
ATOM     34  N   UNL     1       4.344   4.959  19.216  0.00  0.00    +0.000 NA
ATOM     35  C   UNL     1       4.178   3.518  19.409  0.00  0.00    +0.000 C 
ATOM     36  C   UNL     1       5.778   5.267  19.103  0.00  0.00    +0.000 C 
ENDBRANCH  33  34
ENDBRANCH  32  33
ENDBRANCH  31  32
ENDBRANCH  30  31
ENDBRANCH  19  30
TORSDOF 8
ENDMDL
MODEL 2
REMARK VINA RESULT:      -7.3      5.823     10.076
REMARK  Name = 
REMARK  12 active torsions:
REMARK  status: ('A' for Active; 'I' for Inactive)
REMARK    1  A    between atoms: C_1  and  O_2
REMARK    2  A    between atoms: O_2  and  C_3
REMARK    3  A    between atoms: C_6  and  C_7
REMARK    4  A    between atoms: C_21  and  O_22
REMARK    5  A    between atoms: O_22  and  C_23
REMARK    6  A    between atoms: N_27  and  O_28
REMARK    7  A    between atoms: O_28  and  C_29
REMARK    8  A    between atoms: C_29  and  C_30
REMARK    9  A    between atoms: C_30  and  C_31
REMARK   10  A    between atoms: C_31  and  N_32
REMARK   11  A    between atoms: N_32  and  C_33
REMARK   12  A    between atoms: N_32  and  C_34
REMARK                            x       y       z     vdW  Elec       q    Type
REMARK                         _______ _______ _______ _____ _____    ______ ____
ROOT
ATOM      1  C   UNL     1       4.909   3.666  16.879  0.00  0.00    +0.000 A 
ATOM      2  N   UNL     1       4.776   3.232  15.604  0.00  0.00    +0.000 NA
ATOM      3  C   UNL     1       5.540   3.725  14.623  0.00  0.00    +0.000 A 
ATOM      4  C   UNL     1       5.208   3.304  13.353  0.00  0.00    +0.000 A 
ATOM      5  C   UNL     1       5.980   3.635  12.252  0.00  0.00    +0.000 A 
ATOM      6  C   UNL     1       7.094   4.435  12.432  0.00  0.00    +0.000 A 
ATOM      7  F   UNL     1       7.891   4.682  11.394  0.00  0.00    +0.000 F 
ATOM      8  C   UNL     1       7.387   4.987  13.690  0.00  0.00    +0.000 A 
ATOM      9  C   UNL     1       6.599   4.657  14.823  0.00  0.00    +0.000 A 
ATOM     10  C   UNL     1       6.688   5.180  16.140  0.00  0.00    +0.000 A 
ATOM     11  C   UNL     1       5.778   4.735  17.159  0.00  0.00    +0.000 A 
ATOM     12  C   UNL     1       5.297   5.887  17.913  0.00  0.00    +0.000 A 
ATOM     13  C   UNL     1       4.312   5.976  18.844  0.00  0.00    +0.000 A 
ATOM     14  C   UNL     1       3.355   6.950  18.651  0.00  0.00    +0.000 A 
ATOM     15  C   UNL     1       3.501   7.937  17.658  0.00  0.00    +0.000 A 
ATOM     16  C   UNL     1       4.674   8.018  16.913  0.00  0.00    +0.000 A 
ATOM     17  C   UNL     1       5.567   6.994  17.097  0.00  0.00    +0.000 A 
ATOM     18  C   UNL     1       6.845   6.638  16.500  0.00  0.00    +0.000 C 
ATOM     19  N   UNL     1       7.928   7.341  16.753  0.00  0.00    +0.000 NA
ENDROOT
BRANCH   1  23
ATOM     20  C   UNL     1       1.995   2.314  19.760  0.00  0.00    +0.000 A 
ATOM     21  C   UNL     1       1.596   2.784  18.508  0.00  0.00    +0.000 A 
ATOM     22  C   UNL     1       2.539   3.191  17.556  0.00  0.00    +0.000 A 
ATOM     23  C   UNL     1       3.915   3.110  17.817  0.00  0.00    +0.000 A 
ATOM     24  C   UNL     1       4.298   2.510  19.033  0.00  0.00    +0.000 A 
ATOM     25  C   UNL     1       3.354   2.139  20.007  0.00  0.00    +0.000 A 
BRANCH  20  27
ATOM     26  C   UNL     1       1.106   2.509  21.970  0.00  0.00    +0.000 C 
ATOM     27  O   UNL     1       0.966   2.069  20.626  0.00  0.00    +0.000 OA
ENDBRANCH  20  27
ENDBRANCH   1  23
BRANCH  15  28
ATOM     28  O   UNL     1       2.393   8.703  17.468  0.00  0.00    +0.000 OA
ATOM     29  C   UNL     1       1.671   9.012  18.649  0.00  0.00    +0.000 C 
ENDBRANCH  15  28
BRANCH  19  30
ATOM     30  O   UNL     1       7.467   8.564  17.300  0.00  0.00    +0.000 OA
BRANCH  30  31
ATOM     31  C   UNL     1       8.302   9.206  18.270  0.00  0.00    +0.000 C 
BRANCH  31  32
ATOM     32  C   UNL     1       8.533  10.625  17.764  0.00  0.00    +0.000 C 
BRANCH  32  33
ATOM     33  C   UNL     1       9.886  11.216  18.226  0.00  0.00    +0.000 C 
BRANCH  33  34
ATOM     34  N   UNL     1      10.358  12.434  17.535  0.00  0.00    +0.000 NA
ATOM     35  C   UNL     1       9.640  13.626  17.991  0.00  0.00    +0.000 C 
ATOM     36  C   UNL     1      11.794  12.606  17.803  0.00  0.00    +0.000 C 
ENDBRANCH  33  34
ENDBRANCH  32  33
ENDBRANCH  31  32
ENDBRANCH  30  31
ENDBRANCH  19  30
TORSDOF 8
ENDMDL
MODEL 3
REMARK VINA RESULT:      -7.2      0.565      1.057
REMARK  Name = 
REMARK  12 active torsions:
REMARK  status: ('A' for Active; 'I' for Inactive)
REMARK    1  A    between atoms: C_1  and  O_2
REMARK    2  A    between atoms: O_2  and  C_3
REMARK    3  A    between atoms: C_6  and  C_7
REMARK    4  A    between atoms: C_21  and  O_22
REMARK    5  A    between atoms: O_22  and  C_23
REMARK    6  A    between atoms: N_27  and  O_28
REMARK    7  A    between atoms: O_28  and  C_29
REMARK    8  A    between atoms: C_29  and  C_30
REMARK    9  A    between atoms: C_30  and  C_31
REMARK   10  A    between atoms: C_31  and  N_32
REMARK   11  A    between atoms: N_32  and  C_33
REMARK   12  A    between atoms: N_32  and  C_34
REMARK                            x       y       z     vdW  Elec       q    Type
REMARK                         _______ _______ _______ _____ _____    ______ ____
ROOT
ATOM      1  C   UNL     1      -1.844  11.687  20.153  0.00  0.00    +0.000 A 
ATOM      2  N   UNL     1      -2.829  11.995  19.278  0.00  0.00    +0.000 NA
ATOM      3  C   UNL     1      -2.925  11.373  18.098  0.00  0.00    +0.000 A 
ATOM      4  C   UNL     1      -3.884  11.877  17.245  0.00  0.00    +0.000 A 
ATOM      5  C   UNL     1      -4.179  11.264  16.039  0.00  0.00    +0.000 A 
ATOM      6  C   UNL     1      -3.469  10.135  15.671  0.00  0.00    +0.000 A 
ATOM      7  F   UNL     1      -3.810   9.489  14.557  0.00  0.00    +0.000 F 
ATOM      8  C   UNL     1      -2.399   9.672  16.454  0.00  0.00    +0.000 A 
ATOM      9  C   UNL     1      -2.087  10.296  17.689  0.00  0.00    +0.000 A 
ATOM     10  C   UNL     1      -1.000  10.025  18.562  0.00  0.00    +0.000 A 
ATOM     11  C   UNL     1      -0.834  10.787  19.769  0.00  0.00    +0.000 A 
ATOM     12  C   UNL     1       0.568  11.159  19.916  0.00  0.00    +0.000 A 
ATOM     13  C   UNL     1       1.163  12.006  20.795  0.00  0.00    +0.000 A 
ATOM     14  C   UNL     1       1.985  12.979  20.269  0.00  0.00    +0.000 A 
ATOM     15  C   UNL     1       2.356  12.971  18.911  0.00  0.00    +0.000 A 
ATOM     16  C   UNL     1       1.988  11.912  18.086  0.00  0.00    +0.000 A 
ATOM     17  C   UNL     1       1.122  11.003  18.639  0.00  0.00    +0.000 A 
ATOM     18  C   UNL     1       0.436   9.819  18.143  0.00  0.00    +0.000 C 
ATOM     19  N   UNL     1       1.099   8.712  17.888  0.00  0.00    +0.000 NA
ENDROOT
BRANCH   1  23
ATOM     20  C   UNL     1      -2.045  14.212  23.645  0.00  0.00    +0.000 A 
ATOM     21  C   UNL     1      -2.016  12.823  23.771  0.00  0.00    +0.000 A 
ATOM     22  C   UNL     1      -1.916  11.999  22.643  0.00  0.00    +0.000 A 
ATOM     23  C   UNL     1      -1.808  12.543  21.354  0.00  0.00    +0.000 A 
ATOM     24  C   UNL     1      -1.706  13.945  21.261  0.00  0.00    +0.000 A 
ATOM     25  C   UNL     1      -1.849  14.775  22.388  0.00  0.00    +0.000 A 
BRANCH  20  27
ATOM     26  C   UNL     1      -1.166  15.533  25.433  0.00  0.00    +0.000 C 
ATOM     27  O   UNL     1      -2.268  14.881  24.817  0.00  0.00    +0.000 OA
ENDBRANCH  20  27
ENDBRANCH   1  23
BRANCH  15  28
ATOM     28  O   UNL     1       3.009  14.095  18.506  0.00  0.00    +0.000 OA
ATOM     29  C   UNL     1       2.247  15.289  18.585  0.00  0.00    +0.000 C 
ENDBRANCH  15  28
BRANCH  19  30
ATOM     30  O   UNL     1       2.462   9.093  17.819  0.00  0.00    +0.000 OA
BRANCH  30  31
ATOM     31  C   UNL     1       3.436   8.043  17.796  0.00  0.00    +0.000 C 
BRANCH  31  32
ATOM     32  C   UNL     1       2.840   6.888  18.593  0.00  0.00    +0.000 C 
BRANCH  32  33
ATOM     33  C   UNL     1       3.021   5.520  17.897  0.00  0.00    +0.000 C 
BRANCH  33  34
ATOM     34  N   UNL     1       4.392   4.972  17.838  0.00  0.00    +0.000 NA
ATOM     35  C   UNL     1       5.028   4.966  19.156  0.00  0.00    +0.000 C 
ATOM     36  C   UNL     1       4.333   3.594  17.326  0.00  0.00    +0.000 C 
ENDBRANCH  33  34
ENDBRANCH  32  33
ENDBRANCH  31  32
ENDBRANCH  30  31
ENDBRANCH  19  30
TORSDOF 8
ENDMDL
MODEL 4
REMARK VINA RESULT:      -7.2      3.430      8.406
REMARK  Name = 
REMARK  12 active torsions:
REMARK  status: ('A' for Active; 'I' for Inactive)
REMARK    1  A    between atoms: C_1  and  O_2
REMARK    2  A    between atoms: O_2  and  C_3
REMARK    3  A    between atoms: C_6  and  C_7
REMARK    4  A    between atoms: C_21  and  O_22
REMARK    5  A    between atoms: O_22  and  C_23
REMARK    6  A    between atoms: N_27  and  O_28
REMARK    7  A    between atoms: O_28  and  C_29
REMARK    8  A    between atoms: C_29  and  C_30
REMARK    9  A    between atoms: C_30  and  C_31
REMARK   10  A    between atoms: C_31  and  N_32
REMARK   11  A    between atoms: N_32  and  C_33
REMARK   12  A    between atoms: N_32  and  C_34
REMARK                            x       y       z     vdW  Elec       q    Type
REMARK                         _______ _______ _______ _____ _____    ______ ____
ROOT
ATOM      1  C   UNL     1       0.413  11.120  19.634  0.00  0.00    +0.000 A 
ATOM      2  N   UNL     1       1.232  12.195  19.550  0.00  0.00    +0.000 NA
ATOM      3  C   UNL     1       0.763  13.435  19.730  0.00  0.00    +0.000 A 
ATOM      4  C   UNL     1       1.667  14.446  19.479  0.00  0.00    +0.000 A 
ATOM      5  C   UNL     1       1.364  15.772  19.735  0.00  0.00    +0.000 A 
ATOM      6  C   UNL     1       0.109  16.090  20.225  0.00  0.00    +0.000 A 
ATOM      7  F   UNL     1      -0.157  17.352  20.558  0.00  0.00    +0.000 F 
ATOM      8  C   UNL     1      -0.878  15.101  20.368  0.00  0.00    +0.000 A 
ATOM      9  C   UNL     1      -0.577  13.739  20.105  0.00  0.00    +0.000 A 
ATOM     10  C   UNL     1      -1.460  12.627  20.109  0.00  0.00    +0.000 A 
ATOM     11  C   UNL     1      -0.970  11.314  19.791  0.00  0.00    +0.000 A 
ATOM     12  C   UNL     1      -1.906  10.657  18.885  0.00  0.00    +0.000 A 
ATOM     13  C   UNL     1      -1.786   9.494  18.194  0.00  0.00    +0.000 A 
ATOM     14  C   UNL     1      -2.046   9.542  16.840  0.00  0.00    +0.000 A 
ATOM     15  C   UNL     1      -2.608  10.685  16.240  0.00  0.00    +0.000 A 
ATOM     16  C   UNL     1      -3.017  11.761  17.021  0.00  0.00    +0.000 A 
ATOM     17  C   UNL     1      -2.681  11.693  18.349  0.00  0.00    +0.000 A 
ATOM     18  C   UNL     1      -2.834  12.589  19.485  0.00  0.00    +0.000 C 
ATOM     19  N   UNL     1      -4.017  12.812  20.016  0.00  0.00    +0.000 NA
ENDROOT
BRANCH   1  23
ATOM     20  C   UNL     1       2.570   7.493  18.733  0.00  0.00    +0.000 A 
ATOM     21  C   UNL     1       1.922   7.651  19.958  0.00  0.00    +0.000 A 
ATOM     22  C   UNL     1       1.191   8.812  20.243  0.00  0.00    +0.000 A 
ATOM     23  C   UNL     1       1.060   9.838  19.295  0.00  0.00    +0.000 A 
ATOM     24  C   UNL     1       1.609   9.600  18.019  0.00  0.00    +0.000 A 
ATOM     25  C   UNL     1       2.378   8.454  17.745  0.00  0.00    +0.000 A 
BRANCH  20  27
ATOM     26  C   UNL     1       2.702   5.147  18.296  0.00  0.00    +0.000 C 
ATOM     27  O   UNL     1       3.341   6.368  18.643  0.00  0.00    +0.000 OA
ENDBRANCH  20  27
ENDBRANCH   1  23
BRANCH  15  28
ATOM     28  O   UNL     1      -2.626  10.646  14.880  0.00  0.00    +0.000 OA
ATOM     29  C   UNL     1      -3.763  10.013  14.315  0.00  0.00    +0.000 C 
ENDBRANCH  15  28
BRANCH  19  30
ATOM     30  O   UNL     1      -4.955  12.367  19.052  0.00  0.00    +0.000 OA
BRANCH  30  31
ATOM     31  C   UNL     1      -6.145  11.736  19.537  0.00  0.00    +0.000 C 
BRANCH  31  32
ATOM     32  C   UNL     1      -6.701  12.649  20.624  0.00  0.00    +0.000 C 
BRANCH  32  33
ATOM     33  C   UNL     1      -7.265  11.869  21.835  0.00  0.00    +0.000 C 
BRANCH  33  34
ATOM     34  N   UNL     1      -6.863  12.334  23.179  0.00  0.00    +0.000 NA
ATOM     35  C   UNL     1      -5.564  13.008  23.151  0.00  0.00    +0.000 C 
ATOM     36  C   UNL     1      -7.880  13.271  23.682  0.00  0.00    +0.000 C 
ENDBRANCH  33  34
ENDBRANCH  32  33
ENDBRANCH  31  32
ENDBRANCH  30  31
ENDBRANCH  19  30
TORSDOF 8
ENDMDL
MODEL 5
REMARK VINA RESULT:      -6.8      3.452      8.681
REMARK  Name = 
REMARK  12 active torsions:
REMARK  status: ('A' for Active; 'I' for Inactive)
REMARK    1  A    between atoms: C_1  and  O_2
REMARK    2  A    between atoms: O_2  and  C_3
REMARK    3  A    between atoms: C_6  and  C_7
REMARK    4  A    between atoms: C_21  and  O_22
REMARK    5  A    between atoms: O_22  and  C_23
REMARK    6  A    between atoms: N_27  and  O_28
REMARK    7  A    between atoms: O_28  and  C_29
REMARK    8  A    between atoms: C_29  and  C_30
REMARK    9  A    between atoms: C_30  and  C_31
REMARK   10  A    between atoms: C_31  and  N_32
REMARK   11  A    between atoms: N_32  and  C_33
REMARK   12  A    between atoms: N_32  and  C_34
REMARK                            x       y       z     vdW  Elec       q    Type
REMARK                         _______ _______ _______ _____ _____    ______ ____
ROOT
ATOM      1  C   UNL     1       0.462  11.136  19.475  0.00  0.00    +0.000 A 
ATOM      2  N   UNL     1       1.257  12.224  19.351  0.00  0.00    +0.000 NA
ATOM      3  C   UNL     1       0.766  13.459  19.505  0.00  0.00    +0.000 A 
ATOM      4  C   UNL     1       1.646  14.480  19.214  0.00  0.00    +0.000 A 
ATOM      5  C   UNL     1       1.320  15.807  19.440  0.00  0.00    +0.000 A 
ATOM      6  C   UNL     1       0.066  16.112  19.940  0.00  0.00    +0.000 A 
ATOM      7  F   UNL     1      -0.221  17.377  20.244  0.00  0.00    +0.000 F 
ATOM      8  C   UNL     1      -0.898  15.108  20.124  0.00  0.00    +0.000 A 
ATOM      9  C   UNL     1      -0.574  13.747  19.892  0.00  0.00    +0.000 A 
ATOM     10  C   UNL     1      -1.434  12.617  19.939  0.00  0.00    +0.000 A 
ATOM     11  C   UNL     1      -0.923  11.306  19.648  0.00  0.00    +0.000 A 
ATOM     12  C   UNL     1      -1.858  10.607  18.774  0.00  0.00    +0.000 A 
ATOM     13  C   UNL     1      -1.725   9.429  18.112  0.00  0.00    +0.000 A 
ATOM     14  C   UNL     1      -2.006   9.435  16.762  0.00  0.00    +0.000 A 
ATOM     15  C   UNL     1      -2.599  10.551  16.140  0.00  0.00    +0.000 A 
ATOM     16  C   UNL     1      -3.019  11.639  16.899  0.00  0.00    +0.000 A 
ATOM     17  C   UNL     1      -2.662  11.613  18.223  0.00  0.00    +0.000 A 
ATOM     18  C   UNL     1      -2.816  12.536  19.337  0.00  0.00    +0.000 C 
ATOM     19  N   UNL     1      -3.995  12.750  19.879  0.00  0.00    +0.000 NA
ENDROOT
BRANCH   1  23
ATOM     20  C   UNL     1       2.675   7.525  18.651  0.00  0.00    +0.000 A 
ATOM     21  C   UNL     1       1.992   7.683  19.858  0.00  0.00    +0.000 A 
ATOM     22  C   UNL     1       1.243   8.837  20.117  0.00  0.00    +0.000 A 
ATOM     23  C   UNL     1       1.129   9.858  19.160  0.00  0.00    +0.000 A 
ATOM     24  C   UNL     1       1.715   9.619  17.901  0.00  0.00    +0.000 A 
ATOM     25  C   UNL     1       2.501   8.480  17.654  0.00  0.00    +0.000 A 
BRANCH  20  27
ATOM     26  C   UNL     1       2.869   5.204  18.114  0.00  0.00    +0.000 C 
ATOM     27  O   UNL     1       3.459   6.406  18.588  0.00  0.00    +0.000 OA
ENDBRANCH  20  27
ENDBRANCH   1  23
BRANCH  15  28
ATOM     28  O   UNL     1      -2.636  10.476  14.781  0.00  0.00    +0.000 OA
ATOM     29  C   UNL     1      -3.910  10.177  14.235  0.00  0.00    +0.000 C 
ENDBRANCH  15  28
BRANCH  19  30
ATOM     30  O   UNL     1      -4.939  12.261  18.942  0.00  0.00    +0.000 OA
BRANCH  30  31
ATOM     31  C   UNL     1      -6.190  11.791  19.454  0.00  0.00    +0.000 C 
BRANCH  31  32
ATOM     32  C   UNL     1      -7.270  12.378  18.552  0.00  0.00    +0.000 C 
BRANCH  32  33
ATOM     33  C   UNL     1      -6.827  13.686  17.856  0.00  0.00    +0.000 C 
BRANCH  33  34
ATOM     34  N   UNL     1      -7.893  14.629  17.458  0.00  0.00    +0.000 NA
ATOM     35  C   UNL     1      -7.880  15.838  18.283  0.00  0.00    +0.000 C 
ATOM     36  C   UNL     1      -7.694  15.006  16.050  0.00  0.00    +0.000 C 
ENDBRANCH  33  34
ENDBRANCH  32  33
ENDBRANCH  31  32
ENDBRANCH  30  31
ENDBRANCH  19  30
TORSDOF 8
ENDMDL
MODEL 6
REMARK VINA RESULT:      -6.8      3.545      8.488
REMARK  Name = 
REMARK  12 active torsions:
REMARK  status: ('A' for Active; 'I' for Inactive)
REMARK    1  A    between atoms: C_1  and  O_2
REMARK    2  A    between atoms: O_2  and  C_3
REMARK    3  A    between atoms: C_6  and  C_7
REMARK    4  A    between atoms: C_21  and  O_22
REMARK    5  A    between atoms: O_22  and  C_23
REMARK    6  A    between atoms: N_27  and  O_28
REMARK    7  A    between atoms: O_28  and  C_29
REMARK    8  A    between atoms: C_29  and  C_30
REMARK    9  A    between atoms: C_30  and  C_31
REMARK   10  A    between atoms: C_31  and  N_32
REMARK   11  A    between atoms: N_32  and  C_33
REMARK   12  A    between atoms: N_32  and  C_34
REMARK                            x       y       z     vdW  Elec       q    Type
REMARK                         _______ _______ _______ _____ _____    ______ ____
ROOT
ATOM      1  C   UNL     1       0.382  11.308  19.840  0.00  0.00    +0.000 A 
ATOM      2  N   UNL     1       1.122  12.441  19.818  0.00  0.00    +0.000 NA
ATOM      3  C   UNL     1       0.565  13.634  20.053  0.00  0.00    +0.000 A 
ATOM      4  C   UNL     1       1.397  14.718  19.862  0.00  0.00    +0.000 A 
ATOM      5  C   UNL     1       0.998  16.005  20.178  0.00  0.00    +0.000 A 
ATOM      6  C   UNL     1      -0.279  16.209  20.670  0.00  0.00    +0.000 A 
ATOM      7  F   UNL     1      -0.637  17.431  21.062  0.00  0.00    +0.000 F 
ATOM      8  C   UNL     1      -1.194  15.146  20.754  0.00  0.00    +0.000 A 
ATOM      9  C   UNL     1      -0.796  13.824  20.428  0.00  0.00    +0.000 A 
ATOM     10  C   UNL     1      -1.597  12.653  20.369  0.00  0.00    +0.000 A 
ATOM     11  C   UNL     1      -1.013  11.396  19.992  0.00  0.00    +0.000 A 
ATOM     12  C   UNL     1      -1.893  10.719  19.046  0.00  0.00    +0.000 A 
ATOM     13  C   UNL     1      -1.686   9.604  18.299  0.00  0.00    +0.000 A 
ATOM     14  C   UNL     1      -1.939   9.700  16.947  0.00  0.00    +0.000 A 
ATOM     15  C   UNL     1      -2.577  10.828  16.398  0.00  0.00    +0.000 A 
ATOM     16  C   UNL     1      -3.067  11.833  17.226  0.00  0.00    +0.000 A 
ATOM     17  C   UNL     1      -2.737  11.723  18.553  0.00  0.00    +0.000 A 
ATOM     18  C   UNL     1      -2.961  12.549  19.729  0.00  0.00    +0.000 C 
ATOM     19  N   UNL     1      -4.160  12.662  20.258  0.00  0.00    +0.000 NA
ENDROOT
BRANCH   1  23
ATOM     20  C   UNL     1       2.273   7.635  18.596  0.00  0.00    +0.000 A 
ATOM     21  C   UNL     1       2.227   8.738  17.743  0.00  0.00    +0.000 A 
ATOM     22  C   UNL     1       1.646   9.944  18.153  0.00  0.00    +0.000 A 
ATOM     23  C   UNL     1       1.120  10.093  19.446  0.00  0.00    +0.000 A 
ATOM     24  C   UNL     1       1.296   9.013  20.333  0.00  0.00    +0.000 A 
ATOM     25  C   UNL     1       1.841   7.787  19.910  0.00  0.00    +0.000 A 
BRANCH  20  27
ATOM     26  C   UNL     1       2.009   5.297  18.177  0.00  0.00    +0.000 C 
ATOM     27  O   UNL     1       2.758   6.494  18.019  0.00  0.00    +0.000 OA
ENDBRANCH  20  27
ENDBRANCH   1  23
BRANCH  15  28
ATOM     28  O   UNL     1      -2.582  10.856  15.037  0.00  0.00    +0.000 OA
ATOM     29  C   UNL     1      -3.537  10.004  14.426  0.00  0.00    +0.000 C 
ENDBRANCH  15  28
BRANCH  19  30
ATOM     30  O   UNL     1      -5.057  12.200  19.263  0.00  0.00    +0.000 OA
BRANCH  30  31
ATOM     31  C   UNL     1      -6.141  11.368  19.693  0.00  0.00    +0.000 C 
BRANCH  31  32
ATOM     32  C   UNL     1      -7.249  12.311  20.149  0.00  0.00    +0.000 C 
BRANCH  32  33
ATOM     33  C   UNL     1      -7.544  12.205  21.663  0.00  0.00    +0.000 C 
BRANCH  33  34
ATOM     34  N   UNL     1      -7.805  13.468  22.385  0.00  0.00    +0.000 NA
ATOM     35  C   UNL     1      -7.916  13.251  23.829  0.00  0.00    +0.000 C 
ATOM     36  C   UNL     1      -6.699  14.402  22.124  0.00  0.00    +0.000 C 
ENDBRANCH  33  34
ENDBRANCH  32  33
ENDBRANCH  31  32
ENDBRANCH  30  31
ENDBRANCH  19  30
TORSDOF 8
ENDMDL
MODEL 7
REMARK VINA RESULT:      -6.8      3.262      8.563
REMARK  Name = 
REMARK  12 active torsions:
REMARK  status: ('A' for Active; 'I' for Inactive)
REMARK    1  A    between atoms: C_1  and  O_2
REMARK    2  A    between atoms: O_2  and  C_3
REMARK    3  A    between atoms: C_6  and  C_7
REMARK    4  A    between atoms: C_21  and  O_22
REMARK    5  A    between atoms: O_22  and  C_23
REMARK    6  A    between atoms: N_27  and  O_28
REMARK    7  A    between atoms: O_28  and  C_29
REMARK    8  A    between atoms: C_29  and  C_30
REMARK    9  A    between atoms: C_30  and  C_31
REMARK   10  A    between atoms: C_31  and  N_32
REMARK   11  A    between atoms: N_32  and  C_33
REMARK   12  A    between atoms: N_32  and  C_34
REMARK                            x       y       z     vdW  Elec       q    Type
REMARK                         _______ _______ _______ _____ _____    ______ ____
ROOT
ATOM      1  C   UNL     1       1.088  11.279  19.412  0.00  0.00    +0.000 A 
ATOM      2  N   UNL     1       1.922  12.208  18.886  0.00  0.00    +0.000 NA
ATOM      3  C   UNL     1       1.662  13.514  19.004  0.00  0.00    +0.000 A 
ATOM      4  C   UNL     1       2.511  14.346  18.306  0.00  0.00    +0.000 A 
ATOM      5  C   UNL     1       2.440  15.724  18.425  0.00  0.00    +0.000 A 
ATOM      6  C   UNL     1       1.471  16.276  19.244  0.00  0.00    +0.000 A 
ATOM      7  F   UNL     1       1.456  17.595  19.435  0.00  0.00    +0.000 F 
ATOM      8  C   UNL     1       0.509  15.464  19.867  0.00  0.00    +0.000 A 
ATOM      9  C   UNL     1       0.572  14.052  19.747  0.00  0.00    +0.000 A 
ATOM     10  C   UNL     1      -0.353  13.086  20.227  0.00  0.00    +0.000 A 
ATOM     11  C   UNL     1      -0.129  11.688  19.985  0.00  0.00    +0.000 A 
ATOM     12  C   UNL     1      -1.378  11.065  19.562  0.00  0.00    +0.000 A 
ATOM     13  C   UNL     1      -1.616   9.822  19.071  0.00  0.00    +0.000 A 
ATOM     14  C   UNL     1      -2.327   9.739  17.893  0.00  0.00    +0.000 A 
ATOM     15  C   UNL     1      -2.954  10.869  17.333  0.00  0.00    +0.000 A 
ATOM     16  C   UNL     1      -2.963  12.080  18.017  0.00  0.00    +0.000 A 
ATOM     17  C   UNL     1      -2.193  12.128  19.151  0.00  0.00    +0.000 A 
ATOM     18  C   UNL     1      -1.856  13.170  20.109  0.00  0.00    +0.000 C 
ATOM     19  N   UNL     1      -2.753  13.624  20.957  0.00  0.00    +0.000 NA
ENDROOT
BRANCH   1  23
ATOM     20  C   UNL     1       2.449   7.278  18.545  0.00  0.00    +0.000 A 
ATOM     21  C   UNL     1       1.948   7.603  19.806  0.00  0.00    +0.000 A 
ATOM     22  C   UNL     1       1.472   8.890  20.083  0.00  0.00    +0.000 A 
ATOM     23  C   UNL     1       1.454   9.886  19.094  0.00  0.00    +0.000 A 
ATOM     24  C   UNL     1       1.839   9.500  17.795  0.00  0.00    +0.000 A 
ATOM     25  C   UNL     1       2.356   8.220  17.525  0.00  0.00    +0.000 A 
BRANCH  20  27
ATOM     26  C   UNL     1       3.777   5.561  19.544  0.00  0.00    +0.000 C 
ATOM     27  O   UNL     1       2.987   6.024  18.457  0.00  0.00    +0.000 OA
ENDBRANCH  20  27
ENDBRANCH   1  23
BRANCH  15  28
ATOM     28  O   UNL     1      -3.450  10.667  16.081  0.00  0.00    +0.000 OA
ATOM     29  C   UNL     1      -2.691   9.780  15.275  0.00  0.00    +0.000 C 
ENDBRANCH  15  28
BRANCH  19  30
ATOM     30  O   UNL     1      -4.005  13.203  20.446  0.00  0.00    +0.000 OA
BRANCH  30  31
ATOM     31  C   UNL     1      -5.000  12.804  21.396  0.00  0.00    +0.000 C 
BRANCH  31  32
ATOM     32  C   UNL     1      -4.324  12.830  22.762  0.00  0.00    +0.000 C 
BRANCH  32  33
ATOM     33  C   UNL     1      -5.073  13.713  23.787  0.00  0.00    +0.000 C 
BRANCH  33  34
ATOM     34  N   UNL     1      -6.447  14.130  23.436  0.00  0.00    +0.000 NA
ATOM     35  C   UNL     1      -7.450  13.366  24.178  0.00  0.00    +0.000 C 
ATOM     36  C   UNL     1      -6.604  15.560  23.749  0.00  0.00    +0.000 C 
ENDBRANCH  33  34
ENDBRANCH  32  33
ENDBRANCH  31  32
ENDBRANCH  30  31
ENDBRANCH  19  30
TORSDOF 8
ENDMDL
MODEL 8
REMARK VINA RESULT:      -6.8      3.064      5.489
REMARK  Name = 
REMARK  12 active torsions:
REMARK  status: ('A' for Active; 'I' for Inactive)
REMARK    1  A    between atoms: C_1  and  O_2
REMARK    2  A    between atoms: O_2  and  C_3
REMARK    3  A    between atoms: C_6  and  C_7
REMARK    4  A    between atoms: C_21  and  O_22
REMARK    5  A    between atoms: O_22  and  C_23
REMARK    6  A    between atoms: N_27  and  O_28
REMARK    7  A    between atoms: O_28  and  C_29
REMARK    8  A    between atoms: C_29  and  C_30
REMARK    9  A    between atoms: C_30  and  C_31
REMARK   10  A    between atoms: C_31  and  N_32
REMARK   11  A    between atoms: N_32  and  C_33
REMARK   12  A    between atoms: N_32  and  C_34
REMARK                            x       y       z     vdW  Elec       q    Type
REMARK                         _______ _______ _______ _____ _____    ______ ____
ROOT
ATOM      1  C   UNL     1      -0.792  14.467  21.562  0.00  0.00    +0.000 A 
ATOM      2  N   UNL     1      -2.019  14.871  21.966  0.00  0.00    +0.000 NA
ATOM      3  C   UNL     1      -2.799  14.075  22.706  0.00  0.00    +0.000 A 
ATOM      4  C   UNL     1      -4.074  14.548  22.931  0.00  0.00    +0.000 A 
ATOM      5  C   UNL     1      -4.955  13.892  23.775  0.00  0.00    +0.000 A 
ATOM      6  C   UNL     1      -4.550  12.716  24.381  0.00  0.00    +0.000 A 
ATOM      7  F   UNL     1      -5.358  12.130  25.264  0.00  0.00    +0.000 F 
ATOM      8  C   UNL     1      -3.307  12.139  24.073  0.00  0.00    +0.000 A 
ATOM      9  C   UNL     1      -2.400  12.802  23.206  0.00  0.00    +0.000 A 
ATOM     10  C   UNL     1      -1.152  12.336  22.716  0.00  0.00    +0.000 A 
ATOM     11  C   UNL     1      -0.378  13.149  21.819  0.00  0.00    +0.000 A 
ATOM     12  C   UNL     1       0.129  12.319  20.731  0.00  0.00    +0.000 A 
ATOM     13  C   UNL     1       0.757  12.671  19.580  0.00  0.00    +0.000 A 
ATOM     14  C   UNL     1       0.242  12.162  18.406  0.00  0.00    +0.000 A 
ATOM     15  C   UNL     1      -0.752  11.166  18.411  0.00  0.00    +0.000 A 
ATOM     16  C   UNL     1      -1.164  10.588  19.608  0.00  0.00    +0.000 A 
ATOM     17  C   UNL     1      -0.671  11.169  20.748  0.00  0.00    +0.000 A 
ATOM     18  C   UNL     1      -0.879  10.954  22.172  0.00  0.00    +0.000 C 
ATOM     19  N   UNL     1      -0.405   9.882  22.770  0.00  0.00    +0.000 NA
ENDROOT
BRANCH   1  23
ATOM     20  C   UNL     1       1.326  16.989  18.773  0.00  0.00    +0.000 A 
ATOM     21  C   UNL     1      -0.004  16.633  18.545  0.00  0.00    +0.000 A 
ATOM     22  C   UNL     1      -0.707  15.844  19.464  0.00  0.00    +0.000 A 
ATOM     23  C   UNL     1      -0.109  15.413  20.657  0.00  0.00    +0.000 A 
ATOM     24  C   UNL     1       1.187  15.892  20.929  0.00  0.00    +0.000 A 
ATOM     25  C   UNL     1       1.910  16.650  19.990  0.00  0.00    +0.000 A 
BRANCH  20  27
ATOM     26  C   UNL     1       2.944  16.989  17.014  0.00  0.00    +0.000 C 
ATOM     27  O   UNL     1       1.918  17.656  17.737  0.00  0.00    +0.000 OA
ENDBRANCH  20  27
ENDBRANCH   1  23
BRANCH  15  28
ATOM     28  O   UNL     1      -1.287  10.908  17.186  0.00  0.00    +0.000 OA
ATOM     29  C   UNL     1      -2.302   9.917  17.175  0.00  0.00    +0.000 C 
ENDBRANCH  15  28
BRANCH  19  30
ATOM     30  O   UNL     1      -0.098   8.972  21.728  0.00  0.00    +0.000 OA
BRANCH  30  31
ATOM     31  C   UNL     1       1.250   8.495  21.649  0.00  0.00    +0.000 C 
BRANCH  31  32
ATOM     32  C   UNL     1       1.573   8.366  20.165  0.00  0.00    +0.000 C 
BRANCH  32  33
ATOM     33  C   UNL     1       2.251   7.022  19.812  0.00  0.00    +0.000 C 
BRANCH  33  34
ATOM     34  N   UNL     1       2.374   6.690  18.377  0.00  0.00    +0.000 NA
ATOM     35  C   UNL     1       3.539   7.336  17.771  0.00  0.00    +0.000 C 
ATOM     36  C   UNL     1       2.507   5.231  18.236  0.00  0.00    +0.000 C 
ENDBRANCH  33  34
ENDBRANCH  32  33
ENDBRANCH  31  32
ENDBRANCH  30  31
ENDBRANCH  19  30
TORSDOF 8
ENDMDL
MODEL 9
REMARK VINA RESULT:      -6.7      3.402      8.348
REMARK  Name = 
REMARK  12 active torsions:
REMARK  status: ('A' for Active; 'I' for Inactive)
REMARK    1  A    between atoms: C_1  and  O_2
REMARK    2  A    between atoms: O_2  and  C_3
REMARK    3  A    between atoms: C_6  and  C_7
REMARK    4  A    between atoms: C_21  and  O_22
REMARK    5  A    between atoms: O_22  and  C_23
REMARK    6  A    between atoms: N_27  and  O_28
REMARK    7  A    between atoms: O_28  and  C_29
REMARK    8  A    between atoms: C_29  and  C_30
REMARK    9  A    between atoms: C_30  and  C_31
REMARK   10  A    between atoms: C_31  and  N_32
REMARK   11  A    between atoms: N_32  and  C_33
REMARK   12  A    between atoms: N_32  and  C_34
REMARK                            x       y       z     vdW  Elec       q    Type
REMARK                         _______ _______ _______ _____ _____    ______ ____
ROOT
ATOM      1  C   UNL     1       1.029  11.270  19.406  0.00  0.00    +0.000 A 
ATOM      2  N   UNL     1       1.833  12.203  18.843  0.00  0.00    +0.000 NA
ATOM      3  C   UNL     1       1.553  13.507  18.943  0.00  0.00    +0.000 A 
ATOM      4  C   UNL     1       2.370  14.340  18.208  0.00  0.00    +0.000 A 
ATOM      5  C   UNL     1       2.278  15.718  18.304  0.00  0.00    +0.000 A 
ATOM      6  C   UNL     1       1.319  16.269  19.136  0.00  0.00    +0.000 A 
ATOM      7  F   UNL     1       1.285  17.590  19.302  0.00  0.00    +0.000 F 
ATOM      8  C   UNL     1       0.387  15.452  19.798  0.00  0.00    +0.000 A 
ATOM      9  C   UNL     1       0.471  14.039  19.702  0.00  0.00    +0.000 A 
ATOM     10  C   UNL     1      -0.424  13.067  20.222  0.00  0.00    +0.000 A 
ATOM     11  C   UNL     1      -0.181  11.668  20.001  0.00  0.00    +0.000 A 
ATOM     12  C   UNL     1      -1.429  11.017  19.621  0.00  0.00    +0.000 A 
ATOM     13  C   UNL     1      -1.657   9.760  19.159  0.00  0.00    +0.000 A 
ATOM     14  C   UNL     1      -2.394   9.643  18.000  0.00  0.00    +0.000 A 
ATOM     15  C   UNL     1      -3.055  10.750  17.435  0.00  0.00    +0.000 A 
ATOM     16  C   UNL     1      -3.069  11.975  18.096  0.00  0.00    +0.000 A 
ATOM     17  C   UNL     1      -2.272  12.057  19.210  0.00  0.00    +0.000 A 
ATOM     18  C   UNL     1      -1.931  13.123  20.140  0.00  0.00    +0.000 C 
ATOM     19  N   UNL     1      -2.815  13.577  21.001  0.00  0.00    +0.000 NA
ENDROOT
BRANCH   1  23
ATOM     20  C   UNL     1       2.438   7.275  18.587  0.00  0.00    +0.000 A 
ATOM     21  C   UNL     1       1.936   7.611  19.846  0.00  0.00    +0.000 A 
ATOM     22  C   UNL     1       1.445   8.896  20.107  0.00  0.00    +0.000 A 
ATOM     23  C   UNL     1       1.411   9.878  19.105  0.00  0.00    +0.000 A 
ATOM     24  C   UNL     1       1.798   9.479  17.811  0.00  0.00    +0.000 A 
ATOM     25  C   UNL     1       2.330   8.203  17.555  0.00  0.00    +0.000 A 
BRANCH  20  27
ATOM     26  C   UNL     1       2.140   4.937  18.192  0.00  0.00    +0.000 C 
ATOM     27  O   UNL     1       2.992   6.028  18.515  0.00  0.00    +0.000 OA
ENDBRANCH  20  27
ENDBRANCH   1  23
BRANCH  15  28
ATOM     28  O   UNL     1      -3.577  10.516  16.200  0.00  0.00    +0.000 OA
ATOM     29  C   UNL     1      -2.621  10.423  15.156  0.00  0.00    +0.000 C 
ENDBRANCH  15  28
BRANCH  19  30
ATOM     30  O   UNL     1      -4.072  13.125  20.529  0.00  0.00    +0.000 OA
BRANCH  30  31
ATOM     31  C   UNL     1      -5.155  13.105  21.465  0.00  0.00    +0.000 C 
BRANCH  31  32
ATOM     32  C   UNL     1      -6.405  12.755  20.665  0.00  0.00    +0.000 C 
BRANCH  32  33
ATOM     33  C   UNL     1      -6.559  13.607  19.384  0.00  0.00    +0.000 C 
BRANCH  33  34
ATOM     34  N   UNL     1      -6.376  12.914  18.091  0.00  0.00    +0.000 NA
ATOM     35  C   UNL     1      -6.826  11.523  18.156  0.00  0.00    +0.000 C 
ATOM     36  C   UNL     1      -7.151  13.622  17.060  0.00  0.00    +0.000 C 
ENDBRANCH  33  34
ENDBRANCH  32  33
ENDBRANCH  31  32
ENDBRANCH  30  31
ENDBRANCH  19  30
TORSDOF 8
ENDMDL
