MODEL 1
REMARK VINA RESULT:      -7.1      0.000      0.000
REMARK  Name = 
REMARK  5 active torsions:
REMARK  status: ('A' for Active; 'I' for Inactive)
REMARK    1  A    between atoms: N_1  and  S_2
REMARK    2  A    between atoms: S_2  and  C_5
REMARK    3  A    between atoms: C_8  and  N_9
REMARK    4  A    between atoms: C_10  and  C_11
REMARK    5  A    between atoms: C_15  and  O_16
REMARK                            x       y       z     vdW  Elec       q    Type
REMARK                         _______ _______ _______ _____ _____    ______ ____
ROOT
ATOM      1  C   UNL     1       5.992   5.448  17.574  0.00  0.00    +0.000 A 
ATOM      2  C   UNL     1       6.939   5.184  18.564  0.00  0.00    +0.000 A 
ATOM      3  C   UNL     1       7.858   6.178  18.911  0.00  0.00    +0.000 A 
ATOM      4  C   UNL     1       7.849   7.430  18.279  0.00  0.00    +0.000 A 
ATOM      5  C   UNL     1       6.872   7.683  17.309  0.00  0.00    +0.000 A 
ATOM      6  C   UNL     1       5.955   6.698  16.943  0.00  0.00    +0.000 A 
ENDROOT
BRANCH   1   7
ATOM      7  S   UNL     1       4.814   4.213  17.126  0.00  0.00    +0.000 S 
ATOM      8  O   UNL     1       5.261   3.550  15.922  0.00  0.00    +0.000 OA
ATOM      9  O   UNL     1       3.481   4.752  17.269  0.00  0.00    +0.000 OA
BRANCH   7  10
ATOM     10  N   UNL     1       4.970   3.099  18.373  0.00  0.00    +0.000 NA
ATOM     11  H   UNL     1       5.946   3.058  18.669  0.00  0.00    +0.000 HD
ATOM     12  H   UNL     1       4.589   2.198  18.089  0.00  0.00    +0.000 HD
ENDBRANCH   7  10
ENDBRANCH   1   7
BRANCH   4  13
ATOM     13  N   UNL     1       8.804   8.372  18.698  0.00  0.00    +0.000 NA
ATOM     14  C   UNL     1       8.651   9.623  18.402  0.00  0.00    +0.000 C 
BRANCH  14  15
ATOM     15  C   UNL     1       9.651  10.636  18.793  0.00  0.00    +0.000 A 
ATOM     16  C   UNL     1       9.740  11.076  20.118  0.00  0.00    +0.000 A 
ATOM     17  C   UNL     1      10.705  12.019  20.474  0.00  0.00    +0.000 A 
ATOM     18  C   UNL     1      11.573  12.530  19.507  0.00  0.00    +0.000 A 
ATOM     19  C   UNL     1      11.469  12.088  18.191  0.00  0.00    +0.000 A 
ATOM     20  C   UNL     1      10.520  11.140  17.824  0.00  0.00    +0.000 A 
BRANCH  19  21
ATOM     21  O   UNL     1      12.293  12.569  17.216  0.00  0.00    +0.000 OA
ATOM     22  H   UNL     1      11.782  12.664  16.395  0.00  0.00    +0.000 HD
ENDBRANCH  19  21
ENDBRANCH  14  15
ENDBRANCH   4  13
TORSDOF 5
ENDMDL
MODEL 2
REMARK VINA RESULT:      -7.1      0.203      1.126
REMARK  Name = 
REMARK  5 active torsions:
REMARK  status: ('A' for Active; 'I' for Inactive)
REMARK    1  A    between atoms: N_1  and  S_2
REMARK    2  A    between atoms: S_2  and  C_5
REMARK    3  A    between atoms: C_8  and  N_9
REMARK    4  A    between atoms: C_10  and  C_11
REMARK    5  A    between atoms: C_15  and  O_16
REMARK                            x       y       z     vdW  Elec       q    Type
REMARK                         _______ _______ _______ _____ _____    ______ ____
ROOT
ATOM      1  C   UNL     1       5.887   5.592  17.592  0.00  0.00    +0.000 A 
ATOM      2  C   UNL     1       5.985   6.836  16.967  0.00  0.00    +0.000 A 
ATOM      3  C   UNL     1       6.988   7.722  17.367  0.00  0.00    +0.000 A 
ATOM      4  C   UNL     1       7.888   7.389  18.389  0.00  0.00    +0.000 A 
ATOM      5  C   UNL     1       7.789   6.124  18.982  0.00  0.00    +0.000 A 
ATOM      6  C   UNL     1       6.788   5.232  18.601  0.00  0.00    +0.000 A 
ENDROOT
BRANCH   1   7
ATOM      7  S   UNL     1       4.636   4.449  17.095  0.00  0.00    +0.000 S 
ATOM      8  O   UNL     1       4.949   3.953  15.774  0.00  0.00    +0.000 OA
ATOM      9  O   UNL     1       3.339   4.985  17.439  0.00  0.00    +0.000 OA
BRANCH   7  10
ATOM     10  N   UNL     1       4.876   3.171  18.157  0.00  0.00    +0.000 NA
ATOM     11  H   UNL     1       4.284   3.299  18.979  0.00  0.00    +0.000 HD
ATOM     12  H   UNL     1       5.867   3.077  18.376  0.00  0.00    +0.000 HD
ENDBRANCH   7  10
ENDBRANCH   1   7
BRANCH   4  13
ATOM     13  N   UNL     1       8.870   8.338  18.720  0.00  0.00    +0.000 NA
ATOM     14  C   UNL     1       8.636   9.599  18.542  0.00  0.00    +0.000 C 
BRANCH  14  15
ATOM     15  C   UNL     1       9.655  10.624  18.843  0.00  0.00    +0.000 A 
ATOM     16  C   UNL     1       9.813  11.112  20.145  0.00  0.00    +0.000 A 
ATOM     17  C   UNL     1      10.796  12.065  20.415  0.00  0.00    +0.000 A 
ATOM     18  C   UNL     1      11.614  12.537  19.386  0.00  0.00    +0.000 A 
ATOM     19  C   UNL     1      11.442  12.046  18.095  0.00  0.00    +0.000 A 
ATOM     20  C   UNL     1      10.474  11.088  17.812  0.00  0.00    +0.000 A 
BRANCH  19  21
ATOM     21  O   UNL     1      12.216  12.488  17.062  0.00  0.00    +0.000 OA
ATOM     22  H   UNL     1      13.042  11.976  17.049  0.00  0.00    +0.000 HD
ENDBRANCH  19  21
ENDBRANCH  14  15
ENDBRANCH   4  13
TORSDOF 5
ENDMDL
MODEL 3
REMARK VINA RESULT:      -6.8      1.141      1.305
REMARK  Name = 
REMARK  5 active torsions:
REMARK  status: ('A' for Active; 'I' for Inactive)
REMARK    1  A    between atoms: N_1  and  S_2
REMARK    2  A    between atoms: S_2  and  C_5
REMARK    3  A    between atoms: C_8  and  N_9
REMARK    4  A    between atoms: C_10  and  C_11
REMARK    5  A    between atoms: C_15  and  O_16
REMARK                            x       y       z     vdW  Elec       q    Type
REMARK                         _______ _______ _______ _____ _____    ______ ____
ROOT
ATOM      1  C   UNL     1       6.064   5.681  18.054  0.00  0.00    +0.000 A 
ATOM      2  C   UNL     1       7.250   5.724  18.789  0.00  0.00    +0.000 A 
ATOM      3  C   UNL     1       8.066   6.855  18.700  0.00  0.00    +0.000 A 
ATOM      4  C   UNL     1       7.720   7.939  17.881  0.00  0.00    +0.000 A 
ATOM      5  C   UNL     1       6.512   7.886  17.175  0.00  0.00    +0.000 A 
ATOM      6  C   UNL     1       5.691   6.761  17.244  0.00  0.00    +0.000 A 
ENDROOT
BRANCH   1   7
ATOM      7  S   UNL     1       5.010   4.269  18.159  0.00  0.00    +0.000 S 
ATOM      8  O   UNL     1       3.646   4.681  17.921  0.00  0.00    +0.000 OA
ATOM      9  O   UNL     1       5.396   3.471  19.301  0.00  0.00    +0.000 OA
BRANCH   7  10
ATOM     10  N   UNL     1       5.481   3.370  16.820  0.00  0.00    +0.000 NA
ATOM     11  H   UNL     1       4.742   3.401  16.117  0.00  0.00    +0.000 HD
ATOM     12  H   UNL     1       5.737   2.426  17.104  0.00  0.00    +0.000 HD
ENDBRANCH   7  10
ENDBRANCH   1   7
BRANCH   4  13
ATOM     13  N   UNL     1       8.596   9.038  17.860  0.00  0.00    +0.000 NA
ATOM     14  C   UNL     1       8.846   9.687  18.951  0.00  0.00    +0.000 C 
BRANCH  14  15
ATOM     15  C   UNL     1       9.731  10.868  18.963  0.00  0.00    +0.000 A 
ATOM     16  C   UNL     1      10.481  11.187  20.100  0.00  0.00    +0.000 A 
ATOM     17  C   UNL     1      11.329  12.295  20.086  0.00  0.00    +0.000 A 
ATOM     18  C   UNL     1      11.421  13.090  18.941  0.00  0.00    +0.000 A 
ATOM     19  C   UNL     1      10.665  12.764  17.819  0.00  0.00    +0.000 A 
ATOM     20  C   UNL     1       9.824  11.657  17.814  0.00  0.00    +0.000 A 
BRANCH  19  21
ATOM     21  O   UNL     1      10.721  13.520  16.685  0.00  0.00    +0.000 OA
ATOM     22  H   UNL     1       9.819  13.632  16.339  0.00  0.00    +0.000 HD
ENDBRANCH  19  21
ENDBRANCH  14  15
ENDBRANCH   4  13
TORSDOF 5
ENDMDL
MODEL 4
REMARK VINA RESULT:      -6.8      1.172      1.707
REMARK  Name = 
REMARK  5 active torsions:
REMARK  status: ('A' for Active; 'I' for Inactive)
REMARK    1  A    between atoms: N_1  and  S_2
REMARK    2  A    between atoms: S_2  and  C_5
REMARK    3  A    between atoms: C_8  and  N_9
REMARK    4  A    between atoms: C_10  and  C_11
REMARK    5  A    between atoms: C_15  and  O_16
REMARK                            x       y       z     vdW  Elec       q    Type
REMARK                         _______ _______ _______ _____ _____    ______ ____
ROOT
ATOM      1  C   UNL     1       6.182   5.816  17.926  0.00  0.00    +0.000 A 
ATOM      2  C   UNL     1       5.791   6.923  17.170  0.00  0.00    +0.000 A 
ATOM      3  C   UNL     1       6.584   8.074  17.189  0.00  0.00    +0.000 A 
ATOM      4  C   UNL     1       7.755   8.139  17.957  0.00  0.00    +0.000 A 
ATOM      5  C   UNL     1       8.142   7.007  18.685  0.00  0.00    +0.000 A 
ATOM      6  C   UNL     1       7.357   5.854  18.685  0.00  0.00    +0.000 A 
ENDROOT
BRANCH   1   7
ATOM      7  S   UNL     1       5.204   4.346  17.910  0.00  0.00    +0.000 S 
ATOM      8  O   UNL     1       3.852   4.684  17.529  0.00  0.00    +0.000 OA
ATOM      9  O   UNL     1       5.510   3.559  19.082  0.00  0.00    +0.000 OA
BRANCH   7  10
ATOM     10  N   UNL     1       5.865   3.490  16.625  0.00  0.00    +0.000 NA
ATOM     11  H   UNL     1       6.087   2.542  16.930  0.00  0.00    +0.000 HD
ATOM     12  H   UNL     1       6.663   3.994  16.241  0.00  0.00    +0.000 HD
ENDBRANCH   7  10
ENDBRANCH   1   7
BRANCH   4  13
ATOM     13  N   UNL     1       8.494   9.333  17.908  0.00  0.00    +0.000 NA
ATOM     14  C   UNL     1       9.145   9.734  18.953  0.00  0.00    +0.000 C 
BRANCH  14  15
ATOM     15  C   UNL     1       9.902  11.002  18.952  0.00  0.00    +0.000 A 
ATOM     16  C   UNL     1      10.513  11.468  20.121  0.00  0.00    +0.000 A 
ATOM     17  C   UNL     1      11.243  12.657  20.097  0.00  0.00    +0.000 A 
ATOM     18  C   UNL     1      11.354  13.385  18.910  0.00  0.00    +0.000 A 
ATOM     19  C   UNL     1      10.736  12.912  17.756  0.00  0.00    +0.000 A 
ATOM     20  C   UNL     1      10.015  11.723  17.762  0.00  0.00    +0.000 A 
BRANCH  19  21
ATOM     21  O   UNL     1      10.814  13.598  16.580  0.00  0.00    +0.000 OA
ATOM     22  H   UNL     1       9.952  13.555  16.134  0.00  0.00    +0.000 HD
ENDBRANCH  19  21
ENDBRANCH  14  15
ENDBRANCH   4  13
TORSDOF 5
ENDMDL
MODEL 5
REMARK VINA RESULT:      -6.7      5.856      7.960
REMARK  Name = 
REMARK  5 active torsions:
REMARK  status: ('A' for Active; 'I' for Inactive)
REMARK    1  A    between atoms: N_1  and  S_2
REMARK    2  A    between atoms: S_2  and  C_5
REMARK    3  A    between atoms: C_8  and  N_9
REMARK    4  A    between atoms: C_10  and  C_11
REMARK    5  A    between atoms: C_15  and  O_16
REMARK                            x       y       z     vdW  Elec       q    Type
REMARK                         _______ _______ _______ _____ _____    ______ ____
ROOT
ATOM      1  C   UNL     1       0.820   9.610  19.776  0.00  0.00    +0.000 A 
ATOM      2  C   UNL     1       1.234   9.739  18.450  0.00  0.00    +0.000 A 
ATOM      3  C   UNL     1       2.065   8.760  17.897  0.00  0.00    +0.000 A 
ATOM      4  C   UNL     1       2.495   7.660  18.652  0.00  0.00    +0.000 A 
ATOM      5  C   UNL     1       2.044   7.536  19.972  0.00  0.00    +0.000 A 
ATOM      6  C   UNL     1       1.224   8.509  20.542  0.00  0.00    +0.000 A 
ENDROOT
BRANCH   1   7
ATOM      7  S   UNL     1      -0.239  10.826  20.493  0.00  0.00    +0.000 S 
ATOM      8  O   UNL     1      -0.359  10.570  21.910  0.00  0.00    +0.000 OA
ATOM      9  O   UNL     1      -1.386  11.023  19.637  0.00  0.00    +0.000 OA
BRANCH   7  10
ATOM     10  N   UNL     1       0.669  12.231  20.335  0.00  0.00    +0.000 NA
ATOM     11  H   UNL     1       0.244  12.972  20.894  0.00  0.00    +0.000 HD
ATOM     12  H   UNL     1       0.776  12.470  19.350  0.00  0.00    +0.000 HD
ENDBRANCH   7  10
ENDBRANCH   1   7
BRANCH   4  13
ATOM     13  N   UNL     1       3.322   6.721  18.012  0.00  0.00    +0.000 NA
ATOM     14  C   UNL     1       4.473   7.084  17.546  0.00  0.00    +0.000 C 
BRANCH  14  15
ATOM     15  C   UNL     1       5.353   6.136  16.835  0.00  0.00    +0.000 A 
ATOM     16  C   UNL     1       5.174   5.882  15.471  0.00  0.00    +0.000 A 
ATOM     17  C   UNL     1       6.028   4.999  14.810  0.00  0.00    +0.000 A 
ATOM     18  C   UNL     1       7.054   4.362  15.511  0.00  0.00    +0.000 A 
ATOM     19  C   UNL     1       7.218   4.620  16.870  0.00  0.00    +0.000 A 
ATOM     20  C   UNL     1       6.381   5.506  17.540  0.00  0.00    +0.000 A 
BRANCH  19  21
ATOM     21  O   UNL     1       8.203   4.012  17.591  0.00  0.00    +0.000 OA
ATOM     22  H   UNL     1       8.548   3.262  17.079  0.00  0.00    +0.000 HD
ENDBRANCH  19  21
ENDBRANCH  14  15
ENDBRANCH   4  13
TORSDOF 5
ENDMDL
MODEL 6
REMARK VINA RESULT:      -6.7      1.045      1.539
REMARK  Name = 
REMARK  5 active torsions:
REMARK  status: ('A' for Active; 'I' for Inactive)
REMARK    1  A    between atoms: N_1  and  S_2
REMARK    2  A    between atoms: S_2  and  C_5
REMARK    3  A    between atoms: C_8  and  N_9
REMARK    4  A    between atoms: C_10  and  C_11
REMARK    5  A    between atoms: C_15  and  O_16
REMARK                            x       y       z     vdW  Elec       q    Type
REMARK                         _______ _______ _______ _____ _____    ______ ____
ROOT
ATOM      1  C   UNL     1       6.283   5.675  17.603  0.00  0.00    +0.000 A 
ATOM      2  C   UNL     1       6.170   6.926  16.995  0.00  0.00    +0.000 A 
ATOM      3  C   UNL     1       7.033   7.953  17.385  0.00  0.00    +0.000 A 
ATOM      4  C   UNL     1       8.001   7.752  18.380  0.00  0.00    +0.000 A 
ATOM      5  C   UNL     1       8.115   6.481  18.956  0.00  0.00    +0.000 A 
ATOM      6  C   UNL     1       7.255   5.448  18.585  0.00  0.00    +0.000 A 
ENDROOT
BRANCH   1   7
ATOM      7  S   UNL     1       5.212   4.357  17.119  0.00  0.00    +0.000 S 
ATOM      8  O   UNL     1       5.810   3.646  16.013  0.00  0.00    +0.000 OA
ATOM      9  O   UNL     1       3.849   4.837  17.092  0.00  0.00    +0.000 OA
BRANCH   7  10
ATOM     10  N   UNL     1       5.285   3.330  18.446  0.00  0.00    +0.000 NA
ATOM     11  H   UNL     1       5.183   2.364  18.131  0.00  0.00    +0.000 HD
ATOM     12  H   UNL     1       4.597   3.608  19.144  0.00  0.00    +0.000 HD
ENDBRANCH   7  10
ENDBRANCH   1   7
BRANCH   4  13
ATOM     13  N   UNL     1       8.831   8.839  18.702  0.00  0.00    +0.000 NA
ATOM     14  C   UNL     1       8.632   9.992  18.147  0.00  0.00    +0.000 C 
BRANCH  14  15
ATOM     15  C   UNL     1       9.506  11.147  18.431  0.00  0.00    +0.000 A 
ATOM     16  C   UNL     1      10.509  11.061  19.403  0.00  0.00    +0.000 A 
ATOM     17  C   UNL     1      11.339  12.156  19.644  0.00  0.00    +0.000 A 
ATOM     18  C   UNL     1      11.163  13.339  18.923  0.00  0.00    +0.000 A 
ATOM     19  C   UNL     1      10.158  13.412  17.963  0.00  0.00    +0.000 A 
ATOM     20  C   UNL     1       9.329  12.325  17.704  0.00  0.00    +0.000 A 
BRANCH  19  21
ATOM     21  O   UNL     1       9.948  14.552  17.243  0.00  0.00    +0.000 OA
ATOM     22  H   UNL     1      10.799  15.007  17.124  0.00  0.00    +0.000 HD
ENDBRANCH  19  21
ENDBRANCH  14  15
ENDBRANCH   4  13
TORSDOF 5
ENDMDL
MODEL 7
REMARK VINA RESULT:      -6.7      5.860      7.931
REMARK  Name = 
REMARK  5 active torsions:
REMARK  status: ('A' for Active; 'I' for Inactive)
REMARK    1  A    between atoms: N_1  and  S_2
REMARK    2  A    between atoms: S_2  and  C_5
REMARK    3  A    between atoms: C_8  and  N_9
REMARK    4  A    between atoms: C_10  and  C_11
REMARK    5  A    between atoms: C_15  and  O_16
REMARK                            x       y       z     vdW  Elec       q    Type
REMARK                         _______ _______ _______ _____ _____    ______ ____
ROOT
ATOM      1  C   UNL     1       0.778   9.632  19.473  0.00  0.00    +0.000 A 
ATOM      2  C   UNL     1       1.240   9.676  18.157  0.00  0.00    +0.000 A 
ATOM      3  C   UNL     1       2.109   8.678  17.707  0.00  0.00    +0.000 A 
ATOM      4  C   UNL     1       2.530   7.643  18.554  0.00  0.00    +0.000 A 
ATOM      5  C   UNL     1       2.030   7.603  19.862  0.00  0.00    +0.000 A 
ATOM      6  C   UNL     1       1.171   8.597  20.330  0.00  0.00    +0.000 A 
ENDROOT
BRANCH   1   7
ATOM      7  S   UNL     1      -0.330  10.874  20.062  0.00  0.00    +0.000 S 
ATOM      8  O   UNL     1      -1.588  10.753  19.362  0.00  0.00    +0.000 OA
ATOM      9  O   UNL     1       0.380  12.128  20.178  0.00  0.00    +0.000 OA
BRANCH   7  10
ATOM     10  N   UNL     1      -0.610  10.384  21.644  0.00  0.00    +0.000 NA
ATOM     11  H   UNL     1       0.076  10.823  22.259  0.00  0.00    +0.000 HD
ATOM     12  H   UNL     1      -0.619   9.367  21.699  0.00  0.00    +0.000 HD
ENDBRANCH   7  10
ENDBRANCH   1   7
BRANCH   4  13
ATOM     13  N   UNL     1       3.397   6.678  18.013  0.00  0.00    +0.000 NA
ATOM     14  C   UNL     1       4.425   7.049  17.320  0.00  0.00    +0.000 C 
BRANCH  14  15
ATOM     15  C   UNL     1       5.338   6.065  16.706  0.00  0.00    +0.000 A 
ATOM     16  C   UNL     1       5.200   5.708  15.360  0.00  0.00    +0.000 A 
ATOM     17  C   UNL     1       6.085   4.792  14.790  0.00  0.00    +0.000 A 
ATOM     18  C   UNL     1       7.100   4.226  15.564  0.00  0.00    +0.000 A 
ATOM     19  C   UNL     1       7.222   4.587  16.903  0.00  0.00    +0.000 A 
ATOM     20  C   UNL     1       6.355   5.506  17.482  0.00  0.00    +0.000 A 
BRANCH  19  21
ATOM     21  O   UNL     1       8.196   4.050  17.694  0.00  0.00    +0.000 OA
ATOM     22  H   UNL     1       8.216   3.088  17.556  0.00  0.00    +0.000 HD
ENDBRANCH  19  21
ENDBRANCH  14  15
ENDBRANCH   4  13
TORSDOF 5
ENDMDL
MODEL 8
REMARK VINA RESULT:      -6.7      6.479      7.472
REMARK  Name = 
REMARK  5 active torsions:
REMARK  status: ('A' for Active; 'I' for Inactive)
REMARK    1  A    between atoms: N_1  and  S_2
REMARK    2  A    between atoms: S_2  and  C_5
REMARK    3  A    between atoms: C_8  and  N_9
REMARK    4  A    between atoms: C_10  and  C_11
REMARK    5  A    between atoms: C_15  and  O_16
REMARK                            x       y       z     vdW  Elec       q    Type
REMARK                         _______ _______ _______ _____ _____    ______ ____
ROOT
ATOM      1  C   UNL     1       2.962   3.660  19.761  0.00  0.00    +0.000 A 
ATOM      2  C   UNL     1       4.342   3.653  19.553  0.00  0.00    +0.000 A 
ATOM      3  C   UNL     1       4.838   3.914  18.272  0.00  0.00    +0.000 A 
ATOM      4  C   UNL     1       3.977   4.172  17.196  0.00  0.00    +0.000 A 
ATOM      5  C   UNL     1       2.598   4.202  17.435  0.00  0.00    +0.000 A 
ATOM      6  C   UNL     1       2.086   3.934  18.704  0.00  0.00    +0.000 A 
ENDROOT
BRANCH   1   7
ATOM      7  S   UNL     1       2.310   3.346  21.372  0.00  0.00    +0.000 S 
ATOM      8  O   UNL     1       2.187   4.598  22.082  0.00  0.00    +0.000 OA
ATOM      9  O   UNL     1       2.972   2.191  21.936  0.00  0.00    +0.000 OA
BRANCH   7  10
ATOM     10  N   UNL     1       0.748   2.830  21.032  0.00  0.00    +0.000 NA
ATOM     11  H   UNL     1       0.105   3.228  21.718  0.00  0.00    +0.000 HD
ATOM     12  H   UNL     1       0.718   1.813  20.983  0.00  0.00    +0.000 HD
ENDBRANCH   7  10
ENDBRANCH   1   7
BRANCH   4  13
ATOM     13  N   UNL     1       4.565   4.432  15.947  0.00  0.00    +0.000 NA
ATOM     14  C   UNL     1       5.604   3.759  15.568  0.00  0.00    +0.000 C 
BRANCH  14  15
ATOM     15  C   UNL     1       6.272   4.029  14.280  0.00  0.00    +0.000 A 
ATOM     16  C   UNL     1       5.858   3.378  13.112  0.00  0.00    +0.000 A 
ATOM     17  C   UNL     1       6.486   3.661  11.899  0.00  0.00    +0.000 A 
ATOM     18  C   UNL     1       7.532   4.585  11.852  0.00  0.00    +0.000 A 
ATOM     19  C   UNL     1       7.937   5.221  13.022  0.00  0.00    +0.000 A 
ATOM     20  C   UNL     1       7.313   4.958  14.237  0.00  0.00    +0.000 A 
BRANCH  19  21
ATOM     21  O   UNL     1       8.959   6.124  13.019  0.00  0.00    +0.000 OA
ATOM     22  H   UNL     1       8.594   7.010  12.857  0.00  0.00    +0.000 HD
ENDBRANCH  19  21
ENDBRANCH  14  15
ENDBRANCH   4  13
TORSDOF 5
ENDMDL
MODEL 9
REMARK VINA RESULT:      -6.7      1.051      1.619
REMARK  Name = 
REMARK  5 active torsions:
REMARK  status: ('A' for Active; 'I' for Inactive)
REMARK    1  A    between atoms: N_1  and  S_2
REMARK    2  A    between atoms: S_2  and  C_5
REMARK    3  A    between atoms: C_8  and  N_9
REMARK    4  A    between atoms: C_10  and  C_11
REMARK    5  A    between atoms: C_15  and  O_16
REMARK                            x       y       z     vdW  Elec       q    Type
REMARK                         _______ _______ _______ _____ _____    ______ ____
ROOT
ATOM      1  C   UNL     1       6.077   5.657  17.959  0.00  0.00    +0.000 A 
ATOM      2  C   UNL     1       5.744   6.781  17.202  0.00  0.00    +0.000 A 
ATOM      3  C   UNL     1       6.592   7.891  17.223  0.00  0.00    +0.000 A 
ATOM      4  C   UNL     1       7.762   7.900  17.996  0.00  0.00    +0.000 A 
ATOM      5  C   UNL     1       8.090   6.750  18.725  0.00  0.00    +0.000 A 
ATOM      6  C   UNL     1       7.250   5.638  18.723  0.00  0.00    +0.000 A 
ENDROOT
BRANCH   1   7
ATOM      7  S   UNL     1       5.028   4.236  17.940  0.00  0.00    +0.000 S 
ATOM      8  O   UNL     1       5.202   3.506  19.174  0.00  0.00    +0.000 OA
ATOM      9  O   UNL     1       5.107   3.604  16.643  0.00  0.00    +0.000 OA
BRANCH   7  10
ATOM     10  N   UNL     1       3.496   4.921  17.998  0.00  0.00    +0.000 NA
ATOM     11  H   UNL     1       2.826   4.286  17.563  0.00  0.00    +0.000 HD
ATOM     12  H   UNL     1       3.510   5.850  17.580  0.00  0.00    +0.000 HD
ENDBRANCH   7  10
ENDBRANCH   1   7
BRANCH   4  13
ATOM     13  N   UNL     1       8.558   9.056  17.949  0.00  0.00    +0.000 NA
ATOM     14  C   UNL     1       9.015   9.572  19.046  0.00  0.00    +0.000 C 
BRANCH  14  15
ATOM     15  C   UNL     1       9.824  10.806  19.040  0.00  0.00    +0.000 A 
ATOM     16  C   UNL     1      10.069  11.503  20.229  0.00  0.00    +0.000 A 
ATOM     17  C   UNL     1      10.854  12.657  20.208  0.00  0.00    +0.000 A 
ATOM     18  C   UNL     1      11.385  13.120  19.003  0.00  0.00    +0.000 A 
ATOM     19  C   UNL     1      11.128  12.420  17.827  0.00  0.00    +0.000 A 
ATOM     20  C   UNL     1      10.357  11.262  17.833  0.00  0.00    +0.000 A 
BRANCH  19  21
ATOM     21  O   UNL     1      11.622  12.844  16.629  0.00  0.00    +0.000 OA
ATOM     22  H   UNL     1      11.347  13.766  16.486  0.00  0.00    +0.000 HD
ENDBRANCH  19  21
ENDBRANCH  14  15
ENDBRANCH   4  13
TORSDOF 5
ENDMDL
