MODEL 1
REMARK VINA RESULT:      -8.9      0.000      0.000
REMARK  Name = 
REMARK  9 active torsions:
REMARK  status: ('A' for Active; 'I' for Inactive)
REMARK    1  A    between atoms: N_3  and  C_4
REMARK    2  A    between atoms: C_4  and  C_5
REMARK    3  A    between atoms: C_5  and  C_6
REMARK    4  A    between atoms: C_6  and  O_7
REMARK    5  A    between atoms: O_7  and  C_8
REMARK    6  A    between atoms: C_15  and  O_16
REMARK    7  A    between atoms: N_25  and  C_26
REMARK    8  A    between atoms: C_26  and  C_27
REMARK    9  A    between atoms: C_27  and  C_28
REMARK                            x       y       z     vdW  Elec       q    Type
REMARK                         _______ _______ _______ _____ _____    ______ ____
ROOT
ATOM      1  C   UNL     1       3.780   2.937  20.134  0.00  0.00    +0.000 C 
ENDROOT
BRANCH   1   4
ATOM      2  O   UNL     1       6.009   4.552  19.783  0.00  0.00    +0.000 OA
ATOM      3  C   UNL     1       5.546   3.994  18.793  0.00  0.00    +0.000 C 
ATOM      4  N   UNL     1       4.435   3.190  18.865  0.00  0.00    +0.000 N 
ATOM      5  N   UNL     1       6.073   4.152  17.526  0.00  0.00    +0.000 N 
ATOM      6  C   UNL     1       5.537   3.578  16.285  0.00  0.00    +0.000 C 
ATOM      7  C   UNL     1       5.198   4.676  15.261  0.00  0.00    +0.000 C 
ATOM      8  N   UNL     1       6.312   5.604  14.972  0.00  0.00    +0.000 NA
ATOM      9  C   UNL     1       6.762   6.182  16.269  0.00  0.00    +0.000 C 
ATOM     10  C   UNL     1       7.156   5.129  17.332  0.00  0.00    +0.000 C 
ATOM     11  H   UNL     1       4.441   2.408  18.233  0.00  0.00    +0.000 HD
BRANCH   8  12
ATOM     12  C   UNL     1       7.432   4.941  14.271  0.00  0.00    +0.000 C 
BRANCH  12  13
ATOM     13  C   UNL     1       7.381   5.067  12.734  0.00  0.00    +0.000 C 
BRANCH  13  14
ATOM     14  C   UNL     1       6.789   3.823  12.111  0.00  0.00    +0.000 A 
ATOM     15  C   UNL     1       5.397   3.653  12.054  0.00  0.00    +0.000 A 
ATOM     16  C   UNL     1       4.852   2.472  11.549  0.00  0.00    +0.000 A 
ATOM     17  C   UNL     1       5.692   1.457  11.093  0.00  0.00    +0.000 A 
ATOM     18  C   UNL     1       7.076   1.627  11.130  0.00  0.00    +0.000 A 
ATOM     19  C   UNL     1       7.622   2.806  11.637  0.00  0.00    +0.000 A 
ENDBRANCH  13  14
ENDBRANCH  12  13
ENDBRANCH   8  12
ENDBRANCH   1   4
BRANCH   1  20
ATOM     20  C   UNL     1       2.257   3.017  20.069  0.00  0.00    +0.000 C 
BRANCH  20  21
ATOM     21  C   UNL     1       1.697   4.398  20.423  0.00  0.00    +0.000 C 
BRANCH  21  22
ATOM     22  O   UNL     1       2.746   5.361  20.286  0.00  0.00    +0.000 OA
BRANCH  22  23
ATOM     23  C   UNL     1       2.461   6.555  19.678  0.00  0.00    +0.000 A 
ATOM     24  C   UNL     1       2.826   6.939  18.387  0.00  0.00    +0.000 A 
ATOM     25  C   UNL     1       2.404   8.174  17.860  0.00  0.00    +0.000 A 
ATOM     26  C   UNL     1       1.602   9.031  18.621  0.00  0.00    +0.000 A 
ATOM     27  N   UNL     1       1.086  10.228  18.076  0.00  0.00    +0.000 N 
ATOM     28  C   UNL     1       0.190  10.952  18.812  0.00  0.00    +0.000 A 
ATOM     29  N   UNL     1      -0.523  12.002  18.481  0.00  0.00    +0.000 NA
ATOM     30  C   UNL     1      -1.221  12.256  19.638  0.00  0.00    +0.000 A 
ATOM     31  N   UNL     1      -1.041  11.516  20.684  0.00  0.00    +0.000 NA
ATOM     32  C   UNL     1      -0.141  10.608  20.217  0.00  0.00    +0.000 A 
ATOM     33  C   UNL     1       0.400   9.528  20.771  0.00  0.00    +0.000 A 
ATOM     34  C   UNL     1       1.268   8.662  19.948  0.00  0.00    +0.000 A 
ATOM     35  C   UNL     1       1.707   7.435  20.463  0.00  0.00    +0.000 A 
ATOM     36  H   UNL     1       1.296  10.490  17.130  0.00  0.00    +0.000 HD
BRANCH  30  37
ATOM     37  O   UNL     1      -2.072  13.280  19.563  0.00  0.00    +0.000 OA
ATOM     38  H   UNL     1      -2.681  13.207  20.310  0.00  0.00    +0.000 HD
ENDBRANCH  30  37
ENDBRANCH  22  23
ENDBRANCH  21  22
ENDBRANCH  20  21
ENDBRANCH   1  20
TORSDOF 9
ENDMDL
MODEL 2
REMARK VINA RESULT:      -8.6      2.660      4.761
REMARK  Name = 
REMARK  9 active torsions:
REMARK  status: ('A' for Active; 'I' for Inactive)
REMARK    1  A    between atoms: N_3  and  C_4
REMARK    2  A    between atoms: C_4  and  C_5
REMARK    3  A    between atoms: C_5  and  C_6
REMARK    4  A    between atoms: C_6  and  O_7
REMARK    5  A    between atoms: O_7  and  C_8
REMARK    6  A    between atoms: C_15  and  O_16
REMARK    7  A    between atoms: N_25  and  C_26
REMARK    8  A    between atoms: C_26  and  C_27
REMARK    9  A    between atoms: C_27  and  C_28
REMARK                            x       y       z     vdW  Elec       q    Type
REMARK                         _______ _______ _______ _____ _____    ______ ____
ROOT
ATOM      1  C   UNL     1       1.043   7.696  21.363  0.00  0.00    +0.000 C 
ENDROOT
BRANCH   1   4
ATOM      2  O   UNL     1       1.188   5.056  20.518  0.00  0.00    +0.000 OA
ATOM      3  C   UNL     1       1.983   5.857  20.034  0.00  0.00    +0.000 C 
ATOM      4  N   UNL     1       1.998   7.180  20.403  0.00  0.00    +0.000 N 
ATOM      5  N   UNL     1       2.946   5.494  19.112  0.00  0.00    +0.000 N 
ATOM      6  C   UNL     1       3.974   6.373  18.540  0.00  0.00    +0.000 C 
ATOM      7  C   UNL     1       5.389   5.838  18.826  0.00  0.00    +0.000 C 
ATOM      8  N   UNL     1       5.606   4.436  18.410  0.00  0.00    +0.000 NA
ATOM      9  C   UNL     1       4.560   3.606  19.071  0.00  0.00    +0.000 C 
ATOM     10  C   UNL     1       3.110   4.068  18.791  0.00  0.00    +0.000 C 
ATOM     11  H   UNL     1       2.238   7.818  19.664  0.00  0.00    +0.000 HD
BRANCH   8  12
ATOM     12  C   UNL     1       5.565   4.270  16.942  0.00  0.00    +0.000 C 
BRANCH  12  13
ATOM     13  C   UNL     1       6.482   5.239  16.168  0.00  0.00    +0.000 C 
BRANCH  13  14
ATOM     14  C   UNL     1       6.657   4.787  14.736  0.00  0.00    +0.000 A 
ATOM     15  C   UNL     1       7.604   5.407  13.907  0.00  0.00    +0.000 A 
ATOM     16  C   UNL     1       7.712   5.042  12.564  0.00  0.00    +0.000 A 
ATOM     17  C   UNL     1       6.880   4.053  12.043  0.00  0.00    +0.000 A 
ATOM     18  C   UNL     1       5.949   3.420  12.865  0.00  0.00    +0.000 A 
ATOM     19  C   UNL     1       5.837   3.785  14.207  0.00  0.00    +0.000 A 
ENDBRANCH  13  14
ENDBRANCH  12  13
ENDBRANCH   8  12
ENDBRANCH   1   4
BRANCH   1  20
ATOM     20  C   UNL     1       1.554   8.892  22.162  0.00  0.00    +0.000 C 
BRANCH  20  21
ATOM     21  C   UNL     1       0.492   9.968  22.407  0.00  0.00    +0.000 C 
BRANCH  21  22
ATOM     22  O   UNL     1       0.644  10.989  21.416  0.00  0.00    +0.000 OA
BRANCH  22  23
ATOM     23  C   UNL     1      -0.413  11.257  20.587  0.00  0.00    +0.000 A 
ATOM     24  C   UNL     1      -1.360  12.270  20.746  0.00  0.00    +0.000 A 
ATOM     25  C   UNL     1      -2.357  12.478  19.776  0.00  0.00    +0.000 A 
ATOM     26  C   UNL     1      -2.408  11.677  18.629  0.00  0.00    +0.000 A 
ATOM     27  N   UNL     1      -3.337  11.934  17.597  0.00  0.00    +0.000 N 
ATOM     28  C   UNL     1      -3.246  11.216  16.437  0.00  0.00    +0.000 A 
ATOM     29  N   UNL     1      -3.888  11.356  15.303  0.00  0.00    +0.000 NA
ATOM     30  C   UNL     1      -3.354  10.346  14.538  0.00  0.00    +0.000 A 
ATOM     31  N   UNL     1      -2.458   9.556  15.036  0.00  0.00    +0.000 NA
ATOM     32  C   UNL     1      -2.306  10.077  16.284  0.00  0.00    +0.000 A 
ATOM     33  C   UNL     1      -1.479   9.773  17.279  0.00  0.00    +0.000 A 
ATOM     34  C   UNL     1      -1.474  10.620  18.489  0.00  0.00    +0.000 A 
ATOM     35  C   UNL     1      -0.495  10.418  19.470  0.00  0.00    +0.000 A 
ATOM     36  H   UNL     1      -3.989  12.693  17.674  0.00  0.00    +0.000 HD
BRANCH  30  37
ATOM     37  O   UNL     1      -3.819  10.285  13.291  0.00  0.00    +0.000 OA
ATOM     38  H   UNL     1      -4.779  10.397  13.332  0.00  0.00    +0.000 HD
ENDBRANCH  30  37
ENDBRANCH  22  23
ENDBRANCH  21  22
ENDBRANCH  20  21
ENDBRANCH   1  20
TORSDOF 9
ENDMDL
MODEL 3
REMARK VINA RESULT:      -8.2      3.638     10.734
REMARK  Name = 
REMARK  9 active torsions:
REMARK  status: ('A' for Active; 'I' for Inactive)
REMARK    1  A    between atoms: N_3  and  C_4
REMARK    2  A    between atoms: C_4  and  C_5
REMARK    3  A    between atoms: C_5  and  C_6
REMARK    4  A    between atoms: C_6  and  O_7
REMARK    5  A    between atoms: O_7  and  C_8
REMARK    6  A    between atoms: C_15  and  O_16
REMARK    7  A    between atoms: N_25  and  C_26
REMARK    8  A    between atoms: C_26  and  C_27
REMARK    9  A    between atoms: C_27  and  C_28
REMARK                            x       y       z     vdW  Elec       q    Type
REMARK                         _______ _______ _______ _____ _____    ______ ____
ROOT
ATOM      1  C   UNL     1      -0.381   9.143  20.879  0.00  0.00    +0.000 C 
ENDROOT
BRANCH   1   4
ATOM      2  O   UNL     1       0.112  10.542  18.533  0.00  0.00    +0.000 OA
ATOM      3  C   UNL     1       0.347  11.107  19.597  0.00  0.00    +0.000 C 
ATOM      4  N   UNL     1       0.151  10.489  20.808  0.00  0.00    +0.000 N 
ATOM      5  N   UNL     1       0.858  12.389  19.670  0.00  0.00    +0.000 N 
ATOM      6  C   UNL     1       1.231  13.106  20.895  0.00  0.00    +0.000 C 
ATOM      7  C   UNL     1       2.712  13.525  20.870  0.00  0.00    +0.000 C 
ATOM      8  N   UNL     1       3.107  14.294  19.671  0.00  0.00    +0.000 NA
ATOM      9  C   UNL     1       2.746  13.479  18.477  0.00  0.00    +0.000 C 
ATOM     10  C   UNL     1       1.258  13.057  18.422  0.00  0.00    +0.000 C 
ATOM     11  H   UNL     1      -0.154  11.100  21.546  0.00  0.00    +0.000 HD
BRANCH   8  12
ATOM     12  C   UNL     1       2.467  15.625  19.617  0.00  0.00    +0.000 C 
BRANCH  12  13
ATOM     13  C   UNL     1       2.736  16.406  18.315  0.00  0.00    +0.000 C 
BRANCH  13  14
ATOM     14  C   UNL     1       1.518  17.203  17.903  0.00  0.00    +0.000 A 
ATOM     15  C   UNL     1       0.344  17.150  18.670  0.00  0.00    +0.000 A 
ATOM     16  C   UNL     1      -0.803  17.825  18.248  0.00  0.00    +0.000 A 
ATOM     17  C   UNL     1      -0.783  18.559  17.064  0.00  0.00    +0.000 A 
ATOM     18  C   UNL     1       0.386  18.631  16.307  0.00  0.00    +0.000 A 
ATOM     19  C   UNL     1       1.532  17.955  16.725  0.00  0.00    +0.000 A 
ENDBRANCH  13  14
ENDBRANCH  12  13
ENDBRANCH   8  12
ENDBRANCH   1   4
BRANCH   1  20
ATOM     20  C   UNL     1       0.507   8.167  21.645  0.00  0.00    +0.000 C 
BRANCH  20  21
ATOM     21  C   UNL     1       1.616   7.542  20.792  0.00  0.00    +0.000 C 
BRANCH  21  22
ATOM     22  O   UNL     1       1.416   6.126  20.756  0.00  0.00    +0.000 OA
BRANCH  22  23
ATOM     23  C   UNL     1       2.080   5.397  19.806  0.00  0.00    +0.000 A 
ATOM     24  C   UNL     1       1.655   4.200  19.227  0.00  0.00    +0.000 A 
ATOM     25  C   UNL     1       2.406   3.591  18.205  0.00  0.00    +0.000 A 
ATOM     26  C   UNL     1       3.588   4.182  17.747  0.00  0.00    +0.000 A 
ATOM     27  N   UNL     1       4.303   3.641  16.656  0.00  0.00    +0.000 N 
ATOM     28  C   UNL     1       5.367   4.339  16.155  0.00  0.00    +0.000 A 
ATOM     29  N   UNL     1       6.092   4.123  15.085  0.00  0.00    +0.000 NA
ATOM     30  C   UNL     1       6.990   5.163  15.126  0.00  0.00    +0.000 A 
ATOM     31  N   UNL     1       6.952   6.019  16.096  0.00  0.00    +0.000 NA
ATOM     32  C   UNL     1       5.887   5.565  16.811  0.00  0.00    +0.000 A 
ATOM     33  C   UNL     1       5.271   6.042  17.887  0.00  0.00    +0.000 A 
ATOM     34  C   UNL     1       4.044   5.374  18.364  0.00  0.00    +0.000 A 
ATOM     35  C   UNL     1       3.291   5.961  19.389  0.00  0.00    +0.000 A 
ATOM     36  H   UNL     1       3.979   2.810  16.194  0.00  0.00    +0.000 HD
BRANCH  30  37
ATOM     37  O   UNL     1       7.845   5.203  14.104  0.00  0.00    +0.000 OA
ATOM     38  H   UNL     1       8.660   4.768  14.389  0.00  0.00    +0.000 HD
ENDBRANCH  30  37
ENDBRANCH  22  23
ENDBRANCH  21  22
ENDBRANCH  20  21
ENDBRANCH   1  20
TORSDOF 9
ENDMDL
MODEL 4
REMARK VINA RESULT:      -8.1      3.163      5.520
REMARK  Name = 
REMARK  9 active torsions:
REMARK  status: ('A' for Active; 'I' for Inactive)
REMARK    1  A    between atoms: N_3  and  C_4
REMARK    2  A    between atoms: C_4  and  C_5
REMARK    3  A    between atoms: C_5  and  C_6
REMARK    4  A    between atoms: C_6  and  O_7
REMARK    5  A    between atoms: O_7  and  C_8
REMARK    6  A    between atoms: C_15  and  O_16
REMARK    7  A    between atoms: N_25  and  C_26
REMARK    8  A    between atoms: C_26  and  C_27
REMARK    9  A    between atoms: C_27  and  C_28
REMARK                            x       y       z     vdW  Elec       q    Type
REMARK                         _______ _______ _______ _____ _____    ______ ____
ROOT
ATOM      1  C   UNL     1       3.493   2.312  18.864  0.00  0.00    +0.000 C 
ENDROOT
BRANCH   1   4
ATOM      2  O   UNL     1       3.987   3.982  16.704  0.00  0.00    +0.000 OA
ATOM      3  C   UNL     1       4.499   4.274  17.781  0.00  0.00    +0.000 C 
ATOM      4  N   UNL     1       4.324   3.499  18.902  0.00  0.00    +0.000 N 
ATOM      5  N   UNL     1       5.314   5.376  17.952  0.00  0.00    +0.000 N 
ATOM      6  C   UNL     1       6.016   5.753  19.185  0.00  0.00    +0.000 C 
ATOM      7  C   UNL     1       7.537   5.836  18.959  0.00  0.00    +0.000 C 
ATOM      8  N   UNL     1       7.939   6.710  17.838  0.00  0.00    +0.000 NA
ATOM      9  C   UNL     1       7.229   6.231  16.619  0.00  0.00    +0.000 C 
ATOM     10  C   UNL     1       5.690   6.162  16.767  0.00  0.00    +0.000 C 
ATOM     11  H   UNL     1       4.284   4.013  19.765  0.00  0.00    +0.000 HD
BRANCH   8  12
ATOM     12  C   UNL     1       7.645   8.135  18.098  0.00  0.00    +0.000 C 
BRANCH  12  13
ATOM     13  C   UNL     1       8.626   9.118  17.427  0.00  0.00    +0.000 C 
BRANCH  13  14
ATOM     14  C   UNL     1       8.933  10.282  18.342  0.00  0.00    +0.000 A 
ATOM     15  C   UNL     1       9.293  10.056  19.680  0.00  0.00    +0.000 A 
ATOM     16  C   UNL     1       9.500  11.132  20.544  0.00  0.00    +0.000 A 
ATOM     17  C   UNL     1       9.355  12.438  20.077  0.00  0.00    +0.000 A 
ATOM     18  C   UNL     1       9.015  12.669  18.745  0.00  0.00    +0.000 A 
ATOM     19  C   UNL     1       8.804  11.595  17.880  0.00  0.00    +0.000 A 
ENDBRANCH  13  14
ENDBRANCH  12  13
ENDBRANCH   8  12
ENDBRANCH   1   4
BRANCH   1  20
ATOM     20  C   UNL     1       2.176   2.456  19.623  0.00  0.00    +0.000 C 
BRANCH  20  21
ATOM     21  C   UNL     1       1.492   3.811  19.418  0.00  0.00    +0.000 C 
BRANCH  21  22
ATOM     22  O   UNL     1       2.096   4.762  20.299  0.00  0.00    +0.000 OA
BRANCH  22  23
ATOM     23  C   UNL     1       1.979   6.094  20.003  0.00  0.00    +0.000 A 
ATOM     24  C   UNL     1       2.226   6.698  18.769  0.00  0.00    +0.000 A 
ATOM     25  C   UNL     1       1.996   8.074  18.584  0.00  0.00    +0.000 A 
ATOM     26  C   UNL     1       1.505   8.856  19.635  0.00  0.00    +0.000 A 
ATOM     27  N   UNL     1       1.172  10.216  19.442  0.00  0.00    +0.000 N 
ATOM     28  C   UNL     1       0.559  10.893  20.460  0.00  0.00    +0.000 A 
ATOM     29  N   UNL     1       0.038  12.095  20.482  0.00  0.00    +0.000 NA
ATOM     30  C   UNL     1      -0.420  12.191  21.775  0.00  0.00    +0.000 A 
ATOM     31  N   UNL     1      -0.248  11.211  22.601  0.00  0.00    +0.000 NA
ATOM     32  C   UNL     1       0.370  10.296  21.806  0.00  0.00    +0.000 A 
ATOM     33  C   UNL     1       0.751   9.042  22.024  0.00  0.00    +0.000 A 
ATOM     34  C   UNL     1       1.296   8.254  20.900  0.00  0.00    +0.000 A 
ATOM     35  C   UNL     1       1.543   6.885  21.071  0.00  0.00    +0.000 A 
ATOM     36  H   UNL     1       1.294  10.649  18.545  0.00  0.00    +0.000 HD
BRANCH  30  37
ATOM     37  O   UNL     1      -1.044  13.333  22.062  0.00  0.00    +0.000 OA
ATOM     38  H   UNL     1      -0.683  13.660  22.898  0.00  0.00    +0.000 HD
ENDBRANCH  30  37
ENDBRANCH  22  23
ENDBRANCH  21  22
ENDBRANCH  20  21
ENDBRANCH   1  20
TORSDOF 9
ENDMDL
MODEL 5
REMARK VINA RESULT:      -8.0      3.478      6.056
REMARK  Name = 
REMARK  9 active torsions:
REMARK  status: ('A' for Active; 'I' for Inactive)
REMARK    1  A    between atoms: N_3  and  C_4
REMARK    2  A    between atoms: C_4  and  C_5
REMARK    3  A    between atoms: C_5  and  C_6
REMARK    4  A    between atoms: C_6  and  O_7
REMARK    5  A    between atoms: O_7  and  C_8
REMARK    6  A    between atoms: C_15  and  O_16
REMARK    7  A    between atoms: N_25  and  C_26
REMARK    8  A    between atoms: C_26  and  C_27
REMARK    9  A    between atoms: C_27  and  C_28
REMARK                            x       y       z     vdW  Elec       q    Type
REMARK                         _______ _______ _______ _____ _____    ______ ____
ROOT
ATOM      1  C   UNL     1       0.307   8.407  21.677  0.00  0.00    +0.000 C 
ENDROOT
BRANCH   1   4
ATOM      2  O   UNL     1       1.510   8.375  19.177  0.00  0.00    +0.000 OA
ATOM      3  C   UNL     1       1.772   7.458  19.950  0.00  0.00    +0.000 C 
ATOM      4  N   UNL     1       1.212   7.380  21.202  0.00  0.00    +0.000 N 
ATOM      5  N   UNL     1       2.617   6.416  19.620  0.00  0.00    +0.000 N 
ATOM      6  C   UNL     1       2.926   5.251  20.458  0.00  0.00    +0.000 C 
ATOM      7  C   UNL     1       2.557   3.936  19.747  0.00  0.00    +0.000 C 
ATOM      8  N   UNL     1       3.148   3.785  18.401  0.00  0.00    +0.000 NA
ATOM      9  C   UNL     1       2.746   4.975  17.600  0.00  0.00    +0.000 C 
ATOM     10  C   UNL     1       3.124   6.331  18.242  0.00  0.00    +0.000 C 
ATOM     11  H   UNL     1       1.815   6.992  21.907  0.00  0.00    +0.000 HD
BRANCH   8  12
ATOM     12  C   UNL     1       4.619   3.646  18.442  0.00  0.00    +0.000 C 
BRANCH  12  13
ATOM     13  C   UNL     1       5.344   4.217  17.206  0.00  0.00    +0.000 C 
BRANCH  13  14
ATOM     14  C   UNL     1       6.363   5.258  17.613  0.00  0.00    +0.000 A 
ATOM     15  C   UNL     1       7.159   5.064  18.753  0.00  0.00    +0.000 A 
ATOM     16  C   UNL     1       8.044   6.058  19.171  0.00  0.00    +0.000 A 
ATOM     17  C   UNL     1       8.144   7.248  18.452  0.00  0.00    +0.000 A 
ATOM     18  C   UNL     1       7.369   7.441  17.310  0.00  0.00    +0.000 A 
ATOM     19  C   UNL     1       6.482   6.449  16.891  0.00  0.00    +0.000 A 
ENDBRANCH  13  14
ENDBRANCH  12  13
ENDBRANCH   8  12
ENDBRANCH   1   4
BRANCH   1  20
ATOM     20  C   UNL     1       1.005   9.573  22.372  0.00  0.00    +0.000 C 
BRANCH  20  21
ATOM     21  C   UNL     1       1.186  10.804  21.479  0.00  0.00    +0.000 C 
BRANCH  21  22
ATOM     22  O   UNL     1       0.124  11.723  21.753  0.00  0.00    +0.000 OA
BRANCH  22  23
ATOM     23  C   UNL     1      -0.939  11.768  20.890  0.00  0.00    +0.000 A 
ATOM     24  C   UNL     1      -2.075  12.570  21.010  0.00  0.00    +0.000 A 
ATOM     25  C   UNL     1      -3.063  12.569  20.009  0.00  0.00    +0.000 A 
ATOM     26  C   UNL     1      -2.915  11.769  18.870  0.00  0.00    +0.000 A 
ATOM     27  N   UNL     1      -3.845  11.829  17.808  0.00  0.00    +0.000 N 
ATOM     28  C   UNL     1      -3.574  11.139  16.659  0.00  0.00    +0.000 A 
ATOM     29  N   UNL     1      -4.196  11.142  15.505  0.00  0.00    +0.000 NA
ATOM     30  C   UNL     1      -3.446  10.256  14.767  0.00  0.00    +0.000 A 
ATOM     31  N   UNL     1      -2.425   9.666  15.300  0.00  0.00    +0.000 NA
ATOM     32  C   UNL     1      -2.420  10.212  16.546  0.00  0.00    +0.000 A 
ATOM     33  C   UNL     1      -1.580  10.086  17.568  0.00  0.00    +0.000 A 
ATOM     34  C   UNL     1      -1.784  10.922  18.768  0.00  0.00    +0.000 A 
ATOM     35  C   UNL     1      -0.816  10.925  19.781  0.00  0.00    +0.000 A 
ATOM     36  H   UNL     1      -4.638  12.442  17.857  0.00  0.00    +0.000 HD
BRANCH  30  37
ATOM     37  O   UNL     1      -3.850  10.097  13.507  0.00  0.00    +0.000 OA
ATOM     38  H   UNL     1      -3.657   9.184  13.252  0.00  0.00    +0.000 HD
ENDBRANCH  30  37
ENDBRANCH  22  23
ENDBRANCH  21  22
ENDBRANCH  20  21
ENDBRANCH   1  20
TORSDOF 9
ENDMDL
MODEL 6
REMARK VINA RESULT:      -7.8      0.950      1.123
REMARK  Name = 
REMARK  9 active torsions:
REMARK  status: ('A' for Active; 'I' for Inactive)
REMARK    1  A    between atoms: N_3  and  C_4
REMARK    2  A    between atoms: C_4  and  C_5
REMARK    3  A    between atoms: C_5  and  C_6
REMARK    4  A    between atoms: C_6  and  O_7
REMARK    5  A    between atoms: O_7  and  C_8
REMARK    6  A    between atoms: C_15  and  O_16
REMARK    7  A    between atoms: N_25  and  C_26
REMARK    8  A    between atoms: C_26  and  C_27
REMARK    9  A    between atoms: C_27  and  C_28
REMARK                            x       y       z     vdW  Elec       q    Type
REMARK                         _______ _______ _______ _____ _____    ______ ____
ROOT
ATOM      1  C   UNL     1       2.616   3.420  20.048  0.00  0.00    +0.000 C 
ENDROOT
BRANCH   1   4
ATOM      2  O   UNL     1       5.351   3.250  19.605  0.00  0.00    +0.000 OA
ATOM      3  C   UNL     1       4.644   3.637  18.679  0.00  0.00    +0.000 C 
ATOM      4  N   UNL     1       3.283   3.770  18.809  0.00  0.00    +0.000 N 
ATOM      5  N   UNL     1       5.153   4.003  17.448  0.00  0.00    +0.000 N 
ATOM      6  C   UNL     1       4.387   4.541  16.317  0.00  0.00    +0.000 C 
ATOM      7  C   UNL     1       4.908   5.926  15.896  0.00  0.00    +0.000 C 
ATOM      8  N   UNL     1       6.359   5.971  15.615  0.00  0.00    +0.000 NA
ATOM      9  C   UNL     1       7.065   5.463  16.824  0.00  0.00    +0.000 C 
ATOM     10  C   UNL     1       6.614   4.054  17.279  0.00  0.00    +0.000 C 
ATOM     11  H   UNL     1       2.760   3.559  17.977  0.00  0.00    +0.000 HD
BRANCH   8  12
ATOM     12  C   UNL     1       6.727   5.188  14.417  0.00  0.00    +0.000 C 
BRANCH  12  13
ATOM     13  C   UNL     1       5.529   4.560  13.676  0.00  0.00    +0.000 C 
BRANCH  13  14
ATOM     14  C   UNL     1       5.998   3.560  12.644  0.00  0.00    +0.000 A 
ATOM     15  C   UNL     1       5.105   2.616  12.113  0.00  0.00    +0.000 A 
ATOM     16  C   UNL     1       5.556   1.645  11.219  0.00  0.00    +0.000 A 
ATOM     17  C   UNL     1       6.898   1.613  10.844  0.00  0.00    +0.000 A 
ATOM     18  C   UNL     1       7.787   2.558  11.353  0.00  0.00    +0.000 A 
ATOM     19  C   UNL     1       7.339   3.529  12.250  0.00  0.00    +0.000 A 
ENDBRANCH  13  14
ENDBRANCH  12  13
ENDBRANCH   8  12
ENDBRANCH   1   4
BRANCH   1  20
ATOM     20  C   UNL     1       1.240   4.060  20.210  0.00  0.00    +0.000 C 
BRANCH  20  21
ATOM     21  C   UNL     1       1.277   5.447  20.858  0.00  0.00    +0.000 C 
BRANCH  21  22
ATOM     22  O   UNL     1       2.372   6.179  20.298  0.00  0.00    +0.000 OA
BRANCH  22  23
ATOM     23  C   UNL     1       2.111   7.369  19.673  0.00  0.00    +0.000 A 
ATOM     24  C   UNL     1       2.384   7.688  18.342  0.00  0.00    +0.000 A 
ATOM     25  C   UNL     1       1.997   8.931  17.808  0.00  0.00    +0.000 A 
ATOM     26  C   UNL     1       1.319   9.862  18.603  0.00  0.00    +0.000 A 
ATOM     27  N   UNL     1       0.833  11.072  18.060  0.00  0.00    +0.000 N 
ATOM     28  C   UNL     1       0.052  11.877  18.842  0.00  0.00    +0.000 A 
ATOM     29  N   UNL     1      -0.619  12.960  18.535  0.00  0.00    +0.000 NA
ATOM     30  C   UNL     1      -1.197  13.296  19.737  0.00  0.00    +0.000 A 
ATOM     31  N   UNL     1      -0.972  12.578  20.790  0.00  0.00    +0.000 NA
ATOM     32  C   UNL     1      -0.175  11.599  20.282  0.00  0.00    +0.000 A 
ATOM     33  C   UNL     1       0.343  10.504  20.827  0.00  0.00    +0.000 A 
ATOM     34  C   UNL     1       1.080   9.557  19.966  0.00  0.00    +0.000 A 
ATOM     35  C   UNL     1       1.485   8.321  20.486  0.00  0.00    +0.000 A 
ATOM     36  H   UNL     1       0.976  11.290  17.090  0.00  0.00    +0.000 HD
BRANCH  30  37
ATOM     37  O   UNL     1      -1.985  14.370  19.697  0.00  0.00    +0.000 OA
ATOM     38  H   UNL     1      -1.574  15.010  19.099  0.00  0.00    +0.000 HD
ENDBRANCH  30  37
ENDBRANCH  22  23
ENDBRANCH  21  22
ENDBRANCH  20  21
ENDBRANCH   1  20
TORSDOF 9
ENDMDL
MODEL 7
REMARK VINA RESULT:      -7.8      2.953     11.162
REMARK  Name = 
REMARK  9 active torsions:
REMARK  status: ('A' for Active; 'I' for Inactive)
REMARK    1  A    between atoms: N_3  and  C_4
REMARK    2  A    between atoms: C_4  and  C_5
REMARK    3  A    between atoms: C_5  and  C_6
REMARK    4  A    between atoms: C_6  and  O_7
REMARK    5  A    between atoms: O_7  and  C_8
REMARK    6  A    between atoms: C_15  and  O_16
REMARK    7  A    between atoms: N_25  and  C_26
REMARK    8  A    between atoms: C_26  and  C_27
REMARK    9  A    between atoms: C_27  and  C_28
REMARK                            x       y       z     vdW  Elec       q    Type
REMARK                         _______ _______ _______ _____ _____    ______ ____
ROOT
ATOM      1  C   UNL     1       2.219   5.204  21.010  0.00  0.00    +0.000 C 
ENDROOT
BRANCH   1   4
ATOM      2  O   UNL     1       2.457   7.492  19.457  0.00  0.00    +0.000 OA
ATOM      3  C   UNL     1       1.600   7.483  20.337  0.00  0.00    +0.000 C 
ATOM      4  N   UNL     1       1.420   6.403  21.166  0.00  0.00    +0.000 N 
ATOM      5  N   UNL     1       0.775   8.561  20.592  0.00  0.00    +0.000 N 
ATOM      6  C   UNL     1      -0.222   8.656  21.665  0.00  0.00    +0.000 C 
ATOM      7  C   UNL     1       0.063   9.854  22.589  0.00  0.00    +0.000 C 
ATOM      8  N   UNL     1       0.199  11.146  21.885  0.00  0.00    +0.000 NA
ATOM      9  C   UNL     1       1.261  10.984  20.852  0.00  0.00    +0.000 C 
ATOM     10  C   UNL     1       1.015   9.818  19.865  0.00  0.00    +0.000 C 
ATOM     11  H   UNL     1       0.467   6.239  21.440  0.00  0.00    +0.000 HD
BRANCH   8  12
ATOM     12  C   UNL     1      -1.069  11.594  21.273  0.00  0.00    +0.000 C 
BRANCH  12  13
ATOM     13  C   UNL     1      -1.390  13.087  21.497  0.00  0.00    +0.000 C 
BRANCH  13  14
ATOM     14  C   UNL     1      -2.246  13.276  22.728  0.00  0.00    +0.000 A 
ATOM     15  C   UNL     1      -3.065  12.233  23.189  0.00  0.00    +0.000 A 
ATOM     16  C   UNL     1      -3.912  12.433  24.280  0.00  0.00    +0.000 A 
ATOM     17  C   UNL     1      -3.944  13.672  24.919  0.00  0.00    +0.000 A 
ATOM     18  C   UNL     1      -3.120  14.706  24.477  0.00  0.00    +0.000 A 
ATOM     19  C   UNL     1      -2.274  14.509  23.385  0.00  0.00    +0.000 A 
ENDBRANCH  13  14
ENDBRANCH  12  13
ENDBRANCH   8  12
ENDBRANCH   1   4
BRANCH   1  20
ATOM     20  C   UNL     1       1.699   4.249  19.938  0.00  0.00    +0.000 C 
BRANCH  20  21
ATOM     21  C   UNL     1       2.610   3.043  19.691  0.00  0.00    +0.000 C 
BRANCH  21  22
ATOM     22  O   UNL     1       3.945   3.402  20.060  0.00  0.00    +0.000 OA
BRANCH  22  23
ATOM     23  C   UNL     1       4.715   4.079  19.152  0.00  0.00    +0.000 A 
ATOM     24  C   UNL     1       5.678   5.048  19.435  0.00  0.00    +0.000 A 
ATOM     25  C   UNL     1       6.449   5.616  18.404  0.00  0.00    +0.000 A 
ATOM     26  C   UNL     1       6.268   5.208  17.078  0.00  0.00    +0.000 A 
ATOM     27  N   UNL     1       7.099   5.690  16.043  0.00  0.00    +0.000 N 
ATOM     28  C   UNL     1       6.976   5.148  14.794  0.00  0.00    +0.000 A 
ATOM     29  N   UNL     1       7.707   5.323  13.720  0.00  0.00    +0.000 NA
ATOM     30  C   UNL     1       7.082   4.509  12.805  0.00  0.00    +0.000 A 
ATOM     31  N   UNL     1       6.027   3.841  13.143  0.00  0.00    +0.000 NA
ATOM     32  C   UNL     1       5.900   4.184  14.453  0.00  0.00    +0.000 A 
ATOM     33  C   UNL     1       5.060   3.780  15.400  0.00  0.00    +0.000 A 
ATOM     34  C   UNL     1       5.260   4.256  16.784  0.00  0.00    +0.000 A 
ATOM     35  C   UNL     1       4.491   3.710  17.821  0.00  0.00    +0.000 A 
ATOM     36  H   UNL     1       7.832   6.347  16.241  0.00  0.00    +0.000 HD
BRANCH  30  37
ATOM     37  O   UNL     1       7.660   4.471  11.605  0.00  0.00    +0.000 OA
ATOM     38  H   UNL     1       6.955   4.454  10.943  0.00  0.00    +0.000 HD
ENDBRANCH  30  37
ENDBRANCH  22  23
ENDBRANCH  21  22
ENDBRANCH  20  21
ENDBRANCH   1  20
TORSDOF 9
ENDMDL
MODEL 8
REMARK VINA RESULT:      -7.8      3.542      5.240
REMARK  Name = 
REMARK  9 active torsions:
REMARK  status: ('A' for Active; 'I' for Inactive)
REMARK    1  A    between atoms: N_3  and  C_4
REMARK    2  A    between atoms: C_4  and  C_5
REMARK    3  A    between atoms: C_5  and  C_6
REMARK    4  A    between atoms: C_6  and  O_7
REMARK    5  A    between atoms: O_7  and  C_8
REMARK    6  A    between atoms: C_15  and  O_16
REMARK    7  A    between atoms: N_25  and  C_26
REMARK    8  A    between atoms: C_26  and  C_27
REMARK    9  A    between atoms: C_27  and  C_28
REMARK                            x       y       z     vdW  Elec       q    Type
REMARK                         _______ _______ _______ _____ _____    ______ ____
ROOT
ATOM      1  C   UNL     1       1.252   7.938  20.989  0.00  0.00    +0.000 C 
ENDROOT
BRANCH   1   4
ATOM      2  O   UNL     1       1.519   5.239  20.398  0.00  0.00    +0.000 OA
ATOM      3  C   UNL     1       2.246   6.030  19.803  0.00  0.00    +0.000 C 
ATOM      4  N   UNL     1       2.197   7.382  20.041  0.00  0.00    +0.000 N 
ATOM      5  N   UNL     1       3.190   5.632  18.877  0.00  0.00    +0.000 N 
ATOM      6  C   UNL     1       4.140   6.505  18.176  0.00  0.00    +0.000 C 
ATOM      7  C   UNL     1       5.595   6.079  18.447  0.00  0.00    +0.000 C 
ATOM      8  N   UNL     1       5.877   4.658  18.159  0.00  0.00    +0.000 NA
ATOM      9  C   UNL     1       4.910   3.841  18.944  0.00  0.00    +0.000 C 
ATOM     10  C   UNL     1       3.425   4.192  18.688  0.00  0.00    +0.000 C 
ATOM     11  H   UNL     1       2.368   7.957  19.233  0.00  0.00    +0.000 HD
BRANCH   8  12
ATOM     12  C   UNL     1       5.787   4.345  16.717  0.00  0.00    +0.000 C 
BRANCH  12  13
ATOM     13  C   UNL     1       6.882   5.005  15.854  0.00  0.00    +0.000 C 
BRANCH  13  14
ATOM     14  C   UNL     1       6.729   4.618  14.401  0.00  0.00    +0.000 A 
ATOM     15  C   UNL     1       5.719   3.727  14.006  0.00  0.00    +0.000 A 
ATOM     16  C   UNL     1       5.627   3.310  12.678  0.00  0.00    +0.000 A 
ATOM     17  C   UNL     1       6.537   3.784  11.735  0.00  0.00    +0.000 A 
ATOM     18  C   UNL     1       7.532   4.684  12.116  0.00  0.00    +0.000 A 
ATOM     19  C   UNL     1       7.628   5.099  13.444  0.00  0.00    +0.000 A 
ENDBRANCH  13  14
ENDBRANCH  12  13
ENDBRANCH   8  12
ENDBRANCH   1   4
BRANCH   1  20
ATOM     20  C   UNL     1       0.739   9.324  20.610  0.00  0.00    +0.000 C 
BRANCH  20  21
ATOM     21  C   UNL     1       1.101   9.747  19.183  0.00  0.00    +0.000 C 
BRANCH  21  22
ATOM     22  O   UNL     1       0.096  10.648  18.708  0.00  0.00    +0.000 OA
BRANCH  22  23
ATOM     23  C   UNL     1       0.361  11.991  18.729  0.00  0.00    +0.000 A 
ATOM     24  C   UNL     1      -0.554  13.017  18.974  0.00  0.00    +0.000 A 
ATOM     25  C   UNL     1      -0.130  14.357  19.036  0.00  0.00    +0.000 A 
ATOM     26  C   UNL     1       1.220  14.681  18.864  0.00  0.00    +0.000 A 
ATOM     27  N   UNL     1       1.681  16.006  19.021  0.00  0.00    +0.000 N 
ATOM     28  C   UNL     1       3.028  16.242  18.988  0.00  0.00    +0.000 A 
ATOM     29  N   UNL     1       3.701  17.339  19.240  0.00  0.00    +0.000 NA
ATOM     30  C   UNL     1       5.000  16.936  19.041  0.00  0.00    +0.000 A 
ATOM     31  N   UNL     1       5.257  15.722  18.674  0.00  0.00    +0.000 NA
ATOM     32  C   UNL     1       4.008  15.183  18.641  0.00  0.00    +0.000 A 
ATOM     33  C   UNL     1       3.580  13.946  18.411  0.00  0.00    +0.000 A 
ATOM     34  C   UNL     1       2.143  13.645  18.571  0.00  0.00    +0.000 A 
ATOM     35  C   UNL     1       1.702  12.317  18.499  0.00  0.00    +0.000 A 
ATOM     36  H   UNL     1       1.042  16.745  19.251  0.00  0.00    +0.000 HD
BRANCH  30  37
ATOM     37  O   UNL     1       5.917  17.875  19.272  0.00  0.00    +0.000 OA
ATOM     38  H   UNL     1       5.923  18.048  20.223  0.00  0.00    +0.000 HD
ENDBRANCH  30  37
ENDBRANCH  22  23
ENDBRANCH  21  22
ENDBRANCH  20  21
ENDBRANCH   1  20
TORSDOF 9
ENDMDL
MODEL 9
REMARK VINA RESULT:      -7.8      3.439      6.087
REMARK  Name = 
REMARK  9 active torsions:
REMARK  status: ('A' for Active; 'I' for Inactive)
REMARK    1  A    between atoms: N_3  and  C_4
REMARK    2  A    between atoms: C_4  and  C_5
REMARK    3  A    between atoms: C_5  and  C_6
REMARK    4  A    between atoms: C_6  and  O_7
REMARK    5  A    between atoms: O_7  and  C_8
REMARK    6  A    between atoms: C_15  and  O_16
REMARK    7  A    between atoms: N_25  and  C_26
REMARK    8  A    between atoms: C_26  and  C_27
REMARK    9  A    between atoms: C_27  and  C_28
REMARK                            x       y       z     vdW  Elec       q    Type
REMARK                         _______ _______ _______ _____ _____    ______ ____
ROOT
ATOM      1  C   UNL     1       1.482   8.760  22.138  0.00  0.00    +0.000 C 
ENDROOT
BRANCH   1   4
ATOM      2  O   UNL     1       1.678   8.500  19.382  0.00  0.00    +0.000 OA
ATOM      3  C   UNL     1       2.021   7.545  20.073  0.00  0.00    +0.000 C 
ATOM      4  N   UNL     1       1.944   7.574  21.444  0.00  0.00    +0.000 N 
ATOM      5  N   UNL     1       2.477   6.356  19.537  0.00  0.00    +0.000 N 
ATOM      6  C   UNL     1       2.839   5.148  20.288  0.00  0.00    +0.000 C 
ATOM      7  C   UNL     1       1.997   3.939  19.843  0.00  0.00    +0.000 C 
ATOM      8  N   UNL     1       2.025   3.680  18.389  0.00  0.00    +0.000 NA
ATOM      9  C   UNL     1       1.596   4.931  17.702  0.00  0.00    +0.000 C 
ATOM     10  C   UNL     1       2.430   6.179  18.077  0.00  0.00    +0.000 C 
ATOM     11  H   UNL     1       2.674   7.069  21.916  0.00  0.00    +0.000 HD
BRANCH   8  12
ATOM     12  C   UNL     1       3.357   3.247  17.917  0.00  0.00    +0.000 C 
BRANCH  12  13
ATOM     13  C   UNL     1       4.495   3.473  18.934  0.00  0.00    +0.000 C 
BRANCH  13  14
ATOM     14  C   UNL     1       5.550   4.395  18.366  0.00  0.00    +0.000 A 
ATOM     15  C   UNL     1       6.279   5.244  19.212  0.00  0.00    +0.000 A 
ATOM     16  C   UNL     1       7.198   6.149  18.680  0.00  0.00    +0.000 A 
ATOM     17  C   UNL     1       7.399   6.207  17.301  0.00  0.00    +0.000 A 
ATOM     18  C   UNL     1       6.691   5.354  16.456  0.00  0.00    +0.000 A 
ATOM     19  C   UNL     1       5.770   4.451  16.986  0.00  0.00    +0.000 A 
ENDBRANCH  13  14
ENDBRANCH  12  13
ENDBRANCH   8  12
ENDBRANCH   1   4
BRANCH   1  20
ATOM     20  C   UNL     1      -0.033   8.941  22.110  0.00  0.00    +0.000 C 
BRANCH  20  21
ATOM     21  C   UNL     1      -0.494  10.338  22.537  0.00  0.00    +0.000 C 
BRANCH  21  22
ATOM     22  O   UNL     1      -0.260  11.243  21.454  0.00  0.00    +0.000 OA
BRANCH  22  23
ATOM     23  C   UNL     1      -1.246  11.413  20.519  0.00  0.00    +0.000 A 
ATOM     24  C   UNL     1      -2.298  12.329  20.575  0.00  0.00    +0.000 A 
ATOM     25  C   UNL     1      -3.205  12.445  19.505  0.00  0.00    +0.000 A 
ATOM     26  C   UNL     1      -3.058  11.651  18.363  0.00  0.00    +0.000 A 
ATOM     27  N   UNL     1      -3.896  11.823  17.239  0.00  0.00    +0.000 N 
ATOM     28  C   UNL     1      -3.616  11.124  16.098  0.00  0.00    +0.000 A 
ATOM     29  N   UNL     1      -4.148  11.208  14.902  0.00  0.00    +0.000 NA
ATOM     30  C   UNL     1      -3.442  10.259  14.201  0.00  0.00    +0.000 A 
ATOM     31  N   UNL     1      -2.531   9.557  14.793  0.00  0.00    +0.000 NA
ATOM     32  C   UNL     1      -2.560  10.082  16.047  0.00  0.00    +0.000 A 
ATOM     33  C   UNL     1      -1.815   9.854  17.123  0.00  0.00    +0.000 A 
ATOM     34  C   UNL     1      -2.018  10.690  18.324  0.00  0.00    +0.000 A 
ATOM     35  C   UNL     1      -1.131  10.577  19.403  0.00  0.00    +0.000 A 
ATOM     36  H   UNL     1      -4.623  12.515  17.245  0.00  0.00    +0.000 HD
BRANCH  30  37
ATOM     37  O   UNL     1      -3.768  10.161  12.913  0.00  0.00    +0.000 OA
ATOM     38  H   UNL     1      -3.864   9.221  12.707  0.00  0.00    +0.000 HD
ENDBRANCH  30  37
ENDBRANCH  22  23
ENDBRANCH  21  22
ENDBRANCH  20  21
ENDBRANCH   1  20
TORSDOF 9
ENDMDL
