MODEL 1
REMARK VINA RESULT:      -6.5      0.000      0.000
REMARK  Name = 
REMARK  8 active torsions:
REMARK  status: ('A' for Active; 'I' for Inactive)
REMARK    1  A    between atoms: C_1  and  C_2
REMARK    2  A    between atoms: C_2  and  O_3
REMARK    3  A    between atoms: O_3  and  C_4
REMARK    4  A    between atoms: C_4  and  C_6
REMARK    5  A    between atoms: N_10  and  C_11
REMARK    6  A    between atoms: N_10  and  N_12
REMARK    7  A    between atoms: C_16  and  C_17
REMARK    8  A    between atoms: C_21  and  C_22
REMARK                            x       y       z     vdW  Elec       q    Type
REMARK                         _______ _______ _______ _____ _____    ______ ____
ROOT
ATOM      1  C   UNL     1      -3.448  11.413  18.178  0.00  0.00    +0.000 A 
ATOM      2  C   UNL     1      -3.054  12.100  19.308  0.00  0.00    +0.000 A 
ATOM      3  N   UNL     1      -1.803  12.080  19.809  0.00  0.00    +0.000 NA
ATOM      4  C   UNL     1      -0.908  11.287  19.201  0.00  0.00    +0.000 A 
ATOM      5  N   UNL     1       0.385  11.201  19.696  0.00  0.00    +0.000 N 
ATOM      6  C   UNL     1       0.914  12.245  20.544  0.00  0.00    +0.000 C 
ATOM      7  N   UNL     1      -1.208  10.594  18.087  0.00  0.00    +0.000 NA
ATOM      8  C   UNL     1      -2.466  10.674  17.552  0.00  0.00    +0.000 A 
ENDROOT
BRANCH   5   9
ATOM      9  N   UNL     1       0.985   9.932  19.687  0.00  0.00    +0.000 N 
ATOM     10  C   UNL     1       1.005   9.063  20.747  0.00  0.00    +0.000 C 
ATOM     11  O   UNL     1       0.624   9.195  21.896  0.00  0.00    +0.000 OA
ATOM     12  C   UNL     1       1.661   7.845  20.242  0.00  0.00    +0.000 C 
ATOM     13  C   UNL     1       2.099   8.084  19.001  0.00  0.00    +0.000 C 
ATOM     14  C   UNL     1       2.792   7.192  18.048  0.00  0.00    +0.000 C 
ATOM     15  C   UNL     1       1.731   9.470  18.645  0.00  0.00    +0.000 C 
ATOM     16  O   UNL     1       2.109  10.032  17.631  0.00  0.00    +0.000 OA
ENDBRANCH   5   9
BRANCH   8  17
ATOM     17  C   UNL     1      -2.653   9.975  16.218  0.00  0.00    +0.000 C 
ATOM     18  F   UNL     1      -2.682  10.775  15.118  0.00  0.00    +0.000 F 
ATOM     19  F   UNL     1      -1.621   9.110  15.963  0.00  0.00    +0.000 F 
ATOM     20  F   UNL     1      -3.780   9.212  16.170  0.00  0.00    +0.000 F 
ENDBRANCH   8  17
BRANCH   1  21
ATOM     21  C   UNL     1      -4.830  11.541  17.703  0.00  0.00    +0.000 C 
ATOM     22  O   UNL     1      -5.215  12.380  16.914  0.00  0.00    +0.000 OA
BRANCH  21  23
ATOM     23  O   UNL     1      -5.574  10.631  18.373  0.00  0.00    +0.000 OA
BRANCH  23  25
ATOM     24  C   UNL     1      -7.059  11.400  20.046  0.00  0.00    +0.000 C 
ATOM     25  C   UNL     1      -6.952  10.962  18.597  0.00  0.00    +0.000 C 
ENDBRANCH  23  25
ENDBRANCH  21  23
ENDBRANCH   1  21
TORSDOF 5
ENDMDL
MODEL 2
REMARK VINA RESULT:      -6.3      0.456      1.798
REMARK  Name = 
REMARK  8 active torsions:
REMARK  status: ('A' for Active; 'I' for Inactive)
REMARK    1  A    between atoms: C_1  and  C_2
REMARK    2  A    between atoms: C_2  and  O_3
REMARK    3  A    between atoms: O_3  and  C_4
REMARK    4  A    between atoms: C_4  and  C_6
REMARK    5  A    between atoms: N_10  and  C_11
REMARK    6  A    between atoms: N_10  and  N_12
REMARK    7  A    between atoms: C_16  and  C_17
REMARK    8  A    between atoms: C_21  and  C_22
REMARK                            x       y       z     vdW  Elec       q    Type
REMARK                         _______ _______ _______ _____ _____    ______ ____
ROOT
ATOM      1  C   UNL     1      -3.349  11.381  18.218  0.00  0.00    +0.000 A 
ATOM      2  C   UNL     1      -2.913  11.972  19.386  0.00  0.00    +0.000 A 
ATOM      3  N   UNL     1      -1.650  11.894  19.849  0.00  0.00    +0.000 NA
ATOM      4  C   UNL     1      -0.785  11.138  19.155  0.00  0.00    +0.000 A 
ATOM      5  N   UNL     1       0.520  10.996  19.607  0.00  0.00    +0.000 N 
ATOM      6  C   UNL     1       1.088  11.962  20.518  0.00  0.00    +0.000 C 
ATOM      7  N   UNL     1      -1.126  10.540  18.000  0.00  0.00    +0.000 NA
ATOM      8  C   UNL     1      -2.397  10.679  17.508  0.00  0.00    +0.000 A 
ENDROOT
BRANCH   5   9
ATOM      9  N   UNL     1       1.097   9.723  19.482  0.00  0.00    +0.000 N 
ATOM     10  C   UNL     1       1.828   9.292  18.405  0.00  0.00    +0.000 C 
ATOM     11  O   UNL     1       2.063   9.823  17.335  0.00  0.00    +0.000 OA
ATOM     12  C   UNL     1       2.291   7.940  18.762  0.00  0.00    +0.000 C 
ATOM     13  C   UNL     1       1.730   7.595  19.926  0.00  0.00    +0.000 C 
ATOM     14  C   UNL     1       1.887   6.364  20.730  0.00  0.00    +0.000 C 
ATOM     15  C   UNL     1       0.886   8.719  20.378  0.00  0.00    +0.000 C 
ATOM     16  O   UNL     1       0.136   8.660  21.338  0.00  0.00    +0.000 OA
ENDBRANCH   5   9
BRANCH   8  17
ATOM     17  C   UNL     1      -2.630  10.090  16.130  0.00  0.00    +0.000 C 
ATOM     18  F   UNL     1      -3.799   9.416  15.954  0.00  0.00    +0.000 F 
ATOM     19  F   UNL     1      -2.674  11.070  15.173  0.00  0.00    +0.000 F 
ATOM     20  F   UNL     1      -1.636   9.247  15.736  0.00  0.00    +0.000 F 
ENDBRANCH   8  17
BRANCH   1  21
ATOM     21  C   UNL     1      -4.741  11.565  17.793  0.00  0.00    +0.000 C 
ATOM     22  O   UNL     1      -5.110  12.375  16.966  0.00  0.00    +0.000 OA
BRANCH  21  23
ATOM     23  O   UNL     1      -5.507  10.749  18.552  0.00  0.00    +0.000 OA
BRANCH  23  25
ATOM     24  C   UNL     1      -7.253  11.801  19.753  0.00  0.00    +0.000 C 
ATOM     25  C   UNL     1      -6.923  10.979  18.521  0.00  0.00    +0.000 C 
ENDBRANCH  23  25
ENDBRANCH  21  23
ENDBRANCH   1  21
TORSDOF 5
ENDMDL
MODEL 3
REMARK VINA RESULT:      -6.3      6.941      9.831
REMARK  Name = 
REMARK  8 active torsions:
REMARK  status: ('A' for Active; 'I' for Inactive)
REMARK    1  A    between atoms: C_1  and  C_2
REMARK    2  A    between atoms: C_2  and  O_3
REMARK    3  A    between atoms: O_3  and  C_4
REMARK    4  A    between atoms: C_4  and  C_6
REMARK    5  A    between atoms: N_10  and  C_11
REMARK    6  A    between atoms: N_10  and  N_12
REMARK    7  A    between atoms: C_16  and  C_17
REMARK    8  A    between atoms: C_21  and  C_22
REMARK                            x       y       z     vdW  Elec       q    Type
REMARK                         _______ _______ _______ _____ _____    ______ ____
ROOT
ATOM      1  C   UNL     1       6.078   6.474  16.898  0.00  0.00    +0.000 A 
ATOM      2  C   UNL     1       4.987   7.104  16.337  0.00  0.00    +0.000 A 
ATOM      3  N   UNL     1       3.749   7.097  16.871  0.00  0.00    +0.000 NA
ATOM      4  C   UNL     1       3.564   6.373  17.986  0.00  0.00    +0.000 A 
ATOM      5  N   UNL     1       2.302   6.303  18.559  0.00  0.00    +0.000 N 
ATOM      6  C   UNL     1       1.309   7.311  18.267  0.00  0.00    +0.000 C 
ATOM      7  N   UNL     1       4.578   5.739  18.603  0.00  0.00    +0.000 NA
ATOM      8  C   UNL     1       5.843   5.808  18.083  0.00  0.00    +0.000 A 
ENDROOT
BRANCH   5   9
ATOM      9  N   UNL     1       1.909   5.058  19.075  0.00  0.00    +0.000 N 
ATOM     10  C   UNL     1       1.417   4.018  18.331  0.00  0.00    +0.000 C 
ATOM     11  O   UNL     1       1.131   3.945  17.150  0.00  0.00    +0.000 OA
ATOM     12  C   UNL     1       1.229   2.910  19.284  0.00  0.00    +0.000 C 
ATOM     13  C   UNL     1       1.482   3.365  20.516  0.00  0.00    +0.000 C 
ATOM     14  C   UNL     1       1.468   2.657  21.813  0.00  0.00    +0.000 C 
ATOM     15  C   UNL     1       1.858   4.789  20.409  0.00  0.00    +0.000 C 
ATOM     16  O   UNL     1       2.015   5.522  21.371  0.00  0.00    +0.000 OA
ENDBRANCH   5   9
BRANCH   8  17
ATOM     17  C   UNL     1       6.932   5.185  18.935  0.00  0.00    +0.000 C 
ATOM     18  F   UNL     1       7.817   6.046  19.506  0.00  0.00    +0.000 F 
ATOM     19  F   UNL     1       6.401   4.511  20.004  0.00  0.00    +0.000 F 
ATOM     20  F   UNL     1       7.673   4.262  18.261  0.00  0.00    +0.000 F 
ENDBRANCH   8  17
BRANCH   1  21
ATOM     21  C   UNL     1       7.387   6.582  16.245  0.00  0.00    +0.000 C 
ATOM     22  O   UNL     1       8.278   7.326  16.602  0.00  0.00    +0.000 OA
BRANCH  21  23
ATOM     23  O   UNL     1       7.360   5.786  15.150  0.00  0.00    +0.000 OA
BRANCH  23  25
ATOM     24  C   UNL     1       6.126   4.062  14.101  0.00  0.00    +0.000 C 
ATOM     25  C   UNL     1       6.912   4.437  15.343  0.00  0.00    +0.000 C 
ENDBRANCH  23  25
ENDBRANCH  21  23
ENDBRANCH   1  21
TORSDOF 5
ENDMDL
MODEL 4
REMARK VINA RESULT:      -6.3      1.383      1.832
REMARK  Name = 
REMARK  8 active torsions:
REMARK  status: ('A' for Active; 'I' for Inactive)
REMARK    1  A    between atoms: C_1  and  C_2
REMARK    2  A    between atoms: C_2  and  O_3
REMARK    3  A    between atoms: O_3  and  C_4
REMARK    4  A    between atoms: C_4  and  C_6
REMARK    5  A    between atoms: N_10  and  C_11
REMARK    6  A    between atoms: N_10  and  N_12
REMARK    7  A    between atoms: C_16  and  C_17
REMARK    8  A    between atoms: C_21  and  C_22
REMARK                            x       y       z     vdW  Elec       q    Type
REMARK                         _______ _______ _______ _____ _____    ______ ____
ROOT
ATOM      1  C   UNL     1      -4.127  11.843  18.516  0.00  0.00    +0.000 A 
ATOM      2  C   UNL     1      -4.037  12.669  19.617  0.00  0.00    +0.000 A 
ATOM      3  N   UNL     1      -2.946  12.771  20.402  0.00  0.00    +0.000 NA
ATOM      4  C   UNL     1      -1.910  11.965  20.124  0.00  0.00    +0.000 A 
ATOM      5  N   UNL     1      -0.775  12.003  20.921  0.00  0.00    +0.000 N 
ATOM      6  C   UNL     1      -0.496  13.160  21.740  0.00  0.00    +0.000 C 
ATOM      7  N   UNL     1      -1.912  11.139  19.061  0.00  0.00    +0.000 NA
ATOM      8  C   UNL     1      -3.003  11.093  18.235  0.00  0.00    +0.000 A 
ENDROOT
BRANCH   5   9
ATOM      9  N   UNL     1      -0.159  10.774  21.206  0.00  0.00    +0.000 N 
ATOM     10  C   UNL     1      -0.282  10.088  22.386  0.00  0.00    +0.000 C 
ATOM     11  O   UNL     1      -0.831  10.386  23.431  0.00  0.00    +0.000 OA
ATOM     12  C   UNL     1       0.463   8.832  22.187  0.00  0.00    +0.000 C 
ATOM     13  C   UNL     1       1.075   8.888  21.000  0.00  0.00    +0.000 C 
ATOM     14  C   UNL     1       1.917   7.884  20.316  0.00  0.00    +0.000 C 
ATOM     15  C   UNL     1       0.741  10.183  20.373  0.00  0.00    +0.000 C 
ATOM     16  O   UNL     1       1.256  10.590  19.345  0.00  0.00    +0.000 OA
ENDBRANCH   5   9
BRANCH   8  17
ATOM     17  C   UNL     1      -2.841  10.244  16.988  0.00  0.00    +0.000 C 
ATOM     18  F   UNL     1      -3.630   9.139  16.906  0.00  0.00    +0.000 F 
ATOM     19  F   UNL     1      -3.160  10.954  15.860  0.00  0.00    +0.000 F 
ATOM     20  F   UNL     1      -1.561   9.820  16.796  0.00  0.00    +0.000 F 
ENDBRANCH   8  17
BRANCH   1  21
ATOM     21  C   UNL     1      -5.354  11.844  17.712  0.00  0.00    +0.000 C 
ATOM     22  O   UNL     1      -5.700  12.749  16.981  0.00  0.00    +0.000 OA
BRANCH  21  23
ATOM     23  O   UNL     1      -6.038  10.717  18.017  0.00  0.00    +0.000 OA
BRANCH  23  25
ATOM     24  C   UNL     1      -7.147   9.379  19.623  0.00  0.00    +0.000 C 
ATOM     25  C   UNL     1      -6.958  10.797  19.116  0.00  0.00    +0.000 C 
ENDBRANCH  23  25
ENDBRANCH  21  23
ENDBRANCH   1  21
TORSDOF 5
ENDMDL
MODEL 5
REMARK VINA RESULT:      -6.2      0.880      1.073
REMARK  Name = 
REMARK  8 active torsions:
REMARK  status: ('A' for Active; 'I' for Inactive)
REMARK    1  A    between atoms: C_1  and  C_2
REMARK    2  A    between atoms: C_2  and  O_3
REMARK    3  A    between atoms: O_3  and  C_4
REMARK    4  A    between atoms: C_4  and  C_6
REMARK    5  A    between atoms: N_10  and  C_11
REMARK    6  A    between atoms: N_10  and  N_12
REMARK    7  A    between atoms: C_16  and  C_17
REMARK    8  A    between atoms: C_21  and  C_22
REMARK                            x       y       z     vdW  Elec       q    Type
REMARK                         _______ _______ _______ _____ _____    ______ ____
ROOT
ATOM      1  C   UNL     1      -3.534  11.853  18.978  0.00  0.00    +0.000 A 
ATOM      2  C   UNL     1      -2.821  12.671  19.830  0.00  0.00    +0.000 A 
ATOM      3  N   UNL     1      -1.489  12.590  20.021  0.00  0.00    +0.000 NA
ATOM      4  C   UNL     1      -0.834  11.607  19.384  0.00  0.00    +0.000 A 
ATOM      5  N   UNL     1       0.533  11.457  19.572  0.00  0.00    +0.000 N 
ATOM      6  C   UNL     1       1.330  12.561  20.056  0.00  0.00    +0.000 C 
ATOM      7  N   UNL     1      -1.452  10.776  18.525  0.00  0.00    +0.000 NA
ATOM      8  C   UNL     1      -2.795  10.910  18.293  0.00  0.00    +0.000 A 
ENDROOT
BRANCH   5   9
ATOM      9  N   UNL     1       1.019  10.144  19.667  0.00  0.00    +0.000 N 
ATOM     10  C   UNL     1       1.005   9.380  20.805  0.00  0.00    +0.000 C 
ATOM     11  O   UNL     1       0.682   9.653  21.946  0.00  0.00    +0.000 OA
ATOM     12  C   UNL     1       1.533   8.065  20.400  0.00  0.00    +0.000 C 
ATOM     13  C   UNL     1       1.940   8.147  19.128  0.00  0.00    +0.000 C 
ATOM     14  C   UNL     1       2.516   7.111  18.245  0.00  0.00    +0.000 C 
ATOM     15  C   UNL     1       1.681   9.521  18.652  0.00  0.00    +0.000 C 
ATOM     16  O   UNL     1       2.067   9.949  17.577  0.00  0.00    +0.000 OA
ENDBRANCH   5   9
BRANCH   8  17
ATOM     17  C   UNL     1      -3.359  10.023  17.200  0.00  0.00    +0.000 C 
ATOM     18  F   UNL     1      -2.451   9.398  16.403  0.00  0.00    +0.000 F 
ATOM     19  F   UNL     1      -4.091   8.991  17.727  0.00  0.00    +0.000 F 
ATOM     20  F   UNL     1      -4.214  10.681  16.369  0.00  0.00    +0.000 F 
ENDBRANCH   8  17
BRANCH   1  21
ATOM     21  C   UNL     1      -4.977  12.058  18.823  0.00  0.00    +0.000 C 
ATOM     22  O   UNL     1      -5.486  12.815  18.020  0.00  0.00    +0.000 OA
BRANCH  21  23
ATOM     23  O   UNL     1      -5.595  11.334  19.784  0.00  0.00    +0.000 OA
BRANCH  23  25
ATOM     24  C   UNL     1      -7.660  10.500  20.584  0.00  0.00    +0.000 C 
ATOM     25  C   UNL     1      -6.738  10.566  19.381  0.00  0.00    +0.000 C 
ENDBRANCH  23  25
ENDBRANCH  21  23
ENDBRANCH   1  21
TORSDOF 5
ENDMDL
MODEL 6
REMARK VINA RESULT:      -6.2      1.335      1.542
REMARK  Name = 
REMARK  8 active torsions:
REMARK  status: ('A' for Active; 'I' for Inactive)
REMARK    1  A    between atoms: C_1  and  C_2
REMARK    2  A    between atoms: C_2  and  O_3
REMARK    3  A    between atoms: O_3  and  C_4
REMARK    4  A    between atoms: C_4  and  C_6
REMARK    5  A    between atoms: N_10  and  C_11
REMARK    6  A    between atoms: N_10  and  N_12
REMARK    7  A    between atoms: C_16  and  C_17
REMARK    8  A    between atoms: C_21  and  C_22
REMARK                            x       y       z     vdW  Elec       q    Type
REMARK                         _______ _______ _______ _____ _____    ______ ____
ROOT
ATOM      1  C   UNL     1      -4.166  11.924  18.994  0.00  0.00    +0.000 A 
ATOM      2  C   UNL     1      -3.778  12.834  19.956  0.00  0.00    +0.000 A 
ATOM      3  N   UNL     1      -2.538  12.900  20.480  0.00  0.00    +0.000 NA
ATOM      4  C   UNL     1      -1.651  11.976  20.082  0.00  0.00    +0.000 A 
ATOM      5  N   UNL     1      -0.370  11.978  20.617  0.00  0.00    +0.000 N 
ATOM      6  C   UNL     1       0.166  13.172  21.229  0.00  0.00    +0.000 C 
ATOM      7  N   UNL     1      -1.944  11.063  19.140  0.00  0.00    +0.000 NA
ATOM      8  C   UNL     1      -3.189  11.047  18.569  0.00  0.00    +0.000 A 
ENDROOT
BRANCH   5   9
ATOM      9  N   UNL     1       0.200  10.726  20.900  0.00  0.00    +0.000 N 
ATOM     10  C   UNL     1       0.160  10.101  22.119  0.00  0.00    +0.000 C 
ATOM     11  O   UNL     1      -0.259  10.479  23.198  0.00  0.00    +0.000 OA
ATOM     12  C   UNL     1       0.806   8.794  21.909  0.00  0.00    +0.000 C 
ATOM     13  C   UNL     1       1.294   8.758  20.665  0.00  0.00    +0.000 C 
ATOM     14  C   UNL     1       2.001   7.674  19.950  0.00  0.00    +0.000 C 
ATOM     15  C   UNL     1       0.973  10.042  20.010  0.00  0.00    +0.000 C 
ATOM     16  O   UNL     1       1.401  10.371  18.917  0.00  0.00    +0.000 OA
ENDBRANCH   5   9
BRANCH   8  17
ATOM     17  C   UNL     1      -3.365  10.077  17.416  0.00  0.00    +0.000 C 
ATOM     18  F   UNL     1      -4.116  10.515  16.370  0.00  0.00    +0.000 F 
ATOM     19  F   UNL     1      -2.160   9.764  16.842  0.00  0.00    +0.000 F 
ATOM     20  F   UNL     1      -3.899   8.884  17.801  0.00  0.00    +0.000 F 
ENDBRANCH   8  17
BRANCH   1  21
ATOM     21  C   UNL     1      -5.534  11.970  18.469  0.00  0.00    +0.000 C 
ATOM     22  O   UNL     1      -5.917  12.731  17.603  0.00  0.00    +0.000 OA
BRANCH  21  23
ATOM     23  O   UNL     1      -6.273  11.093  19.186  0.00  0.00    +0.000 OA
BRANCH  23  25
ATOM     24  C   UNL     1      -7.197  11.850  21.229  0.00  0.00    +0.000 C 
ATOM     25  C   UNL     1      -7.489  11.592  19.762  0.00  0.00    +0.000 C 
ENDBRANCH  23  25
ENDBRANCH  21  23
ENDBRANCH   1  21
TORSDOF 5
ENDMDL
MODEL 7
REMARK VINA RESULT:      -6.1      6.981      9.790
REMARK  Name = 
REMARK  8 active torsions:
REMARK  status: ('A' for Active; 'I' for Inactive)
REMARK    1  A    between atoms: C_1  and  C_2
REMARK    2  A    between atoms: C_2  and  O_3
REMARK    3  A    between atoms: O_3  and  C_4
REMARK    4  A    between atoms: C_4  and  C_6
REMARK    5  A    between atoms: N_10  and  C_11
REMARK    6  A    between atoms: N_10  and  N_12
REMARK    7  A    between atoms: C_16  and  C_17
REMARK    8  A    between atoms: C_21  and  C_22
REMARK                            x       y       z     vdW  Elec       q    Type
REMARK                         _______ _______ _______ _____ _____    ______ ____
ROOT
ATOM      1  C   UNL     1       6.088   6.351  16.823  0.00  0.00    +0.000 A 
ATOM      2  C   UNL     1       5.014   7.075  16.347  0.00  0.00    +0.000 A 
ATOM      3  N   UNL     1       3.800   7.102  16.931  0.00  0.00    +0.000 NA
ATOM      4  C   UNL     1       3.616   6.321  18.007  0.00  0.00    +0.000 A 
ATOM      5  N   UNL     1       2.375   6.284  18.626  0.00  0.00    +0.000 N 
ATOM      6  C   UNL     1       1.431   7.362  18.437  0.00  0.00    +0.000 C 
ATOM      7  N   UNL     1       4.614   5.595  18.542  0.00  0.00    +0.000 NA
ATOM      8  C   UNL     1       5.861   5.627  17.975  0.00  0.00    +0.000 A 
ENDROOT
BRANCH   5   9
ATOM      9  N   UNL     1       1.931   5.033  19.082  0.00  0.00    +0.000 N 
ATOM     10  C   UNL     1       1.370   4.062  18.294  0.00  0.00    +0.000 C 
ATOM     11  O   UNL     1       1.054   4.070  17.119  0.00  0.00    +0.000 OA
ATOM     12  C   UNL     1       1.148   2.912  19.189  0.00  0.00    +0.000 C 
ATOM     13  C   UNL     1       1.452   3.284  20.437  0.00  0.00    +0.000 C 
ATOM     14  C   UNL     1       1.431   2.505  21.694  0.00  0.00    +0.000 C 
ATOM     15  C   UNL     1       1.897   4.692  20.401  0.00  0.00    +0.000 C 
ATOM     16  O   UNL     1       2.112   5.360  21.398  0.00  0.00    +0.000 OA
ENDBRANCH   5   9
BRANCH   8  17
ATOM     17  C   UNL     1       6.944   4.893  18.742  0.00  0.00    +0.000 C 
ATOM     18  F   UNL     1       7.894   4.268  17.994  0.00  0.00    +0.000 F 
ATOM     19  F   UNL     1       7.665   5.754  19.528  0.00  0.00    +0.000 F 
ATOM     20  F   UNL     1       6.449   3.956  19.598  0.00  0.00    +0.000 F 
ENDBRANCH   8  17
BRANCH   1  21
ATOM     21  C   UNL     1       7.375   6.428  16.124  0.00  0.00    +0.000 C 
ATOM     22  O   UNL     1       7.691   5.733  15.180  0.00  0.00    +0.000 OA
BRANCH  21  23
ATOM     23  O   UNL     1       8.141   7.327  16.784  0.00  0.00    +0.000 OA
BRANCH  23  25
ATOM     24  C   UNL     1       8.494   9.138  18.265  0.00  0.00    +0.000 C 
ATOM     25  C   UNL     1       7.455   8.405  17.437  0.00  0.00    +0.000 C 
ENDBRANCH  23  25
ENDBRANCH  21  23
ENDBRANCH   1  21
TORSDOF 5
ENDMDL
MODEL 8
REMARK VINA RESULT:      -6.1      3.755      7.238
REMARK  Name = 
REMARK  8 active torsions:
REMARK  status: ('A' for Active; 'I' for Inactive)
REMARK    1  A    between atoms: C_1  and  C_2
REMARK    2  A    between atoms: C_2  and  O_3
REMARK    3  A    between atoms: O_3  and  C_4
REMARK    4  A    between atoms: C_4  and  C_6
REMARK    5  A    between atoms: N_10  and  C_11
REMARK    6  A    between atoms: N_10  and  N_12
REMARK    7  A    between atoms: C_16  and  C_17
REMARK    8  A    between atoms: C_21  and  C_22
REMARK                            x       y       z     vdW  Elec       q    Type
REMARK                         _______ _______ _______ _____ _____    ______ ____
ROOT
ATOM      1  C   UNL     1       2.731   6.389  18.218  0.00  0.00    +0.000 A 
ATOM      2  C   UNL     1       3.018   7.322  17.243  0.00  0.00    +0.000 A 
ATOM      3  N   UNL     1       2.756   8.640  17.354  0.00  0.00    +0.000 NA
ATOM      4  C   UNL     1       2.117   9.049  18.460  0.00  0.00    +0.000 A 
ATOM      5  N   UNL     1       1.791  10.390  18.610  0.00  0.00    +0.000 N 
ATOM      6  C   UNL     1       2.492  11.402  17.853  0.00  0.00    +0.000 C 
ATOM      7  N   UNL     1       1.812   8.207  19.464  0.00  0.00    +0.000 NA
ATOM      8  C   UNL     1       2.142   6.881  19.365  0.00  0.00    +0.000 A 
ENDROOT
BRANCH   5   9
ATOM      9  N   UNL     1       0.542  10.679  19.181  0.00  0.00    +0.000 N 
ATOM     10  C   UNL     1      -0.668  10.473  18.572  0.00  0.00    +0.000 C 
ATOM     11  O   UNL     1      -0.943  10.107  17.443  0.00  0.00    +0.000 OA
ATOM     12  C   UNL     1      -1.680  10.840  19.577  0.00  0.00    +0.000 C 
ATOM     13  C   UNL     1      -1.052  11.350  20.643  0.00  0.00    +0.000 C 
ATOM     14  C   UNL     1      -1.598  11.839  21.926  0.00  0.00    +0.000 C 
ATOM     15  C   UNL     1       0.400  11.322  20.374  0.00  0.00    +0.000 C 
ATOM     16  O   UNL     1       1.233  11.843  21.097  0.00  0.00    +0.000 OA
ENDBRANCH   5   9
BRANCH   8  17
ATOM     17  C   UNL     1       1.889   6.052  20.609  0.00  0.00    +0.000 C 
ATOM     18  F   UNL     1       2.909   5.249  21.016  0.00  0.00    +0.000 F 
ATOM     19  F   UNL     1       1.651   6.851  21.698  0.00  0.00    +0.000 F 
ATOM     20  F   UNL     1       0.789   5.255  20.504  0.00  0.00    +0.000 F 
ENDBRANCH   8  17
BRANCH   1  21
ATOM     21  C   UNL     1       3.097   4.986  18.002  0.00  0.00    +0.000 C 
ATOM     22  O   UNL     1       4.229   4.550  18.060  0.00  0.00    +0.000 OA
BRANCH  21  23
ATOM     23  O   UNL     1       1.972   4.325  17.643  0.00  0.00    +0.000 OA
BRANCH  23  25
ATOM     24  C   UNL     1       0.951   2.519  18.782  0.00  0.00    +0.000 C 
ATOM     25  C   UNL     1       2.001   2.894  17.752  0.00  0.00    +0.000 C 
ENDBRANCH  23  25
ENDBRANCH  21  23
ENDBRANCH   1  21
TORSDOF 5
ENDMDL
MODEL 9
REMARK VINA RESULT:      -6.0      1.411      1.631
REMARK  Name = 
REMARK  8 active torsions:
REMARK  status: ('A' for Active; 'I' for Inactive)
REMARK    1  A    between atoms: C_1  and  C_2
REMARK    2  A    between atoms: C_2  and  O_3
REMARK    3  A    between atoms: O_3  and  C_4
REMARK    4  A    between atoms: C_4  and  C_6
REMARK    5  A    between atoms: N_10  and  C_11
REMARK    6  A    between atoms: N_10  and  N_12
REMARK    7  A    between atoms: C_16  and  C_17
REMARK    8  A    between atoms: C_21  and  C_22
REMARK                            x       y       z     vdW  Elec       q    Type
REMARK                         _______ _______ _______ _____ _____    ______ ____
ROOT
ATOM      1  C   UNL     1      -3.978  12.446  19.723  0.00  0.00    +0.000 A 
ATOM      2  C   UNL     1      -3.297  13.093  20.734  0.00  0.00    +0.000 A 
ATOM      3  N   UNL     1      -1.965  13.010  20.926  0.00  0.00    +0.000 NA
ATOM      4  C   UNL     1      -1.277  12.190  20.117  0.00  0.00    +0.000 A 
ATOM      5  N   UNL     1       0.091  12.040  20.293  0.00  0.00    +0.000 N 
ATOM      6  C   UNL     1       0.852  13.043  21.001  0.00  0.00    +0.000 C 
ATOM      7  N   UNL     1      -1.862  11.533  19.099  0.00  0.00    +0.000 NA
ATOM      8  C   UNL     1      -3.206  11.678  18.876  0.00  0.00    +0.000 A 
ENDROOT
BRANCH   5   9
ATOM      9  N   UNL     1       0.612  10.746  20.131  0.00  0.00    +0.000 N 
ATOM     10  C   UNL     1       0.579   9.760  21.083  0.00  0.00    +0.000 C 
ATOM     11  O   UNL     1       0.208   9.780  22.242  0.00  0.00    +0.000 OA
ATOM     12  C   UNL     1       1.160   8.572  20.434  0.00  0.00    +0.000 C 
ATOM     13  C   UNL     1       1.611   8.927  19.227  0.00  0.00    +0.000 C 
ATOM     14  C   UNL     1       2.248   8.112  18.171  0.00  0.00    +0.000 C 
ATOM     15  C   UNL     1       1.329  10.364  19.038  0.00  0.00    +0.000 C 
ATOM     16  O   UNL     1       1.740  11.017  18.093  0.00  0.00    +0.000 OA
ENDBRANCH   5   9
BRANCH   8  17
ATOM     17  C   UNL     1      -3.733  11.014  17.619  0.00  0.00    +0.000 C 
ATOM     18  F   UNL     1      -4.227  11.844  16.661  0.00  0.00    +0.000 F 
ATOM     19  F   UNL     1      -2.742  10.324  16.970  0.00  0.00    +0.000 F 
ATOM     20  F   UNL     1      -4.705  10.093  17.870  0.00  0.00    +0.000 F 
ENDBRANCH   8  17
BRANCH   1  21
ATOM     21  C   UNL     1      -5.424  12.642  19.589  0.00  0.00    +0.000 C 
ATOM     22  O   UNL     1      -5.947  13.445  18.841  0.00  0.00    +0.000 OA
BRANCH  21  23
ATOM     23  O   UNL     1      -6.028  11.847  20.502  0.00  0.00    +0.000 OA
BRANCH  23  25
ATOM     24  C   UNL     1      -7.240   9.873  20.020  0.00  0.00    +0.000 C 
ATOM     25  C   UNL     1      -7.345  11.378  20.180  0.00  0.00    +0.000 C 
ENDBRANCH  23  25
ENDBRANCH  21  23
ENDBRANCH   1  21
TORSDOF 5
ENDMDL
