MODEL 1
REMARK VINA RESULT:      -8.8      0.000      0.000
REMARK  Name = 
REMARK  8 active torsions:
REMARK  status: ('A' for Active; 'I' for Inactive)
REMARK    1  A    between atoms: C_1  and  C_2
REMARK    2  A    between atoms: C_2  and  N_3
REMARK    3  A    between atoms: C_4  and  S_13
REMARK    4  A    between atoms: N_5  and  C_6
REMARK    5  A    between atoms: S_13  and  C_14
REMARK    6  A    between atoms: N_18  and  C_19
REMARK    7  A    between atoms: C_22  and  O_23
REMARK    8  A    between atoms: O_23  and  C_24
REMARK                            x       y       z     vdW  Elec       q    Type
REMARK                         _______ _______ _______ _____ _____    ______ ____
ROOT
ATOM      1  C   UNL     1       3.259   6.511  18.293  0.00  0.00    +0.000 C 
ATOM      2  C   UNL     1       3.228   7.734  17.407  0.00  0.00    +0.000 C 
ATOM      3  C   UNL     1       2.343   8.695  18.146  0.00  0.00    +0.000 C 
ATOM      4  O   UNL     1       2.057   9.784  17.663  0.00  0.00    +0.000 OA
ATOM      5  N   UNL     1       1.982   8.162  19.366  0.00  0.00    +0.000 N 
ATOM      6  C   UNL     1       2.479   6.884  19.526  0.00  0.00    +0.000 C 
ATOM      7  O   UNL     1       2.268   6.092  20.442  0.00  0.00    +0.000 OA
ENDROOT
BRANCH   5   8
ATOM      8  C   UNL     1       1.200   8.843  20.348  0.00  0.00    +0.000 A 
ATOM      9  C   UNL     1       1.414   8.647  21.719  0.00  0.00    +0.000 A 
ATOM     10  C   UNL     1       0.648   9.322  22.676  0.00  0.00    +0.000 A 
ATOM     11  C   UNL     1      -0.348  10.213  22.290  0.00  0.00    +0.000 A 
ATOM     12  C   UNL     1      -0.597  10.403  20.936  0.00  0.00    +0.000 A 
ATOM     13  C   UNL     1       0.173   9.728  19.977  0.00  0.00    +0.000 A 
BRANCH  11  14
ATOM     14  O   UNL     1      -1.034  10.802  23.314  0.00  0.00    +0.000 OA
ATOM     15  C   UNL     1      -1.917  11.852  22.937  0.00  0.00    +0.000 C 
ENDBRANCH  11  14
ENDBRANCH   5   8
BRANCH   1  16
ATOM     16  S   UNL     1       4.906   5.860  18.666  0.00  0.00    +0.000 S 
BRANCH  16  18
ATOM     17  N   UNL     1       5.619   4.616  16.492  0.00  0.00    +0.000 NA
ATOM     18  C   UNL     1       5.045   4.427  17.623  0.00  0.00    +0.000 C 
ATOM     19  N   UNL     1       4.590   3.252  18.167  0.00  0.00    +0.000 N 
ATOM     20  H   UNL     1       4.950   2.407  17.744  0.00  0.00    +0.000 HD
BRANCH  19  21
ATOM     21  C   UNL     1       3.342   3.023  18.791  0.00  0.00    +0.000 A 
ATOM     22  C   UNL     1       2.188   2.997  17.989  0.00  0.00    +0.000 A 
ATOM     23  C   UNL     1       0.925   2.744  18.541  0.00  0.00    +0.000 A 
ATOM     24  C   UNL     1       0.802   2.502  19.905  0.00  0.00    +0.000 A 
ATOM     25  C   UNL     1       1.938   2.511  20.700  0.00  0.00    +0.000 A 
ATOM     26  F   UNL     1       1.825   2.269  22.014  0.00  0.00    +0.000 F 
ATOM     27  C   UNL     1       3.196   2.767  20.159  0.00  0.00    +0.000 A 
ENDBRANCH  19  21
BRANCH  17  29
ATOM     28  C   UNL     1       5.877   4.185  14.130  0.00  0.00    +0.000 C 
ATOM     29  C   UNL     1       5.840   3.560  15.517  0.00  0.00    +0.000 C 
ENDBRANCH  17  29
ENDBRANCH  16  18
ENDBRANCH   1  16
TORSDOF 6
ENDMDL
MODEL 2
REMARK VINA RESULT:      -8.7      0.787      1.197
REMARK  Name = 
REMARK  8 active torsions:
REMARK  status: ('A' for Active; 'I' for Inactive)
REMARK    1  A    between atoms: C_1  and  C_2
REMARK    2  A    between atoms: C_2  and  N_3
REMARK    3  A    between atoms: C_4  and  S_13
REMARK    4  A    between atoms: N_5  and  C_6
REMARK    5  A    between atoms: S_13  and  C_14
REMARK    6  A    between atoms: N_18  and  C_19
REMARK    7  A    between atoms: C_22  and  O_23
REMARK    8  A    between atoms: O_23  and  C_24
REMARK                            x       y       z     vdW  Elec       q    Type
REMARK                         _______ _______ _______ _____ _____    ______ ____
ROOT
ATOM      1  C   UNL     1       3.293   6.491  18.289  0.00  0.00    +0.000 C 
ATOM      2  C   UNL     1       3.251   7.707  17.393  0.00  0.00    +0.000 C 
ATOM      3  C   UNL     1       2.358   8.666  18.126  0.00  0.00    +0.000 C 
ATOM      4  O   UNL     1       2.062   9.748  17.635  0.00  0.00    +0.000 OA
ATOM      5  N   UNL     1       2.003   8.138  19.350  0.00  0.00    +0.000 N 
ATOM      6  C   UNL     1       2.510   6.866  19.519  0.00  0.00    +0.000 C 
ATOM      7  O   UNL     1       2.307   6.079  20.440  0.00  0.00    +0.000 OA
ENDROOT
BRANCH   5   8
ATOM      8  C   UNL     1       1.215   8.820  20.327  0.00  0.00    +0.000 A 
ATOM      9  C   UNL     1       1.426   8.630  21.700  0.00  0.00    +0.000 A 
ATOM     10  C   UNL     1       0.654   9.305  22.652  0.00  0.00    +0.000 A 
ATOM     11  C   UNL     1      -0.344  10.190  22.260  0.00  0.00    +0.000 A 
ATOM     12  C   UNL     1      -0.591  10.374  20.905  0.00  0.00    +0.000 A 
ATOM     13  C   UNL     1       0.185   9.698  19.951  0.00  0.00    +0.000 A 
BRANCH  11  14
ATOM     14  O   UNL     1      -1.036  10.780  23.280  0.00  0.00    +0.000 OA
ATOM     15  C   UNL     1      -1.674  12.010  22.958  0.00  0.00    +0.000 C 
ENDBRANCH  11  14
ENDBRANCH   5   8
BRANCH   1  16
ATOM     16  S   UNL     1       4.946   5.857  18.665  0.00  0.00    +0.000 S 
BRANCH  16  18
ATOM     17  N   UNL     1       5.551   4.607  16.463  0.00  0.00    +0.000 NA
ATOM     18  C   UNL     1       5.091   4.409  17.644  0.00  0.00    +0.000 C 
ATOM     19  N   UNL     1       4.767   3.221  18.249  0.00  0.00    +0.000 N 
ATOM     20  H   UNL     1       5.146   2.391  17.814  0.00  0.00    +0.000 HD
BRANCH  19  21
ATOM     21  C   UNL     1       3.596   2.926  18.987  0.00  0.00    +0.000 A 
ATOM     22  C   UNL     1       3.685   2.874  20.389  0.00  0.00    +0.000 A 
ATOM     23  C   UNL     1       2.557   2.618  21.179  0.00  0.00    +0.000 A 
ATOM     24  C   UNL     1       1.319   2.421  20.575  0.00  0.00    +0.000 A 
ATOM     25  C   UNL     1       1.222   2.486  19.193  0.00  0.00    +0.000 A 
ATOM     26  F   UNL     1       0.030   2.306  18.608  0.00  0.00    +0.000 F 
ATOM     27  C   UNL     1       2.340   2.735  18.402  0.00  0.00    +0.000 A 
ENDBRANCH  19  21
BRANCH  17  29
ATOM     28  C   UNL     1       5.950   4.171  14.121  0.00  0.00    +0.000 C 
ATOM     29  C   UNL     1       5.757   3.542  15.494  0.00  0.00    +0.000 C 
ENDBRANCH  17  29
ENDBRANCH  16  18
ENDBRANCH   1  16
TORSDOF 6
ENDMDL
MODEL 3
REMARK VINA RESULT:      -7.9      2.912      4.751
REMARK  Name = 
REMARK  8 active torsions:
REMARK  status: ('A' for Active; 'I' for Inactive)
REMARK    1  A    between atoms: C_1  and  C_2
REMARK    2  A    between atoms: C_2  and  N_3
REMARK    3  A    between atoms: C_4  and  S_13
REMARK    4  A    between atoms: N_5  and  C_6
REMARK    5  A    between atoms: S_13  and  C_14
REMARK    6  A    between atoms: N_18  and  C_19
REMARK    7  A    between atoms: C_22  and  O_23
REMARK    8  A    between atoms: O_23  and  C_24
REMARK                            x       y       z     vdW  Elec       q    Type
REMARK                         _______ _______ _______ _____ _____    ______ ____
ROOT
ATOM      1  C   UNL     1       2.553   6.941  18.868  0.00  0.00    +0.000 C 
ATOM      2  C   UNL     1       2.016   6.922  20.280  0.00  0.00    +0.000 C 
ATOM      3  C   UNL     1       1.409   8.284  20.455  0.00  0.00    +0.000 C 
ATOM      4  O   UNL     1       0.929   8.625  21.529  0.00  0.00    +0.000 OA
ATOM      5  N   UNL     1       1.475   8.986  19.269  0.00  0.00    +0.000 N 
ATOM      6  C   UNL     1       2.132   8.266  18.291  0.00  0.00    +0.000 C 
ATOM      7  O   UNL     1       2.449   8.627  17.160  0.00  0.00    +0.000 OA
ENDROOT
BRANCH   5   8
ATOM      8  C   UNL     1       0.927  10.289  19.068  0.00  0.00    +0.000 A 
ATOM      9  C   UNL     1       1.727  11.438  19.138  0.00  0.00    +0.000 A 
ATOM     10  C   UNL     1       1.186  12.713  18.935  0.00  0.00    +0.000 A 
ATOM     11  C   UNL     1      -0.166  12.873  18.650  0.00  0.00    +0.000 A 
ATOM     12  C   UNL     1      -0.985  11.751  18.602  0.00  0.00    +0.000 A 
ATOM     13  C   UNL     1      -0.441  10.474  18.805  0.00  0.00    +0.000 A 
BRANCH  11  14
ATOM     14  O   UNL     1      -0.579  14.165  18.482  0.00  0.00    +0.000 OA
ATOM     15  C   UNL     1       0.331  15.162  18.928  0.00  0.00    +0.000 C 
ENDBRANCH  11  14
ENDBRANCH   5   8
BRANCH   1  16
ATOM     16  S   UNL     1       2.077   5.533  17.835  0.00  0.00    +0.000 S 
BRANCH  16  18
ATOM     17  N   UNL     1       1.867   3.673  19.644  0.00  0.00    +0.000 NA
ATOM     18  C   UNL     1       2.660   4.120  18.742  0.00  0.00    +0.000 C 
ATOM     19  N   UNL     1       3.866   3.609  18.332  0.00  0.00    +0.000 N 
ATOM     20  H   UNL     1       4.048   2.651  18.598  0.00  0.00    +0.000 HD
BRANCH  19  21
ATOM     21  C   UNL     1       5.070   4.321  18.118  0.00  0.00    +0.000 A 
ATOM     22  C   UNL     1       5.694   4.928  19.223  0.00  0.00    +0.000 A 
ATOM     23  C   UNL     1       6.904   5.619  19.085  0.00  0.00    +0.000 A 
ATOM     24  C   UNL     1       7.513   5.705  17.837  0.00  0.00    +0.000 A 
ATOM     25  C   UNL     1       6.912   5.096  16.745  0.00  0.00    +0.000 A 
ATOM     26  F   UNL     1       7.500   5.168  15.544  0.00  0.00    +0.000 F 
ATOM     27  C   UNL     1       5.706   4.411  16.875  0.00  0.00    +0.000 A 
ENDBRANCH  19  21
BRANCH  17  29
ATOM     28  C   UNL     1       2.018   2.917  21.933  0.00  0.00    +0.000 C 
ATOM     29  C   UNL     1       2.164   2.515  20.472  0.00  0.00    +0.000 C 
ENDBRANCH  17  29
ENDBRANCH  16  18
ENDBRANCH   1  16
TORSDOF 6
ENDMDL
MODEL 4
REMARK VINA RESULT:      -7.8      2.691      4.513
REMARK  Name = 
REMARK  8 active torsions:
REMARK  status: ('A' for Active; 'I' for Inactive)
REMARK    1  A    between atoms: C_1  and  C_2
REMARK    2  A    between atoms: C_2  and  N_3
REMARK    3  A    between atoms: C_4  and  S_13
REMARK    4  A    between atoms: N_5  and  C_6
REMARK    5  A    between atoms: S_13  and  C_14
REMARK    6  A    between atoms: N_18  and  C_19
REMARK    7  A    between atoms: C_22  and  O_23
REMARK    8  A    between atoms: O_23  and  C_24
REMARK                            x       y       z     vdW  Elec       q    Type
REMARK                         _______ _______ _______ _____ _____    ______ ____
ROOT
ATOM      1  C   UNL     1       2.552   6.953  18.822  0.00  0.00    +0.000 C 
ATOM      2  C   UNL     1       2.007   6.927  20.231  0.00  0.00    +0.000 C 
ATOM      3  C   UNL     1       1.414   8.294  20.414  0.00  0.00    +0.000 C 
ATOM      4  O   UNL     1       0.931   8.630  21.490  0.00  0.00    +0.000 OA
ATOM      5  N   UNL     1       1.493   9.005  19.235  0.00  0.00    +0.000 N 
ATOM      6  C   UNL     1       2.148   8.287  18.255  0.00  0.00    +0.000 C 
ATOM      7  O   UNL     1       2.475   8.655  17.129  0.00  0.00    +0.000 OA
ENDROOT
BRANCH   5   8
ATOM      8  C   UNL     1       0.960  10.316  19.043  0.00  0.00    +0.000 A 
ATOM      9  C   UNL     1       1.794  11.438  18.942  0.00  0.00    +0.000 A 
ATOM     10  C   UNL     1       1.266  12.719  18.748  0.00  0.00    +0.000 A 
ATOM     11  C   UNL     1      -0.108  12.913  18.644  0.00  0.00    +0.000 A 
ATOM     12  C   UNL     1      -0.957  11.820  18.768  0.00  0.00    +0.000 A 
ATOM     13  C   UNL     1      -0.426  10.535  18.960  0.00  0.00    +0.000 A 
BRANCH  11  14
ATOM     14  O   UNL     1      -0.503  14.209  18.466  0.00  0.00    +0.000 OA
ATOM     15  C   UNL     1       0.100  15.160  19.336  0.00  0.00    +0.000 C 
ENDBRANCH  11  14
ENDBRANCH   5   8
BRANCH   1  16
ATOM     16  S   UNL     1       2.067   5.559  17.774  0.00  0.00    +0.000 S 
BRANCH  16  18
ATOM     17  N   UNL     1       1.645   3.767  19.615  0.00  0.00    +0.000 NA
ATOM     18  C   UNL     1       2.505   4.129  18.735  0.00  0.00    +0.000 C 
ATOM     19  N   UNL     1       3.681   3.517  18.384  0.00  0.00    +0.000 N 
ATOM     20  H   UNL     1       3.778   2.554  18.678  0.00  0.00    +0.000 HD
BRANCH  19  21
ATOM     21  C   UNL     1       4.944   4.127  18.201  0.00  0.00    +0.000 A 
ATOM     22  C   UNL     1       5.495   4.150  16.908  0.00  0.00    +0.000 A 
ATOM     23  C   UNL     1       6.727   4.766  16.653  0.00  0.00    +0.000 A 
ATOM     24  C   UNL     1       7.421   5.380  17.691  0.00  0.00    +0.000 A 
ATOM     25  C   UNL     1       6.877   5.375  18.967  0.00  0.00    +0.000 A 
ATOM     26  F   UNL     1       7.538   5.972  19.968  0.00  0.00    +0.000 F 
ATOM     27  C   UNL     1       5.655   4.759  19.227  0.00  0.00    +0.000 A 
ENDBRANCH  19  21
BRANCH  17  29
ATOM     28  C   UNL     1       2.143   3.104  21.883  0.00  0.00    +0.000 C 
ATOM     29  C   UNL     1       1.821   2.612  20.480  0.00  0.00    +0.000 C 
ENDBRANCH  17  29
ENDBRANCH  16  18
ENDBRANCH   1  16
TORSDOF 6
ENDMDL
MODEL 5
REMARK VINA RESULT:      -7.7      2.667      4.530
REMARK  Name = 
REMARK  8 active torsions:
REMARK  status: ('A' for Active; 'I' for Inactive)
REMARK    1  A    between atoms: C_1  and  C_2
REMARK    2  A    between atoms: C_2  and  N_3
REMARK    3  A    between atoms: C_4  and  S_13
REMARK    4  A    between atoms: N_5  and  C_6
REMARK    5  A    between atoms: S_13  and  C_14
REMARK    6  A    between atoms: N_18  and  C_19
REMARK    7  A    between atoms: C_22  and  O_23
REMARK    8  A    between atoms: O_23  and  C_24
REMARK                            x       y       z     vdW  Elec       q    Type
REMARK                         _______ _______ _______ _____ _____    ______ ____
ROOT
ATOM      1  C   UNL     1       2.484   7.193  18.931  0.00  0.00    +0.000 C 
ATOM      2  C   UNL     1       2.094   6.967  20.373  0.00  0.00    +0.000 C 
ATOM      3  C   UNL     1       1.411   8.245  20.767  0.00  0.00    +0.000 C 
ATOM      4  O   UNL     1       1.018   8.418  21.915  0.00  0.00    +0.000 OA
ATOM      5  N   UNL     1       1.305   9.080  19.675  0.00  0.00    +0.000 N 
ATOM      6  C   UNL     1       1.911   8.536  18.561  0.00  0.00    +0.000 C 
ATOM      7  O   UNL     1       2.085   9.049  17.459  0.00  0.00    +0.000 OA
ENDROOT
BRANCH   5   8
ATOM      8  C   UNL     1       0.646  10.348  19.686  0.00  0.00    +0.000 A 
ATOM      9  C   UNL     1      -0.697  10.478  19.307  0.00  0.00    +0.000 A 
ATOM     10  C   UNL     1      -1.338  11.722  19.325  0.00  0.00    +0.000 A 
ATOM     11  C   UNL     1      -0.657  12.866  19.727  0.00  0.00    +0.000 A 
ATOM     12  C   UNL     1       0.683  12.767  20.081  0.00  0.00    +0.000 A 
ATOM     13  C   UNL     1       1.324  11.519  20.065  0.00  0.00    +0.000 A 
BRANCH  11  14
ATOM     14  O   UNL     1      -1.386  14.022  19.693  0.00  0.00    +0.000 OA
ATOM     15  C   UNL     1      -2.324  14.187  20.749  0.00  0.00    +0.000 C 
ENDBRANCH  11  14
ENDBRANCH   5   8
BRANCH   1  16
ATOM     16  S   UNL     1       2.010   5.878  17.781  0.00  0.00    +0.000 S 
BRANCH  16  18
ATOM     17  N   UNL     1       1.474   4.032  19.537  0.00  0.00    +0.000 NA
ATOM     18  C   UNL     1       2.357   4.382  18.675  0.00  0.00    +0.000 C 
ATOM     19  N   UNL     1       3.497   3.718  18.299  0.00  0.00    +0.000 N 
ATOM     20  H   UNL     1       3.536   2.739  18.549  0.00  0.00    +0.000 HD
BRANCH  19  21
ATOM     21  C   UNL     1       4.795   4.260  18.146  0.00  0.00    +0.000 A 
ATOM     22  C   UNL     1       5.384   4.903  19.248  0.00  0.00    +0.000 A 
ATOM     23  C   UNL     1       6.678   5.434  19.173  0.00  0.00    +0.000 A 
ATOM     24  C   UNL     1       7.407   5.318  17.993  0.00  0.00    +0.000 A 
ATOM     25  C   UNL     1       6.837   4.671  16.906  0.00  0.00    +0.000 A 
ATOM     26  F   UNL     1       7.538   4.549  15.771  0.00  0.00    +0.000 F 
ATOM     27  C   UNL     1       5.549   4.146  16.973  0.00  0.00    +0.000 A 
ENDBRANCH  19  21
BRANCH  17  29
ATOM     28  C   UNL     1       2.169   3.208  21.698  0.00  0.00    +0.000 C 
ATOM     29  C   UNL     1       1.577   2.830  20.348  0.00  0.00    +0.000 C 
ENDBRANCH  17  29
ENDBRANCH  16  18
ENDBRANCH   1  16
TORSDOF 6
ENDMDL
MODEL 6
REMARK VINA RESULT:      -7.7      2.570      4.407
REMARK  Name = 
REMARK  8 active torsions:
REMARK  status: ('A' for Active; 'I' for Inactive)
REMARK    1  A    between atoms: C_1  and  C_2
REMARK    2  A    between atoms: C_2  and  N_3
REMARK    3  A    between atoms: C_4  and  S_13
REMARK    4  A    between atoms: N_5  and  C_6
REMARK    5  A    between atoms: S_13  and  C_14
REMARK    6  A    between atoms: N_18  and  C_19
REMARK    7  A    between atoms: C_22  and  O_23
REMARK    8  A    between atoms: O_23  and  C_24
REMARK                            x       y       z     vdW  Elec       q    Type
REMARK                         _______ _______ _______ _____ _____    ______ ____
ROOT
ATOM      1  C   UNL     1       2.525   7.057  18.892  0.00  0.00    +0.000 C 
ATOM      2  C   UNL     1       2.101   6.869  20.330  0.00  0.00    +0.000 C 
ATOM      3  C   UNL     1       1.435   8.167  20.684  0.00  0.00    +0.000 C 
ATOM      4  O   UNL     1       1.021   8.372  21.819  0.00  0.00    +0.000 OA
ATOM      5  N   UNL     1       1.369   8.982  19.573  0.00  0.00    +0.000 N 
ATOM      6  C   UNL     1       1.988   8.403  18.483  0.00  0.00    +0.000 C 
ATOM      7  O   UNL     1       2.195   8.890  17.375  0.00  0.00    +0.000 OA
ENDROOT
BRANCH   5   8
ATOM      8  C   UNL     1       0.736  10.262  19.544  0.00  0.00    +0.000 A 
ATOM      9  C   UNL     1      -0.575  10.420  19.073  0.00  0.00    +0.000 A 
ATOM     10  C   UNL     1      -1.192  11.676  19.052  0.00  0.00    +0.000 A 
ATOM     11  C   UNL     1      -0.519  12.805  19.506  0.00  0.00    +0.000 A 
ATOM     12  C   UNL     1       0.791  12.678  19.953  0.00  0.00    +0.000 A 
ATOM     13  C   UNL     1       1.408  11.418  19.975  0.00  0.00    +0.000 A 
BRANCH  11  14
ATOM     14  O   UNL     1      -1.221  13.975  19.427  0.00  0.00    +0.000 OA
ATOM     15  C   UNL     1      -0.451  15.163  19.569  0.00  0.00    +0.000 C 
ENDBRANCH  11  14
ENDBRANCH   5   8
BRANCH   1  16
ATOM     16  S   UNL     1       2.049   5.729  17.760  0.00  0.00    +0.000 S 
BRANCH  16  18
ATOM     17  N   UNL     1       1.522   3.893  19.529  0.00  0.00    +0.000 NA
ATOM     18  C   UNL     1       2.406   4.243  18.669  0.00  0.00    +0.000 C 
ATOM     19  N   UNL     1       3.554   3.586  18.303  0.00  0.00    +0.000 N 
ATOM     20  H   UNL     1       3.600   2.610  18.562  0.00  0.00    +0.000 HD
BRANCH  19  21
ATOM     21  C   UNL     1       4.847   4.139  18.152  0.00  0.00    +0.000 A 
ATOM     22  C   UNL     1       5.443   4.108  16.880  0.00  0.00    +0.000 A 
ATOM     23  C   UNL     1       6.708   4.666  16.656  0.00  0.00    +0.000 A 
ATOM     24  C   UNL     1       7.392   5.274  17.704  0.00  0.00    +0.000 A 
ATOM     25  C   UNL     1       6.803   5.322  18.960  0.00  0.00    +0.000 A 
ATOM     26  F   UNL     1       7.454   5.914  19.970  0.00  0.00    +0.000 F 
ATOM     27  C   UNL     1       5.548   4.764  19.190  0.00  0.00    +0.000 A 
ENDBRANCH  19  21
BRANCH  17  29
ATOM     28  C   UNL     1       2.207   3.094  21.702  0.00  0.00    +0.000 C 
ATOM     29  C   UNL     1       1.631   2.698  20.351  0.00  0.00    +0.000 C 
ENDBRANCH  17  29
ENDBRANCH  16  18
ENDBRANCH   1  16
TORSDOF 6
ENDMDL
MODEL 7
REMARK VINA RESULT:      -7.7      2.852      4.804
REMARK  Name = 
REMARK  8 active torsions:
REMARK  status: ('A' for Active; 'I' for Inactive)
REMARK    1  A    between atoms: C_1  and  C_2
REMARK    2  A    between atoms: C_2  and  N_3
REMARK    3  A    between atoms: C_4  and  S_13
REMARK    4  A    between atoms: N_5  and  C_6
REMARK    5  A    between atoms: S_13  and  C_14
REMARK    6  A    between atoms: N_18  and  C_19
REMARK    7  A    between atoms: C_22  and  O_23
REMARK    8  A    between atoms: O_23  and  C_24
REMARK                            x       y       z     vdW  Elec       q    Type
REMARK                         _______ _______ _______ _____ _____    ______ ____
ROOT
ATOM      1  C   UNL     1       2.558   6.923  19.055  0.00  0.00    +0.000 C 
ATOM      2  C   UNL     1       1.979   6.957  20.451  0.00  0.00    +0.000 C 
ATOM      3  C   UNL     1       1.379   8.329  20.560  0.00  0.00    +0.000 C 
ATOM      4  O   UNL     1       0.871   8.710  21.608  0.00  0.00    +0.000 OA
ATOM      5  N   UNL     1       1.485   8.989  19.354  0.00  0.00    +0.000 N 
ATOM      6  C   UNL     1       2.165   8.231  18.421  0.00  0.00    +0.000 C 
ATOM      7  O   UNL     1       2.517   8.550  17.289  0.00  0.00    +0.000 OA
ENDROOT
BRANCH   5   8
ATOM      8  C   UNL     1       0.955  10.289  19.092  0.00  0.00    +0.000 A 
ATOM      9  C   UNL     1      -0.357  10.465  18.633  0.00  0.00    +0.000 A 
ATOM     10  C   UNL     1      -0.873  11.742  18.383  0.00  0.00    +0.000 A 
ATOM     11  C   UNL     1      -0.094  12.876  18.592  0.00  0.00    +0.000 A 
ATOM     12  C   UNL     1       1.219  12.725  19.021  0.00  0.00    +0.000 A 
ATOM     13  C   UNL     1       1.734  11.444  19.272  0.00  0.00    +0.000 A 
BRANCH  11  14
ATOM     14  O   UNL     1      -0.704  14.064  18.304  0.00  0.00    +0.000 OA
ATOM     15  C   UNL     1      -0.219  15.192  19.022  0.00  0.00    +0.000 C 
ENDBRANCH  11  14
ENDBRANCH   5   8
BRANCH   1  16
ATOM     16  S   UNL     1       2.100   5.485  18.058  0.00  0.00    +0.000 S 
BRANCH  16  18
ATOM     17  N   UNL     1       2.266   3.872  20.095  0.00  0.00    +0.000 NA
ATOM     18  C   UNL     1       2.789   4.109  18.948  0.00  0.00    +0.000 C 
ATOM     19  N   UNL     1       3.757   3.399  18.285  0.00  0.00    +0.000 N 
ATOM     20  H   UNL     1       3.917   2.458  18.620  0.00  0.00    +0.000 HD
BRANCH  19  21
ATOM     21  C   UNL     1       4.904   3.913  17.635  0.00  0.00    +0.000 A 
ATOM     22  C   UNL     1       5.882   4.556  18.414  0.00  0.00    +0.000 A 
ATOM     23  C   UNL     1       7.055   5.059  17.837  0.00  0.00    +0.000 A 
ATOM     24  C   UNL     1       7.270   4.917  16.470  0.00  0.00    +0.000 A 
ATOM     25  C   UNL     1       6.316   4.270  15.697  0.00  0.00    +0.000 A 
ATOM     26  F   UNL     1       6.524   4.122  14.382  0.00  0.00    +0.000 F 
ATOM     27  C   UNL     1       5.146   3.772  16.265  0.00  0.00    +0.000 A 
ENDBRANCH  19  21
BRANCH  17  29
ATOM     28  C   UNL     1       1.531   2.427  21.885  0.00  0.00    +0.000 C 
ATOM     29  C   UNL     1       2.685   2.779  20.958  0.00  0.00    +0.000 C 
ENDBRANCH  17  29
ENDBRANCH  16  18
ENDBRANCH   1  16
TORSDOF 6
ENDMDL
MODEL 8
REMARK VINA RESULT:      -7.5      3.795      8.803
REMARK  Name = 
REMARK  8 active torsions:
REMARK  status: ('A' for Active; 'I' for Inactive)
REMARK    1  A    between atoms: C_1  and  C_2
REMARK    2  A    between atoms: C_2  and  N_3
REMARK    3  A    between atoms: C_4  and  S_13
REMARK    4  A    between atoms: N_5  and  C_6
REMARK    5  A    between atoms: S_13  and  C_14
REMARK    6  A    between atoms: N_18  and  C_19
REMARK    7  A    between atoms: C_22  and  O_23
REMARK    8  A    between atoms: O_23  and  C_24
REMARK                            x       y       z     vdW  Elec       q    Type
REMARK                         _______ _______ _______ _____ _____    ______ ____
ROOT
ATOM      1  C   UNL     1       1.166   9.485  20.191  0.00  0.00    +0.000 C 
ATOM      2  C   UNL     1       1.452   9.931  18.776  0.00  0.00    +0.000 C 
ATOM      3  C   UNL     1       2.125   8.744  18.150  0.00  0.00    +0.000 C 
ATOM      4  O   UNL     1       2.547   8.795  17.001  0.00  0.00    +0.000 OA
ATOM      5  N   UNL     1       2.139   7.688  19.037  0.00  0.00    +0.000 N 
ATOM      6  C   UNL     1       1.597   8.044  20.256  0.00  0.00    +0.000 C 
ATOM      7  O   UNL     1       1.543   7.382  21.290  0.00  0.00    +0.000 OA
ENDROOT
BRANCH   5   8
ATOM      8  C   UNL     1       2.644   6.386  18.738  0.00  0.00    +0.000 A 
ATOM      9  C   UNL     1       1.873   5.444  18.043  0.00  0.00    +0.000 A 
ATOM     10  C   UNL     1       2.375   4.171  17.748  0.00  0.00    +0.000 A 
ATOM     11  C   UNL     1       3.661   3.808  18.133  0.00  0.00    +0.000 A 
ATOM     12  C   UNL     1       4.435   4.716  18.847  0.00  0.00    +0.000 A 
ATOM     13  C   UNL     1       3.931   5.992  19.141  0.00  0.00    +0.000 A 
BRANCH  11  14
ATOM     14  O   UNL     1       4.035   2.537  17.797  0.00  0.00    +0.000 OA
ATOM     15  C   UNL     1       3.358   1.496  18.490  0.00  0.00    +0.000 C 
ENDBRANCH  11  14
ENDBRANCH   5   8
BRANCH   1  16
ATOM     16  S   UNL     1      -0.531   9.745  20.762  0.00  0.00    +0.000 S 
BRANCH  16  18
ATOM     17  N   UNL     1      -0.366  11.995  22.062  0.00  0.00    +0.000 NA
ATOM     18  C   UNL     1      -0.665  11.511  20.913  0.00  0.00    +0.000 C 
ATOM     19  N   UNL     1      -1.004  12.180  19.764  0.00  0.00    +0.000 N 
ATOM     20  H   UNL     1      -0.769  13.163  19.745  0.00  0.00    +0.000 HD
BRANCH  19  21
ATOM     21  C   UNL     1      -2.077  11.892  18.888  0.00  0.00    +0.000 A 
ATOM     22  C   UNL     1      -3.390  12.075  19.356  0.00  0.00    +0.000 A 
ATOM     23  C   UNL     1      -4.495  11.838  18.530  0.00  0.00    +0.000 A 
ATOM     24  C   UNL     1      -4.302  11.423  17.217  0.00  0.00    +0.000 A 
ATOM     25  C   UNL     1      -3.009  11.255  16.743  0.00  0.00    +0.000 A 
ATOM     26  F   UNL     1      -2.817  10.864  15.475  0.00  0.00    +0.000 F 
ATOM     27  C   UNL     1      -1.905  11.484  17.561  0.00  0.00    +0.000 A 
ENDBRANCH  19  21
BRANCH  17  29
ATOM     28  C   UNL     1      -1.522  13.670  23.363  0.00  0.00    +0.000 C 
ATOM     29  C   UNL     1      -0.399  13.416  22.368  0.00  0.00    +0.000 C 
ENDBRANCH  17  29
ENDBRANCH  16  18
ENDBRANCH   1  16
TORSDOF 6
ENDMDL
MODEL 9
REMARK VINA RESULT:      -7.5      2.209      4.098
REMARK  Name = 
REMARK  8 active torsions:
REMARK  status: ('A' for Active; 'I' for Inactive)
REMARK    1  A    between atoms: C_1  and  C_2
REMARK    2  A    between atoms: C_2  and  N_3
REMARK    3  A    between atoms: C_4  and  S_13
REMARK    4  A    between atoms: N_5  and  C_6
REMARK    5  A    between atoms: S_13  and  C_14
REMARK    6  A    between atoms: N_18  and  C_19
REMARK    7  A    between atoms: C_22  and  O_23
REMARK    8  A    between atoms: O_23  and  C_24
REMARK                            x       y       z     vdW  Elec       q    Type
REMARK                         _______ _______ _______ _____ _____    ______ ____
ROOT
ATOM      1  C   UNL     1       2.954   6.568  18.285  0.00  0.00    +0.000 C 
ATOM      2  C   UNL     1       3.067   7.824  17.452  0.00  0.00    +0.000 C 
ATOM      3  C   UNL     1       2.255   8.835  18.209  0.00  0.00    +0.000 C 
ATOM      4  O   UNL     1       2.089   9.965  17.765  0.00  0.00    +0.000 OA
ATOM      5  N   UNL     1       1.809   8.290  19.394  0.00  0.00    +0.000 N 
ATOM      6  C   UNL     1       2.176   6.964  19.512  0.00  0.00    +0.000 C 
ATOM      7  O   UNL     1       1.863   6.160  20.386  0.00  0.00    +0.000 OA
ENDROOT
BRANCH   5   8
ATOM      8  C   UNL     1       1.065   9.003  20.384  0.00  0.00    +0.000 A 
ATOM      9  C   UNL     1       1.289   8.802  21.753  0.00  0.00    +0.000 A 
ATOM     10  C   UNL     1       0.561   9.507  22.718  0.00  0.00    +0.000 A 
ATOM     11  C   UNL     1      -0.404  10.435  22.341  0.00  0.00    +0.000 A 
ATOM     12  C   UNL     1      -0.663  10.632  20.990  0.00  0.00    +0.000 A 
ATOM     13  C   UNL     1       0.069   9.925  20.024  0.00  0.00    +0.000 A 
BRANCH  11  14
ATOM     14  O   UNL     1      -1.055  11.053  23.372  0.00  0.00    +0.000 OA
ATOM     15  C   UNL     1      -1.693  12.281  23.046  0.00  0.00    +0.000 C 
ENDBRANCH  11  14
ENDBRANCH   5   8
BRANCH   1  16
ATOM     16  S   UNL     1       4.519   5.747  18.671  0.00  0.00    +0.000 S 
BRANCH  16  18
ATOM     17  N   UNL     1       3.944   3.274  19.247  0.00  0.00    +0.000 NA
ATOM     18  C   UNL     1       4.221   4.043  18.260  0.00  0.00    +0.000 C 
ATOM     19  N   UNL     1       4.246   3.744  16.921  0.00  0.00    +0.000 N 
ATOM     20  H   UNL     1       3.771   2.893  16.654  0.00  0.00    +0.000 HD
BRANCH  19  21
ATOM     21  C   UNL     1       5.249   4.087  15.984  0.00  0.00    +0.000 A 
ATOM     22  C   UNL     1       6.423   4.701  16.456  0.00  0.00    +0.000 A 
ATOM     23  C   UNL     1       7.467   5.037  15.585  0.00  0.00    +0.000 A 
ATOM     24  C   UNL     1       7.356   4.753  14.228  0.00  0.00    +0.000 A 
ATOM     25  C   UNL     1       6.207   4.134  13.757  0.00  0.00    +0.000 A 
ATOM     26  F   UNL     1       6.099   3.850  12.452  0.00  0.00    +0.000 F 
ATOM     27  C   UNL     1       5.163   3.802  14.617  0.00  0.00    +0.000 A 
ENDBRANCH  19  21
BRANCH  17  29
ATOM     28  C   UNL     1       2.150   1.687  18.939  0.00  0.00    +0.000 C 
ATOM     29  C   UNL     1       3.653   1.856  19.102  0.00  0.00    +0.000 C 
ENDBRANCH  17  29
ENDBRANCH  16  18
ENDBRANCH   1  16
TORSDOF 6
ENDMDL
