MODEL 1
REMARK VINA RESULT:      -7.8      0.000      0.000
REMARK  Name = 
REMARK  2 active torsions:
REMARK  status: ('A' for Active; 'I' for Inactive)
REMARK    1  A    between atoms: C_4  and  C_5
REMARK    2  A    between atoms: C_5  and  N_6
REMARK                            x       y       z     vdW  Elec       q    Type
REMARK                         _______ _______ _______ _____ _____    ______ ____
ROOT
ATOM      1  N   UNL     1       2.661   6.917  18.419  0.00  0.00    +0.000 N 
ATOM      2  C   UNL     1       2.183   8.208  18.561  0.00  0.00    +0.000 A 
ATOM      3  N   UNL     1       2.351   9.016  17.515  0.00  0.00    +0.000 NA
ATOM      4  C   UNL     1       1.907  10.277  17.642  0.00  0.00    +0.000 A 
ATOM      5  C   UNL     1       1.226  10.757  18.745  0.00  0.00    +0.000 A 
ATOM      6  C   UNL     1       1.047   9.844  19.759  0.00  0.00    +0.000 A 
ATOM      7  N   UNL     1       1.550   8.586  19.678  0.00  0.00    +0.000 NA
ATOM      8  C   UNL     1       0.285  10.144  20.982  0.00  0.00    +0.000 A 
ATOM      9  C   UNL     1       0.049   9.152  21.956  0.00  0.00    +0.000 A 
ATOM     10  C   UNL     1      -0.663   9.435  23.120  0.00  0.00    +0.000 A 
ATOM     11  C   UNL     1      -1.141  10.715  23.284  0.00  0.00    +0.000 A 
ATOM     12  N   UNL     1      -0.946  11.696  22.382  0.00  0.00    +0.000 NA
ATOM     13  C   UNL     1      -0.237  11.408  21.257  0.00  0.00    +0.000 A 
ATOM     14  S   UNL     1       0.001  12.835  20.229  0.00  0.00    +0.000 S 
ATOM     15  C   UNL     1       0.695  12.146  18.720  0.00  0.00    +0.000 C 
ATOM     16  H   UNL     1       2.101   6.468  17.703  0.00  0.00    +0.000 HD
ENDROOT
BRANCH   1  17
ATOM     17  C   UNL     1       2.775   6.153  19.643  0.00  0.00    +0.000 C 
BRANCH  17  21
ATOM     18  C   UNL     1       1.056   2.213  19.177  0.00  0.00    +0.000 A 
ATOM     19  C   UNL     1       1.671   2.834  18.090  0.00  0.00    +0.000 A 
ATOM     20  C   UNL     1       2.221   4.111  18.235  0.00  0.00    +0.000 A 
ATOM     21  C   UNL     1       2.154   4.788  19.463  0.00  0.00    +0.000 A 
ATOM     22  C   UNL     1       1.532   4.144  20.545  0.00  0.00    +0.000 A 
ATOM     23  C   UNL     1       0.985   2.870  20.403  0.00  0.00    +0.000 A 
ENDBRANCH  17  21
ENDBRANCH   1  17
TORSDOF 2
ENDMDL
MODEL 2
REMARK VINA RESULT:      -7.8      0.140      1.032
REMARK  Name = 
REMARK  2 active torsions:
REMARK  status: ('A' for Active; 'I' for Inactive)
REMARK    1  A    between atoms: C_4  and  C_5
REMARK    2  A    between atoms: C_5  and  N_6
REMARK                            x       y       z     vdW  Elec       q    Type
REMARK                         _______ _______ _______ _____ _____    ______ ____
ROOT
ATOM      1  N   UNL     1       2.607   6.953  18.487  0.00  0.00    +0.000 N 
ATOM      2  C   UNL     1       2.136   8.250  18.605  0.00  0.00    +0.000 A 
ATOM      3  N   UNL     1       2.310   9.037  17.545  0.00  0.00    +0.000 NA
ATOM      4  C   UNL     1       1.872  10.303  17.649  0.00  0.00    +0.000 A 
ATOM      5  C   UNL     1       1.192  10.807  18.741  0.00  0.00    +0.000 A 
ATOM      6  C   UNL     1       1.006   9.913  19.771  0.00  0.00    +0.000 A 
ATOM      7  N   UNL     1       1.503   8.651  19.714  0.00  0.00    +0.000 NA
ATOM      8  C   UNL     1       0.244  10.239  20.987  0.00  0.00    +0.000 A 
ATOM      9  C   UNL     1       0.000   9.266  21.979  0.00  0.00    +0.000 A 
ATOM     10  C   UNL     1      -0.713   9.573  23.135  0.00  0.00    +0.000 A 
ATOM     11  C   UNL     1      -1.184  10.858  23.275  0.00  0.00    +0.000 A 
ATOM     12  N   UNL     1      -0.983  11.822  22.357  0.00  0.00    +0.000 NA
ATOM     13  C   UNL     1      -0.273  11.511  21.238  0.00  0.00    +0.000 A 
ATOM     14  S   UNL     1      -0.025  12.917  20.185  0.00  0.00    +0.000 S 
ATOM     15  C   UNL     1       0.669  12.198  18.691  0.00  0.00    +0.000 C 
ATOM     16  H   UNL     1       2.046   6.495  17.778  0.00  0.00    +0.000 HD
ENDROOT
BRANCH   1  17
ATOM     17  C   UNL     1       2.715   6.211  19.725  0.00  0.00    +0.000 C 
BRANCH  17  21
ATOM     18  C   UNL     1       0.906   2.316  19.216  0.00  0.00    +0.000 A 
ATOM     19  C   UNL     1       1.013   2.870  20.492  0.00  0.00    +0.000 A 
ATOM     20  C   UNL     1       1.603   4.126  20.661  0.00  0.00    +0.000 A 
ATOM     21  C   UNL     1       2.106   4.839  19.561  0.00  0.00    +0.000 A 
ATOM     22  C   UNL     1       1.988   4.264  18.285  0.00  0.00    +0.000 A 
ATOM     23  C   UNL     1       1.397   3.013  18.114  0.00  0.00    +0.000 A 
ENDBRANCH  17  21
ENDBRANCH   1  17
TORSDOF 2
ENDMDL
MODEL 3
REMARK VINA RESULT:      -7.5      2.821      7.055
REMARK  Name = 
REMARK  2 active torsions:
REMARK  status: ('A' for Active; 'I' for Inactive)
REMARK    1  A    between atoms: C_4  and  C_5
REMARK    2  A    between atoms: C_5  and  N_6
REMARK                            x       y       z     vdW  Elec       q    Type
REMARK                         _______ _______ _______ _____ _____    ______ ____
ROOT
ATOM      1  N   UNL     1       1.296   9.379  19.891  0.00  0.00    +0.000 N 
ATOM      2  C   UNL     1       1.965   8.348  19.252  0.00  0.00    +0.000 A 
ATOM      3  N   UNL     1       2.606   8.669  18.130  0.00  0.00    +0.000 NA
ATOM      4  C   UNL     1       3.247   7.677  17.490  0.00  0.00    +0.000 A 
ATOM      5  C   UNL     1       3.346   6.382  17.960  0.00  0.00    +0.000 A 
ATOM      6  C   UNL     1       2.701   6.146  19.154  0.00  0.00    +0.000 A 
ATOM      7  N   UNL     1       1.990   7.118  19.779  0.00  0.00    +0.000 NA
ATOM      8  C   UNL     1       2.752   4.851  19.850  0.00  0.00    +0.000 A 
ATOM      9  C   UNL     1       2.152   4.678  21.115  0.00  0.00    +0.000 A 
ATOM     10  C   UNL     1       2.190   3.451  21.772  0.00  0.00    +0.000 A 
ATOM     11  C   UNL     1       2.844   2.411  21.152  0.00  0.00    +0.000 A 
ATOM     12  N   UNL     1       3.436   2.525  19.948  0.00  0.00    +0.000 NA
ATOM     13  C   UNL     1       3.379   3.726  19.312  0.00  0.00    +0.000 A 
ATOM     14  S   UNL     1       4.127   3.671  17.703  0.00  0.00    +0.000 S 
ATOM     15  C   UNL     1       4.172   5.399  17.209  0.00  0.00    +0.000 C 
ATOM     16  H   UNL     1       1.998  10.033  20.218  0.00  0.00    +0.000 HD
ENDROOT
BRANCH   1  17
ATOM     17  C   UNL     1       0.347   8.976  20.906  0.00  0.00    +0.000 C 
BRANCH  17  21
ATOM     18  C   UNL     1      -1.944  12.360  22.321  0.00  0.00    +0.000 A 
ATOM     19  C   UNL     1      -1.621  12.258  20.968  0.00  0.00    +0.000 A 
ATOM     20  C   UNL     1      -0.874  11.169  20.508  0.00  0.00    +0.000 A 
ATOM     21  C   UNL     1      -0.431  10.175  21.394  0.00  0.00    +0.000 A 
ATOM     22  C   UNL     1      -0.768  10.296  22.752  0.00  0.00    +0.000 A 
ATOM     23  C   UNL     1      -1.515  11.379  23.213  0.00  0.00    +0.000 A 
ENDBRANCH  17  21
ENDBRANCH   1  17
TORSDOF 2
ENDMDL
MODEL 4
REMARK VINA RESULT:      -7.4      2.821      7.125
REMARK  Name = 
REMARK  2 active torsions:
REMARK  status: ('A' for Active; 'I' for Inactive)
REMARK    1  A    between atoms: C_4  and  C_5
REMARK    2  A    between atoms: C_5  and  N_6
REMARK                            x       y       z     vdW  Elec       q    Type
REMARK                         _______ _______ _______ _____ _____    ______ ____
ROOT
ATOM      1  N   UNL     1       1.275   9.378  19.861  0.00  0.00    +0.000 N 
ATOM      2  C   UNL     1       1.959   8.351  19.232  0.00  0.00    +0.000 A 
ATOM      3  N   UNL     1       2.614   8.677  18.119  0.00  0.00    +0.000 NA
ATOM      4  C   UNL     1       3.270   7.689  17.488  0.00  0.00    +0.000 A 
ATOM      5  C   UNL     1       3.371   6.394  17.959  0.00  0.00    +0.000 A 
ATOM      6  C   UNL     1       2.712   6.154  19.144  0.00  0.00    +0.000 A 
ATOM      7  N   UNL     1       1.985   7.121  19.759  0.00  0.00    +0.000 NA
ATOM      8  C   UNL     1       2.761   4.859  19.840  0.00  0.00    +0.000 A 
ATOM      9  C   UNL     1       2.145   4.682  21.096  0.00  0.00    +0.000 A 
ATOM     10  C   UNL     1       2.181   3.454  21.754  0.00  0.00    +0.000 A 
ATOM     11  C   UNL     1       2.850   2.419  21.143  0.00  0.00    +0.000 A 
ATOM     12  N   UNL     1       3.459   2.537  19.947  0.00  0.00    +0.000 NA
ATOM     13  C   UNL     1       3.403   3.739  19.310  0.00  0.00    +0.000 A 
ATOM     14  S   UNL     1       4.174   3.689  17.713  0.00  0.00    +0.000 S 
ATOM     15  C   UNL     1       4.214   5.418  17.220  0.00  0.00    +0.000 C 
ATOM     16  H   UNL     1       1.967  10.036  20.199  0.00  0.00    +0.000 HD
ENDROOT
BRANCH   1  17
ATOM     17  C   UNL     1       0.314   8.968  20.863  0.00  0.00    +0.000 C 
BRANCH  17  21
ATOM     18  C   UNL     1      -1.844  12.446  22.258  0.00  0.00    +0.000 A 
ATOM     19  C   UNL     1      -1.437  11.471  23.168  0.00  0.00    +0.000 A 
ATOM     20  C   UNL     1      -0.746  10.342  22.720  0.00  0.00    +0.000 A 
ATOM     21  C   UNL     1      -0.463  10.165  21.357  0.00  0.00    +0.000 A 
ATOM     22  C   UNL     1      -0.881  11.159  20.457  0.00  0.00    +0.000 A 
ATOM     23  C   UNL     1      -1.568  12.288  20.901  0.00  0.00    +0.000 A 
ENDBRANCH  17  21
ENDBRANCH   1  17
TORSDOF 2
ENDMDL
MODEL 5
REMARK VINA RESULT:      -7.4      0.945      1.068
REMARK  Name = 
REMARK  2 active torsions:
REMARK  status: ('A' for Active; 'I' for Inactive)
REMARK    1  A    between atoms: C_4  and  C_5
REMARK    2  A    between atoms: C_5  and  N_6
REMARK                            x       y       z     vdW  Elec       q    Type
REMARK                         _______ _______ _______ _____ _____    ______ ____
ROOT
ATOM      1  N   UNL     1       2.514   6.698  18.232  0.00  0.00    +0.000 N 
ATOM      2  C   UNL     1       2.171   8.023  18.444  0.00  0.00    +0.000 A 
ATOM      3  N   UNL     1       2.428   8.863  17.443  0.00  0.00    +0.000 NA
ATOM      4  C   UNL     1       2.116  10.155  17.639  0.00  0.00    +0.000 A 
ATOM      5  C   UNL     1       1.482  10.643  18.765  0.00  0.00    +0.000 A 
ATOM      6  C   UNL     1       1.203   9.700  19.729  0.00  0.00    +0.000 A 
ATOM      7  N   UNL     1       1.574   8.403  19.580  0.00  0.00    +0.000 NA
ATOM      8  C   UNL     1       0.470  10.011  20.966  0.00  0.00    +0.000 A 
ATOM      9  C   UNL     1       0.126   8.998  21.885  0.00  0.00    +0.000 A 
ATOM     10  C   UNL     1      -0.560   9.290  23.061  0.00  0.00    +0.000 A 
ATOM     11  C   UNL     1      -0.904  10.602  23.294  0.00  0.00    +0.000 A 
ATOM     12  N   UNL     1      -0.603  11.605  22.447  0.00  0.00    +0.000 NA
ATOM     13  C   UNL     1       0.079  11.306  21.308  0.00  0.00    +0.000 A 
ATOM     14  S   UNL     1       0.469  12.754  20.359  0.00  0.00    +0.000 S 
ATOM     15  C   UNL     1       1.098  12.079  18.816  0.00  0.00    +0.000 C 
ATOM     16  H   UNL     1       1.915   6.348  17.494  0.00  0.00    +0.000 HD
ENDROOT
BRANCH   1  17
ATOM     17  C   UNL     1       2.541   5.862  19.414  0.00  0.00    +0.000 C 
BRANCH  17  21
ATOM     18  C   UNL     1       3.328   1.763  18.280  0.00  0.00    +0.000 A 
ATOM     19  C   UNL     1       2.441   2.533  17.528  0.00  0.00    +0.000 A 
ATOM     20  C   UNL     1       2.179   3.856  17.896  0.00  0.00    +0.000 A 
ATOM     21  C   UNL     1       2.789   4.423  19.025  0.00  0.00    +0.000 A 
ATOM     22  C   UNL     1       3.680   3.632  19.768  0.00  0.00    +0.000 A 
ATOM     23  C   UNL     1       3.945   2.313  19.402  0.00  0.00    +0.000 A 
ENDBRANCH  17  21
ENDBRANCH   1  17
TORSDOF 2
ENDMDL
MODEL 6
REMARK VINA RESULT:      -7.4      4.681      7.341
REMARK  Name = 
REMARK  2 active torsions:
REMARK  status: ('A' for Active; 'I' for Inactive)
REMARK    1  A    between atoms: C_4  and  C_5
REMARK    2  A    between atoms: C_5  and  N_6
REMARK                            x       y       z     vdW  Elec       q    Type
REMARK                         _______ _______ _______ _____ _____    ______ ____
ROOT
ATOM      1  N   UNL     1       6.071   6.408  15.681  0.00  0.00    +0.000 N 
ATOM      2  C   UNL     1       5.097   6.392  16.665  0.00  0.00    +0.000 A 
ATOM      3  N   UNL     1       4.573   7.572  16.994  0.00  0.00    +0.000 NA
ATOM      4  C   UNL     1       3.638   7.575  17.958  0.00  0.00    +0.000 A 
ATOM      5  C   UNL     1       3.137   6.438  18.563  0.00  0.00    +0.000 A 
ATOM      6  C   UNL     1       3.692   5.256  18.127  0.00  0.00    +0.000 A 
ATOM      7  N   UNL     1       4.688   5.237  17.205  0.00  0.00    +0.000 NA
ATOM      8  C   UNL     1       3.240   3.938  18.598  0.00  0.00    +0.000 A 
ATOM      9  C   UNL     1       3.774   2.748  18.060  0.00  0.00    +0.000 A 
ATOM     10  C   UNL     1       3.356   1.498  18.510  0.00  0.00    +0.000 A 
ATOM     11  C   UNL     1       2.393   1.459  19.493  0.00  0.00    +0.000 A 
ATOM     12  N   UNL     1       1.849   2.565  20.036  0.00  0.00    +0.000 NA
ATOM     13  C   UNL     1       2.277   3.779  19.596  0.00  0.00    +0.000 A 
ATOM     14  S   UNL     1       1.524   5.120  20.482  0.00  0.00    +0.000 S 
ATOM     15  C   UNL     1       2.027   6.569  19.544  0.00  0.00    +0.000 C 
ATOM     16  H   UNL     1       5.621   6.697  14.820  0.00  0.00    +0.000 HD
ENDROOT
BRANCH   1  17
ATOM     17  C   UNL     1       6.858   5.200  15.559  0.00  0.00    +0.000 C 
BRANCH  17  21
ATOM     18  C   UNL     1       6.402   3.616  11.561  0.00  0.00    +0.000 A 
ATOM     19  C   UNL     1       5.495   3.255  12.558  0.00  0.00    +0.000 A 
ATOM     20  C   UNL     1       5.644   3.758  13.853  0.00  0.00    +0.000 A 
ATOM     21  C   UNL     1       6.705   4.620  14.173  0.00  0.00    +0.000 A 
ATOM     22  C   UNL     1       7.606   4.973  13.154  0.00  0.00    +0.000 A 
ATOM     23  C   UNL     1       7.458   4.474  11.861  0.00  0.00    +0.000 A 
ENDBRANCH  17  21
ENDBRANCH   1  17
TORSDOF 2
ENDMDL
MODEL 7
REMARK VINA RESULT:      -7.4      0.918      1.271
REMARK  Name = 
REMARK  2 active torsions:
REMARK  status: ('A' for Active; 'I' for Inactive)
REMARK    1  A    between atoms: C_4  and  C_5
REMARK    2  A    between atoms: C_5  and  N_6
REMARK                            x       y       z     vdW  Elec       q    Type
REMARK                         _______ _______ _______ _____ _____    ______ ____
ROOT
ATOM      1  N   UNL     1       2.552   6.669  18.272  0.00  0.00    +0.000 N 
ATOM      2  C   UNL     1       2.180   7.989  18.468  0.00  0.00    +0.000 A 
ATOM      3  N   UNL     1       2.434   8.827  17.465  0.00  0.00    +0.000 NA
ATOM      4  C   UNL     1       2.094  10.114  17.645  0.00  0.00    +0.000 A 
ATOM      5  C   UNL     1       1.434  10.597  18.759  0.00  0.00    +0.000 A 
ATOM      6  C   UNL     1       1.160   9.656  19.725  0.00  0.00    +0.000 A 
ATOM      7  N   UNL     1       1.559   8.365  19.592  0.00  0.00    +0.000 NA
ATOM      8  C   UNL     1       0.402   9.962  20.949  0.00  0.00    +0.000 A 
ATOM      9  C   UNL     1       0.065   8.949  21.871  0.00  0.00    +0.000 A 
ATOM     10  C   UNL     1      -0.644   9.236  23.035  0.00  0.00    +0.000 A 
ATOM     11  C   UNL     1      -1.017  10.543  23.253  0.00  0.00    +0.000 A 
ATOM     12  N   UNL     1      -0.725  11.545  22.402  0.00  0.00    +0.000 NA
ATOM     13  C   UNL     1      -0.020  11.251  21.276  0.00  0.00    +0.000 A 
ATOM     14  S   UNL     1       0.355  12.699  20.321  0.00  0.00    +0.000 S 
ATOM     15  C   UNL     1       1.020  12.025  18.792  0.00  0.00    +0.000 C 
ATOM     16  H   UNL     1       1.971   6.302  17.527  0.00  0.00    +0.000 HD
ENDROOT
BRANCH   1  17
ATOM     17  C   UNL     1       2.579   5.843  19.461  0.00  0.00    +0.000 C 
BRANCH  17  21
ATOM     18  C   UNL     1       3.266   1.702  18.420  0.00  0.00    +0.000 A 
ATOM     19  C   UNL     1       4.051   2.311  19.398  0.00  0.00    +0.000 A 
ATOM     20  C   UNL     1       3.837   3.651  19.732  0.00  0.00    +0.000 A 
ATOM     21  C   UNL     1       2.845   4.404  19.085  0.00  0.00    +0.000 A 
ATOM     22  C   UNL     1       2.064   3.772  18.104  0.00  0.00    +0.000 A 
ATOM     23  C   UNL     1       2.273   2.435  17.772  0.00  0.00    +0.000 A 
ENDBRANCH  17  21
ENDBRANCH   1  17
TORSDOF 2
ENDMDL
MODEL 8
REMARK VINA RESULT:      -7.4      4.651      7.283
REMARK  Name = 
REMARK  2 active torsions:
REMARK  status: ('A' for Active; 'I' for Inactive)
REMARK    1  A    between atoms: C_4  and  C_5
REMARK    2  A    between atoms: C_5  and  N_6
REMARK                            x       y       z     vdW  Elec       q    Type
REMARK                         _______ _______ _______ _____ _____    ______ ____
ROOT
ATOM      1  N   UNL     1       6.075   6.474  15.758  0.00  0.00    +0.000 N 
ATOM      2  C   UNL     1       5.094   6.436  16.734  0.00  0.00    +0.000 A 
ATOM      3  N   UNL     1       4.569   7.609  17.086  0.00  0.00    +0.000 NA
ATOM      4  C   UNL     1       3.627   7.592  18.043  0.00  0.00    +0.000 A 
ATOM      5  C   UNL     1       3.120   6.443  18.619  0.00  0.00    +0.000 A 
ATOM      6  C   UNL     1       3.677   5.270  18.161  0.00  0.00    +0.000 A 
ATOM      7  N   UNL     1       4.680   5.270  17.246  0.00  0.00    +0.000 NA
ATOM      8  C   UNL     1       3.221   3.941  18.599  0.00  0.00    +0.000 A 
ATOM      9  C   UNL     1       3.757   2.764  18.038  0.00  0.00    +0.000 A 
ATOM     10  C   UNL     1       3.335   1.504  18.458  0.00  0.00    +0.000 A 
ATOM     11  C   UNL     1       2.365   1.445  19.432  0.00  0.00    +0.000 A 
ATOM     12  N   UNL     1       1.818   2.539  19.996  0.00  0.00    +0.000 NA
ATOM     13  C   UNL     1       2.250   3.762  19.586  0.00  0.00    +0.000 A 
ATOM     14  S   UNL     1       1.493   5.083  20.496  0.00  0.00    +0.000 S 
ATOM     15  C   UNL     1       2.004   6.552  19.595  0.00  0.00    +0.000 C 
ATOM     16  H   UNL     1       5.632   6.782  14.900  0.00  0.00    +0.000 HD
ENDROOT
BRANCH   1  17
ATOM     17  C   UNL     1       6.862   5.267  15.615  0.00  0.00    +0.000 C 
BRANCH  17  21
ATOM     18  C   UNL     1       6.407   3.575  11.661  0.00  0.00    +0.000 A 
ATOM     19  C   UNL     1       7.450   4.464  11.919  0.00  0.00    +0.000 A 
ATOM     20  C   UNL     1       7.595   5.019  13.194  0.00  0.00    +0.000 A 
ATOM     21  C   UNL     1       6.696   4.703  14.224  0.00  0.00    +0.000 A 
ATOM     22  C   UNL     1       5.654   3.803  13.944  0.00  0.00    +0.000 A 
ATOM     23  C   UNL     1       5.508   3.247  12.674  0.00  0.00    +0.000 A 
ENDBRANCH  17  21
ENDBRANCH   1  17
TORSDOF 2
ENDMDL
MODEL 9
REMARK VINA RESULT:      -7.2      4.850      7.453
REMARK  Name = 
REMARK  2 active torsions:
REMARK  status: ('A' for Active; 'I' for Inactive)
REMARK    1  A    between atoms: C_4  and  C_5
REMARK    2  A    between atoms: C_5  and  N_6
REMARK                            x       y       z     vdW  Elec       q    Type
REMARK                         _______ _______ _______ _____ _____    ______ ____
ROOT
ATOM      1  N   UNL     1       6.174   5.661  14.649  0.00  0.00    +0.000 N 
ATOM      2  C   UNL     1       5.362   5.911  15.743  0.00  0.00    +0.000 A 
ATOM      3  N   UNL     1       5.144   7.193  16.031  0.00  0.00    +0.000 NA
ATOM      4  C   UNL     1       4.371   7.453  17.099  0.00  0.00    +0.000 A 
ATOM      5  C   UNL     1       3.735   6.488  17.856  0.00  0.00    +0.000 A 
ATOM      6  C   UNL     1       3.969   5.191  17.458  0.00  0.00    +0.000 A 
ATOM      7  N   UNL     1       4.803   4.905  16.426  0.00  0.00    +0.000 NA
ATOM      8  C   UNL     1       3.325   4.030  18.092  0.00  0.00    +0.000 A 
ATOM      9  C   UNL     1       3.523   2.724  17.596  0.00  0.00    +0.000 A 
ATOM     10  C   UNL     1       2.923   1.622  18.199  0.00  0.00    +0.000 A 
ATOM     11  C   UNL     1       2.118   1.848  19.292  0.00  0.00    +0.000 A 
ATOM     12  N   UNL     1       1.893   3.074  19.802  0.00  0.00    +0.000 NA
ATOM     13  C   UNL     1       2.497   4.140  19.210  0.00  0.00    +0.000 A 
ATOM     14  S   UNL     1       2.166   5.660  20.064  0.00  0.00    +0.000 S 
ATOM     15  C   UNL     1       2.823   6.911  18.951  0.00  0.00    +0.000 C 
ATOM     16  H   UNL     1       5.679   5.990  13.828  0.00  0.00    +0.000 HD
ENDROOT
BRANCH   1  17
ATOM     17  C   UNL     1       6.671   4.306  14.535  0.00  0.00    +0.000 C 
BRANCH  17  21
ATOM     18  C   UNL     1       5.113   2.481  10.937  0.00  0.00    +0.000 A 
ATOM     19  C   UNL     1       4.280   3.267  11.733  0.00  0.00    +0.000 A 
ATOM     20  C   UNL     1       4.778   3.852  12.901  0.00  0.00    +0.000 A 
ATOM     21  C   UNL     1       6.110   3.651  13.295  0.00  0.00    +0.000 A 
ATOM     22  C   UNL     1       6.932   2.858  12.479  0.00  0.00    +0.000 A 
ATOM     23  C   UNL     1       6.439   2.275  11.313  0.00  0.00    +0.000 A 
ENDBRANCH  17  21
ENDBRANCH   1  17
TORSDOF 2
ENDMDL
