MODEL 1
REMARK VINA RESULT:      -7.8      0.000      0.000
REMARK  Name = 
REMARK  3 active torsions:
REMARK  status: ('A' for Active; 'I' for Inactive)
REMARK    1  A    between atoms: C_1  and  C_2
REMARK    2  A    between atoms: C_10  and  C_11
REMARK    3  A    between atoms: C_14  and  N_15
REMARK                            x       y       z     vdW  Elec       q    Type
REMARK                         _______ _______ _______ _____ _____    ______ ____
ROOT
ATOM      1  C   UNL     1       5.235   5.212  18.161  0.00  0.00    +0.000 A 
ATOM      2  C   UNL     1       6.378   4.807  18.863  0.00  0.00    +0.000 A 
ATOM      3  S   UNL     1       7.684   4.791  17.801  0.00  0.00    +0.000 S 
ATOM      4  C   UNL     1       6.766   5.326  16.508  0.00  0.00    +0.000 A 
ATOM      5  N   UNL     1       5.474   5.487  16.853  0.00  0.00    +0.000 NA
ENDROOT
BRANCH   1  15
ATOM      6  C   UNL     1       3.197   7.729  17.829  0.00  0.00    +0.000 C 
ATOM      7  C   UNL     1       2.977   6.463  18.590  0.00  0.00    +0.000 A 
ATOM      8  N   UNL     1       1.818   6.204  19.239  0.00  0.00    +0.000 N 
ATOM      9  C   UNL     1       1.947   4.990  19.792  0.00  0.00    +0.000 A 
ATOM     10  C   UNL     1       0.992   4.309  20.545  0.00  0.00    +0.000 A 
ATOM     11  C   UNL     1       1.321   3.034  21.033  0.00  0.00    +0.000 A 
ATOM     12  C   UNL     1       2.588   2.476  20.766  0.00  0.00    +0.000 A 
ATOM     13  C   UNL     1       3.533   3.185  20.002  0.00  0.00    +0.000 A 
ATOM     14  C   UNL     1       3.181   4.453  19.516  0.00  0.00    +0.000 A 
ATOM     15  C   UNL     1       3.869   5.383  18.733  0.00  0.00    +0.000 A 
ATOM     16  H   UNL     1       0.980   6.826  19.293  0.00  0.00    +0.000 HD
ENDBRANCH   1  15
BRANCH   4  17
ATOM     17  N   UNL     1       7.300   5.571  15.215  0.00  0.00    +0.000 NA
ATOM     18  C   UNL     1       7.132   4.869  14.137  0.00  0.00    +0.000 C 
ATOM     19  N   UNL     1       6.264   3.740  14.070  0.00  0.00    +0.000 N 
ATOM     20  N   UNL     1       7.800   5.278  12.957  0.00  0.00    +0.000 N 
ATOM     21  H   UNL     1       5.659   3.437  14.840  0.00  0.00    +0.000 HD
ATOM     22  H   UNL     1       6.166   3.228  13.182  0.00  0.00    +0.000 HD
ATOM     23  H   UNL     1       8.417   6.102  12.963  0.00  0.00    +0.000 HD
ATOM     24  H   UNL     1       7.660   4.763  12.075  0.00  0.00    +0.000 HD
ENDBRANCH   4  17
TORSDOF 2
ENDMDL
MODEL 2
REMARK VINA RESULT:      -7.4      0.783      1.058
REMARK  Name = 
REMARK  3 active torsions:
REMARK  status: ('A' for Active; 'I' for Inactive)
REMARK    1  A    between atoms: C_1  and  C_2
REMARK    2  A    between atoms: C_10  and  C_11
REMARK    3  A    between atoms: C_14  and  N_15
REMARK                            x       y       z     vdW  Elec       q    Type
REMARK                         _______ _______ _______ _____ _____    ______ ____
ROOT
ATOM      1  C   UNL     1       5.024   4.902  17.663  0.00  0.00    +0.000 A 
ATOM      2  C   UNL     1       6.359   5.013  18.075  0.00  0.00    +0.000 A 
ATOM      3  S   UNL     1       7.356   4.539  16.805  0.00  0.00    +0.000 S 
ATOM      4  C   UNL     1       6.069   4.245  15.775  0.00  0.00    +0.000 A 
ATOM      5  N   UNL     1       4.888   4.466  16.385  0.00  0.00    +0.000 NA
ENDROOT
BRANCH   1  15
ATOM      6  C   UNL     1       3.338   7.685  17.718  0.00  0.00    +0.000 C 
ATOM      7  C   UNL     1       3.083   6.442  18.504  0.00  0.00    +0.000 A 
ATOM      8  N   UNL     1       2.036   6.328  19.354  0.00  0.00    +0.000 N 
ATOM      9  C   UNL     1       2.090   5.093  19.872  0.00  0.00    +0.000 A 
ATOM     10  C   UNL     1       1.201   4.530  20.786  0.00  0.00    +0.000 A 
ATOM     11  C   UNL     1       1.429   3.209  21.201  0.00  0.00    +0.000 A 
ATOM     12  C   UNL     1       2.534   2.487  20.705  0.00  0.00    +0.000 A 
ATOM     13  C   UNL     1       3.415   3.079  19.782  0.00  0.00    +0.000 A 
ATOM     14  C   UNL     1       3.165   4.397  19.372  0.00  0.00    +0.000 A 
ATOM     15  C   UNL     1       3.824   5.244  18.478  0.00  0.00    +0.000 A 
ATOM     16  H   UNL     1       1.319   7.059  19.563  0.00  0.00    +0.000 HD
ENDBRANCH   1  15
BRANCH   4  17
ATOM     17  N   UNL     1       6.224   3.814  14.430  0.00  0.00    +0.000 NA
ATOM     18  C   UNL     1       6.914   4.378  13.488  0.00  0.00    +0.000 C 
ATOM     19  N   UNL     1       7.735   5.524  13.700  0.00  0.00    +0.000 N 
ATOM     20  N   UNL     1       6.892   3.793  12.198  0.00  0.00    +0.000 N 
ATOM     21  H   UNL     1       7.897   5.948  14.620  0.00  0.00    +0.000 HD
ATOM     22  H   UNL     1       8.265   5.921  12.912  0.00  0.00    +0.000 HD
ATOM     23  H   UNL     1       6.329   2.952  12.013  0.00  0.00    +0.000 HD
ATOM     24  H   UNL     1       7.457   4.196  11.435  0.00  0.00    +0.000 HD
ENDBRANCH   4  17
TORSDOF 2
ENDMDL
MODEL 3
REMARK VINA RESULT:      -7.3      2.584      6.450
REMARK  Name = 
REMARK  3 active torsions:
REMARK  status: ('A' for Active; 'I' for Inactive)
REMARK    1  A    between atoms: C_1  and  C_2
REMARK    2  A    between atoms: C_10  and  C_11
REMARK    3  A    between atoms: C_14  and  N_15
REMARK                            x       y       z     vdW  Elec       q    Type
REMARK                         _______ _______ _______ _____ _____    ______ ____
ROOT
ATOM      1  C   UNL     1       4.430   5.451  16.864  0.00  0.00    +0.000 A 
ATOM      2  C   UNL     1       3.941   6.575  17.544  0.00  0.00    +0.000 A 
ATOM      3  S   UNL     1       2.574   6.125  18.415  0.00  0.00    +0.000 S 
ATOM      4  C   UNL     1       2.670   4.526  17.930  0.00  0.00    +0.000 A 
ATOM      5  N   UNL     1       3.703   4.327  17.088  0.00  0.00    +0.000 NA
ENDROOT
BRANCH   1  15
ATOM      6  C   UNL     1       7.389   6.676  17.449  0.00  0.00    +0.000 C 
ATOM      7  C   UNL     1       6.926   5.928  16.242  0.00  0.00    +0.000 A 
ATOM      8  N   UNL     1       7.755   5.640  15.211  0.00  0.00    +0.000 N 
ATOM      9  C   UNL     1       7.033   4.953  14.315  0.00  0.00    +0.000 A 
ATOM     10  C   UNL     1       7.481   4.435  13.101  0.00  0.00    +0.000 A 
ATOM     11  C   UNL     1       6.564   3.733  12.303  0.00  0.00    +0.000 A 
ATOM     12  C   UNL     1       5.230   3.571  12.729  0.00  0.00    +0.000 A 
ATOM     13  C   UNL     1       4.804   4.102  13.960  0.00  0.00    +0.000 A 
ATOM     14  C   UNL     1       5.738   4.792  14.746  0.00  0.00    +0.000 A 
ATOM     15  C   UNL     1       5.641   5.409  15.996  0.00  0.00    +0.000 A 
ATOM     16  H   UNL     1       8.765   5.896  15.131  0.00  0.00    +0.000 HD
ENDBRANCH   1  15
BRANCH   4  17
ATOM     17  N   UNL     1       1.765   3.520  18.361  0.00  0.00    +0.000 NA
ATOM     18  C   UNL     1       1.955   2.237  18.393  0.00  0.00    +0.000 C 
ATOM     19  N   UNL     1       3.202   1.626  18.069  0.00  0.00    +0.000 N 
ATOM     20  N   UNL     1       0.890   1.410  18.824  0.00  0.00    +0.000 N 
ATOM     21  H   UNL     1       4.057   2.150  17.854  0.00  0.00    +0.000 HD
ATOM     22  H   UNL     1       3.293   0.602  18.122  0.00  0.00    +0.000 HD
ATOM     23  H   UNL     1      -0.018   1.819  19.087  0.00  0.00    +0.000 HD
ATOM     24  H   UNL     1       1.019   0.390  18.894  0.00  0.00    +0.000 HD
ENDBRANCH   4  17
TORSDOF 2
ENDMDL
MODEL 4
REMARK VINA RESULT:      -7.3      1.998      3.819
REMARK  Name = 
REMARK  3 active torsions:
REMARK  status: ('A' for Active; 'I' for Inactive)
REMARK    1  A    between atoms: C_1  and  C_2
REMARK    2  A    between atoms: C_10  and  C_11
REMARK    3  A    between atoms: C_14  and  N_15
REMARK                            x       y       z     vdW  Elec       q    Type
REMARK                         _______ _______ _______ _____ _____    ______ ____
ROOT
ATOM      1  C   UNL     1       3.308   5.313  18.153  0.00  0.00    +0.000 A 
ATOM      2  C   UNL     1       3.231   3.916  18.088  0.00  0.00    +0.000 A 
ATOM      3  S   UNL     1       4.260   3.376  16.871  0.00  0.00    +0.000 S 
ATOM      4  C   UNL     1       4.787   4.920  16.497  0.00  0.00    +0.000 A 
ATOM      5  N   UNL     1       4.173   5.849  17.254  0.00  0.00    +0.000 NA
ENDROOT
BRANCH   1  15
ATOM      6  C   UNL     1       2.300   4.622  21.170  0.00  0.00    +0.000 C 
ATOM      7  C   UNL     1       2.140   5.902  20.419  0.00  0.00    +0.000 A 
ATOM      8  N   UNL     1       1.543   6.988  20.965  0.00  0.00    +0.000 N 
ATOM      9  C   UNL     1       1.585   7.957  20.040  0.00  0.00    +0.000 A 
ATOM     10  C   UNL     1       1.100   9.258  20.171  0.00  0.00    +0.000 A 
ATOM     11  C   UNL     1       1.248  10.131  19.081  0.00  0.00    +0.000 A 
ATOM     12  C   UNL     1       1.865   9.687  17.893  0.00  0.00    +0.000 A 
ATOM     13  C   UNL     1       2.346   8.370  17.788  0.00  0.00    +0.000 A 
ATOM     14  C   UNL     1       2.197   7.516  18.892  0.00  0.00    +0.000 A 
ATOM     15  C   UNL     1       2.573   6.189  19.110  0.00  0.00    +0.000 A 
ATOM     16  H   UNL     1       1.136   7.061  21.924  0.00  0.00    +0.000 HD
ENDBRANCH   1  15
BRANCH   4  17
ATOM     17  N   UNL     1       5.760   5.196  15.499  0.00  0.00    +0.000 NA
ATOM     18  C   UNL     1       7.048   5.065  15.584  0.00  0.00    +0.000 C 
ATOM     19  N   UNL     1       7.702   4.509  16.723  0.00  0.00    +0.000 N 
ATOM     20  N   UNL     1       7.837   5.443  14.471  0.00  0.00    +0.000 N 
ATOM     21  H   UNL     1       7.207   4.110  17.528  0.00  0.00    +0.000 HD
ATOM     22  H   UNL     1       8.728   4.425  16.727  0.00  0.00    +0.000 HD
ATOM     23  H   UNL     1       7.398   5.827  13.623  0.00  0.00    +0.000 HD
ATOM     24  H   UNL     1       8.861   5.319  14.493  0.00  0.00    +0.000 HD
ENDBRANCH   4  17
TORSDOF 2
ENDMDL
MODEL 5
REMARK VINA RESULT:      -7.2      2.271      6.610
REMARK  Name = 
REMARK  3 active torsions:
REMARK  status: ('A' for Active; 'I' for Inactive)
REMARK    1  A    between atoms: C_1  and  C_2
REMARK    2  A    between atoms: C_10  and  C_11
REMARK    3  A    between atoms: C_14  and  N_15
REMARK                            x       y       z     vdW  Elec       q    Type
REMARK                         _______ _______ _______ _____ _____    ______ ____
ROOT
ATOM      1  C   UNL     1       4.723   4.527  17.063  0.00  0.00    +0.000 A 
ATOM      2  C   UNL     1       4.028   3.311  17.095  0.00  0.00    +0.000 A 
ATOM      3  S   UNL     1       2.871   3.385  18.315  0.00  0.00    +0.000 S 
ATOM      4  C   UNL     1       3.268   4.957  18.731  0.00  0.00    +0.000 A 
ATOM      5  N   UNL     1       4.289   5.423  17.986  0.00  0.00    +0.000 NA
ENDROOT
BRANCH   1  15
ATOM      6  C   UNL     1       7.373   6.336  17.614  0.00  0.00    +0.000 C 
ATOM      7  C   UNL     1       6.969   5.662  16.345  0.00  0.00    +0.000 A 
ATOM      8  N   UNL     1       7.730   5.715  15.227  0.00  0.00    +0.000 N 
ATOM      9  C   UNL     1       7.094   4.996  14.291  0.00  0.00    +0.000 A 
ATOM     10  C   UNL     1       7.520   4.762  12.985  0.00  0.00    +0.000 A 
ATOM     11  C   UNL     1       6.708   3.970  12.157  0.00  0.00    +0.000 A 
ATOM     12  C   UNL     1       5.496   3.440  12.647  0.00  0.00    +0.000 A 
ATOM     13  C   UNL     1       5.091   3.691  13.970  0.00  0.00    +0.000 A 
ATOM     14  C   UNL     1       5.921   4.477  14.783  0.00  0.00    +0.000 A 
ATOM     15  C   UNL     1       5.816   4.887  16.115  0.00  0.00    +0.000 A 
ATOM     16  H   UNL     1       8.642   6.212  15.115  0.00  0.00    +0.000 HD
ENDBRANCH   1  15
BRANCH   4  17
ATOM     17  N   UNL     1       2.601   5.691  19.749  0.00  0.00    +0.000 NA
ATOM     18  C   UNL     1       2.284   6.949  19.746  0.00  0.00    +0.000 C 
ATOM     19  N   UNL     1       2.489   7.802  18.623  0.00  0.00    +0.000 N 
ATOM     20  N   UNL     1       1.655   7.486  20.896  0.00  0.00    +0.000 N 
ATOM     21  H   UNL     1       2.836   7.478  17.714  0.00  0.00    +0.000 HD
ATOM     22  H   UNL     1       2.209   8.791  18.680  0.00  0.00    +0.000 HD
ATOM     23  H   UNL     1       1.471   6.894  21.717  0.00  0.00    +0.000 HD
ATOM     24  H   UNL     1       1.359   8.473  20.913  0.00  0.00    +0.000 HD
ENDBRANCH   4  17
TORSDOF 2
ENDMDL
MODEL 6
REMARK VINA RESULT:      -7.1      2.387      6.371
REMARK  Name = 
REMARK  3 active torsions:
REMARK  status: ('A' for Active; 'I' for Inactive)
REMARK    1  A    between atoms: C_1  and  C_2
REMARK    2  A    between atoms: C_10  and  C_11
REMARK    3  A    between atoms: C_14  and  N_15
REMARK                            x       y       z     vdW  Elec       q    Type
REMARK                         _______ _______ _______ _____ _____    ______ ____
ROOT
ATOM      1  C   UNL     1       4.576   5.951  17.770  0.00  0.00    +0.000 A 
ATOM      2  C   UNL     1       3.614   6.969  17.813  0.00  0.00    +0.000 A 
ATOM      3  S   UNL     1       2.557   6.659  19.084  0.00  0.00    +0.000 S 
ATOM      4  C   UNL     1       3.371   5.273  19.553  0.00  0.00    +0.000 A 
ATOM      5  N   UNL     1       4.415   5.016  18.742  0.00  0.00    +0.000 NA
ENDROOT
BRANCH   1  15
ATOM      6  C   UNL     1       7.549   7.255  18.008  0.00  0.00    +0.000 C 
ATOM      7  C   UNL     1       7.002   6.409  16.906  0.00  0.00    +0.000 A 
ATOM      8  N   UNL     1       7.748   6.052  15.835  0.00  0.00    +0.000 N 
ATOM      9  C   UNL     1       6.968   5.287  15.058  0.00  0.00    +0.000 A 
ATOM     10  C   UNL     1       7.324   4.682  13.854  0.00  0.00    +0.000 A 
ATOM     11  C   UNL     1       6.358   3.908  13.192  0.00  0.00    +0.000 A 
ATOM     12  C   UNL     1       5.066   3.762  13.740  0.00  0.00    +0.000 A 
ATOM     13  C   UNL     1       4.734   4.382  14.957  0.00  0.00    +0.000 A 
ATOM     14  C   UNL     1       5.717   5.144  15.607  0.00  0.00    +0.000 A 
ATOM     15  C   UNL     1       5.711   5.856  16.809  0.00  0.00    +0.000 A 
ATOM     16  H   UNL     1       8.743   6.314  15.650  0.00  0.00    +0.000 HD
ENDBRANCH   1  15
BRANCH   4  17
ATOM     17  N   UNL     1       2.990   4.479  20.668  0.00  0.00    +0.000 NA
ATOM     18  C   UNL     1       2.550   3.259  20.663  0.00  0.00    +0.000 C 
ATOM     19  N   UNL     1       2.466   2.464  19.483  0.00  0.00    +0.000 N 
ATOM     20  N   UNL     1       2.186   2.671  21.900  0.00  0.00    +0.000 N 
ATOM     21  H   UNL     1       2.808   2.767  18.564  0.00  0.00    +0.000 HD
ATOM     22  H   UNL     1       2.115   1.499  19.545  0.00  0.00    +0.000 HD
ATOM     23  H   UNL     1       2.255   3.208  22.775  0.00  0.00    +0.000 HD
ATOM     24  H   UNL     1       1.866   1.692  21.936  0.00  0.00    +0.000 HD
ENDBRANCH   4  17
TORSDOF 2
ENDMDL
MODEL 7
REMARK VINA RESULT:      -7.0      2.200      6.630
REMARK  Name = 
REMARK  3 active torsions:
REMARK  status: ('A' for Active; 'I' for Inactive)
REMARK    1  A    between atoms: C_1  and  C_2
REMARK    2  A    between atoms: C_10  and  C_11
REMARK    3  A    between atoms: C_14  and  N_15
REMARK                            x       y       z     vdW  Elec       q    Type
REMARK                         _______ _______ _______ _____ _____    ______ ____
ROOT
ATOM      1  C   UNL     1       4.371   5.896  17.107  0.00  0.00    +0.000 A 
ATOM      2  C   UNL     1       3.822   7.133  17.470  0.00  0.00    +0.000 A 
ATOM      3  S   UNL     1       2.458   6.860  18.417  0.00  0.00    +0.000 S 
ATOM      4  C   UNL     1       2.631   5.196  18.361  0.00  0.00    +0.000 A 
ATOM      5  N   UNL     1       3.687   4.834  17.607  0.00  0.00    +0.000 NA
ENDROOT
BRANCH   1  15
ATOM      6  C   UNL     1       7.418   6.845  17.745  0.00  0.00    +0.000 C 
ATOM      7  C   UNL     1       6.922   6.087  16.559  0.00  0.00    +0.000 A 
ATOM      8  N   UNL     1       7.750   5.664  15.576  0.00  0.00    +0.000 N 
ATOM      9  C   UNL     1       6.992   5.007  14.687  0.00  0.00    +0.000 A 
ATOM     10  C   UNL     1       7.425   4.386  13.516  0.00  0.00    +0.000 A 
ATOM     11  C   UNL     1       6.468   3.739  12.718  0.00  0.00    +0.000 A 
ATOM     12  C   UNL     1       5.110   3.734  13.100  0.00  0.00    +0.000 A 
ATOM     13  C   UNL     1       4.701   4.368  14.287  0.00  0.00    +0.000 A 
ATOM     14  C   UNL     1       5.674   5.000  15.075  0.00  0.00    +0.000 A 
ATOM     15  C   UNL     1       5.599   5.687  16.289  0.00  0.00    +0.000 A 
ATOM     16  H   UNL     1       8.783   5.812  15.522  0.00  0.00    +0.000 HD
ENDBRANCH   1  15
BRANCH   4  17
ATOM     17  N   UNL     1       1.760   4.294  19.029  0.00  0.00    +0.000 NA
ATOM     18  C   UNL     1       1.661   4.081  20.305  0.00  0.00    +0.000 C 
ATOM     19  N   UNL     1       2.387   4.826  21.279  0.00  0.00    +0.000 N 
ATOM     20  N   UNL     1       0.746   3.096  20.752  0.00  0.00    +0.000 N 
ATOM     21  H   UNL     1       2.986   5.628  21.056  0.00  0.00    +0.000 HD
ATOM     22  H   UNL     1       2.258   4.615  22.279  0.00  0.00    +0.000 HD
ATOM     23  H   UNL     1       0.189   2.553  20.078  0.00  0.00    +0.000 HD
ATOM     24  H   UNL     1       0.618   2.926  21.761  0.00  0.00    +0.000 HD
ENDBRANCH   4  17
TORSDOF 2
ENDMDL
MODEL 8
REMARK VINA RESULT:      -7.0      3.254      6.493
REMARK  Name = 
REMARK  3 active torsions:
REMARK  status: ('A' for Active; 'I' for Inactive)
REMARK    1  A    between atoms: C_1  and  C_2
REMARK    2  A    between atoms: C_10  and  C_11
REMARK    3  A    between atoms: C_14  and  N_15
REMARK                            x       y       z     vdW  Elec       q    Type
REMARK                         _______ _______ _______ _____ _____    ______ ____
ROOT
ATOM      1  C   UNL     1       2.264   7.479  18.910  0.00  0.00    +0.000 A 
ATOM      2  C   UNL     1       1.985   8.225  17.758  0.00  0.00    +0.000 A 
ATOM      3  S   UNL     1       1.177   9.630  18.208  0.00  0.00    +0.000 S 
ATOM      4  C   UNL     1       1.239   9.260  19.839  0.00  0.00    +0.000 A 
ATOM      5  N   UNL     1       1.833   8.070  20.054  0.00  0.00    +0.000 NA
ENDROOT
BRANCH   1  15
ATOM      6  C   UNL     1       5.022   6.637  17.400  0.00  0.00    +0.000 C 
ATOM      7  C   UNL     1       4.186   5.805  18.316  0.00  0.00    +0.000 A 
ATOM      8  N   UNL     1       4.529   4.541  18.656  0.00  0.00    +0.000 N 
ATOM      9  C   UNL     1       3.584   4.097  19.497  0.00  0.00    +0.000 A 
ATOM     10  C   UNL     1       3.535   2.848  20.115  0.00  0.00    +0.000 A 
ATOM     11  C   UNL     1       2.458   2.578  20.974  0.00  0.00    +0.000 A 
ATOM     12  C   UNL     1       1.459   3.550  21.190  0.00  0.00    +0.000 A 
ATOM     13  C   UNL     1       1.533   4.803  20.554  0.00  0.00    +0.000 A 
ATOM     14  C   UNL     1       2.623   5.056  19.707  0.00  0.00    +0.000 A 
ATOM     15  C   UNL     1       2.990   6.177  18.959  0.00  0.00    +0.000 A 
ATOM     16  H   UNL     1       5.371   4.014  18.334  0.00  0.00    +0.000 HD
ENDBRANCH   1  15
BRANCH   4  17
ATOM     17  N   UNL     1       0.722  10.107  20.856  0.00  0.00    +0.000 NA
ATOM     18  C   UNL     1      -0.101   9.797  21.809  0.00  0.00    +0.000 C 
ATOM     19  N   UNL     1      -0.560   8.467  22.041  0.00  0.00    +0.000 N 
ATOM     20  N   UNL     1      -0.522  10.819  22.694  0.00  0.00    +0.000 N 
ATOM     21  H   UNL     1      -0.225   7.648  21.522  0.00  0.00    +0.000 HD
ATOM     22  H   UNL     1      -1.207   8.282  22.820  0.00  0.00    +0.000 HD
ATOM     23  H   UNL     1      -0.194  11.787  22.570  0.00  0.00    +0.000 HD
ATOM     24  H   UNL     1      -1.148  10.599  23.483  0.00  0.00    +0.000 HD
ENDBRANCH   4  17
TORSDOF 2
ENDMDL
MODEL 9
REMARK VINA RESULT:      -7.0      1.559      2.451
REMARK  Name = 
REMARK  3 active torsions:
REMARK  status: ('A' for Active; 'I' for Inactive)
REMARK    1  A    between atoms: C_1  and  C_2
REMARK    2  A    between atoms: C_10  and  C_11
REMARK    3  A    between atoms: C_14  and  N_15
REMARK                            x       y       z     vdW  Elec       q    Type
REMARK                         _______ _______ _______ _____ _____    ______ ____
ROOT
ATOM      1  C   UNL     1       5.296   4.183  18.061  0.00  0.00    +0.000 A 
ATOM      2  C   UNL     1       6.261   4.699  18.936  0.00  0.00    +0.000 A 
ATOM      3  S   UNL     1       7.488   5.407  18.027  0.00  0.00    +0.000 S 
ATOM      4  C   UNL     1       6.740   5.065  16.569  0.00  0.00    +0.000 A 
ATOM      5  N   UNL     1       5.587   4.391  16.752  0.00  0.00    +0.000 NA
ENDROOT
BRANCH   1  15
ATOM      6  C   UNL     1       4.391   1.111  17.476  0.00  0.00    +0.000 C 
ATOM      7  C   UNL     1       3.635   2.167  18.215  0.00  0.00    +0.000 A 
ATOM      8  N   UNL     1       2.428   1.928  18.778  0.00  0.00    +0.000 N 
ATOM      9  C   UNL     1       2.046   3.068  19.371  0.00  0.00    +0.000 A 
ATOM     10  C   UNL     1       0.871   3.283  20.089  0.00  0.00    +0.000 A 
ATOM     11  C   UNL     1       0.658   4.556  20.643  0.00  0.00    +0.000 A 
ATOM     12  C   UNL     1       1.612   5.578  20.462  0.00  0.00    +0.000 A 
ATOM     13  C   UNL     1       2.791   5.334  19.733  0.00  0.00    +0.000 A 
ATOM     14  C   UNL     1       2.988   4.053  19.197  0.00  0.00    +0.000 A 
ATOM     15  C   UNL     1       4.033   3.496  18.456  0.00  0.00    +0.000 A 
ATOM     16  H   UNL     1       1.898   1.028  18.762  0.00  0.00    +0.000 HD
ENDBRANCH   1  15
BRANCH   4  17
ATOM     17  N   UNL     1       7.271   5.444  15.307  0.00  0.00    +0.000 NA
ATOM     18  C   UNL     1       7.138   4.832  14.171  0.00  0.00    +0.000 C 
ATOM     19  N   UNL     1       6.318   3.678  13.998  0.00  0.00    +0.000 N 
ATOM     20  N   UNL     1       7.795   5.370  13.038  0.00  0.00    +0.000 N 
ATOM     21  H   UNL     1       5.722   3.285  14.734  0.00  0.00    +0.000 HD
ATOM     22  H   UNL     1       6.247   3.242  13.068  0.00  0.00    +0.000 HD
ATOM     23  H   UNL     1       8.377   6.215  13.121  0.00  0.00    +0.000 HD
ATOM     24  H   UNL     1       7.682   4.928  12.113  0.00  0.00    +0.000 HD
ENDBRANCH   4  17
TORSDOF 2
ENDMDL
