MODEL 1
REMARK VINA RESULT:      -8.6      0.000      0.000
REMARK  Name = 
REMARK  7 active torsions:
REMARK  status: ('A' for Active; 'I' for Inactive)
REMARK    1  A    between atoms: O_1  and  C_2
REMARK    2  A    between atoms: C_3  and  O_4
REMARK    3  A    between atoms: O_4  and  C_5
REMARK    4  A    between atoms: C_11  and  O_12
REMARK    5  A    between atoms: O_12  and  C_13
REMARK    6  A    between atoms: C_23  and  O_24
REMARK    7  A    between atoms: C_25  and  O_26
REMARK                            x       y       z     vdW  Elec       q    Type
REMARK                         _______ _______ _______ _____ _____    ______ ____
ROOT
ATOM      1  C   UNL     1       2.760   5.196  18.425  0.00  0.00    +0.000 A 
ATOM      2  C   UNL     1       2.258   3.913  18.175  0.00  0.00    +0.000 A 
ATOM      3  C   UNL     1       1.340   3.326  19.044  0.00  0.00    +0.000 A 
ATOM      4 CL   UNL     1       0.781   1.728  18.733  0.00  0.00    +0.000 Cl
ATOM      5  C   UNL     1       0.893   4.009  20.168  0.00  0.00    +0.000 A 
ATOM      6  C   UNL     1       1.356   5.299  20.412  0.00  0.00    +0.000 A 
ATOM      7  C   UNL     1       2.268   5.908  19.536  0.00  0.00    +0.000 A 
ENDROOT
BRANCH   1   8
ATOM      8  O   UNL     1       3.741   5.783  17.668  0.00  0.00    +0.000 OA
BRANCH   8  10
ATOM      9  C   UNL     1       5.613   5.821  16.097  0.00  0.00    +0.000 C 
ATOM     10  C   UNL     1       4.523   4.966  16.781  0.00  0.00    +0.000 C 
ATOM     11  O   UNL     1       5.157   3.863  17.450  0.00  0.00    +0.000 OA
ATOM     12  C   UNL     1       5.992   4.301  18.536  0.00  0.00    +0.000 C 
ATOM     13  C   UNL     1       7.111   5.207  18.019  0.00  0.00    +0.000 C 
ATOM     14  C   UNL     1       6.549   6.373  17.185  0.00  0.00    +0.000 C 
BRANCH   9  15
ATOM     15  O   UNL     1       5.045   6.868  15.305  0.00  0.00    +0.000 OA
ATOM     16  H   UNL     1       5.061   6.574  14.378  0.00  0.00    +0.000 HD
ENDBRANCH   9  15
BRANCH  13  17
ATOM     17  O   UNL     1       7.998   4.442  17.173  0.00  0.00    +0.000 OA
ATOM     18  H   UNL     1       8.868   4.884  17.180  0.00  0.00    +0.000 HD
ENDBRANCH  13  17
BRANCH  14  19
ATOM     19  O   UNL     1       7.639   7.095  16.592  0.00  0.00    +0.000 OA
ATOM     20  H   UNL     1       8.036   7.625  17.309  0.00  0.00    +0.000 HD
ENDBRANCH  14  19
ENDBRANCH   8  10
ENDBRANCH   1   8
BRANCH   7  21
ATOM     21  O   UNL     1       2.692   7.148  19.960  0.00  0.00    +0.000 OA
BRANCH  21  22
ATOM     22  C   UNL     1       1.814   8.180  20.200  0.00  0.00    +0.000 A 
ATOM     23  C   UNL     1       1.272   8.487  21.451  0.00  0.00    +0.000 A 
ATOM     24  C   UNL     1       0.319   9.501  21.573  0.00  0.00    +0.000 A 
ATOM     25  C   UNL     1      -0.058  10.244  20.457  0.00  0.00    +0.000 A 
ATOM     26 CL   UNL     1      -1.267  11.458  20.606  0.00  0.00    +0.000 Cl
ATOM     27  C   UNL     1       0.545  10.018  19.224  0.00  0.00    +0.000 A 
ATOM     28  C   UNL     1       1.484   8.993  19.100  0.00  0.00    +0.000 A 
ATOM     29 CL   UNL     1       2.240   8.768  17.559  0.00  0.00    +0.000 Cl
ENDBRANCH  21  22
ENDBRANCH   7  21
TORSDOF 7
ENDMDL
MODEL 2
REMARK VINA RESULT:      -8.4      1.097      1.531
REMARK  Name = 
REMARK  7 active torsions:
REMARK  status: ('A' for Active; 'I' for Inactive)
REMARK    1  A    between atoms: O_1  and  C_2
REMARK    2  A    between atoms: C_3  and  O_4
REMARK    3  A    between atoms: O_4  and  C_5
REMARK    4  A    between atoms: C_11  and  O_12
REMARK    5  A    between atoms: O_12  and  C_13
REMARK    6  A    between atoms: C_23  and  O_24
REMARK    7  A    between atoms: C_25  and  O_26
REMARK                            x       y       z     vdW  Elec       q    Type
REMARK                         _______ _______ _______ _____ _____    ______ ____
ROOT
ATOM      1  C   UNL     1       2.784   5.227  18.401  0.00  0.00    +0.000 A 
ATOM      2  C   UNL     1       2.332   3.915  18.208  0.00  0.00    +0.000 A 
ATOM      3  C   UNL     1       1.417   3.340  19.089  0.00  0.00    +0.000 A 
ATOM      4 CL   UNL     1       0.921   1.710  18.851  0.00  0.00    +0.000 Cl
ATOM      5  C   UNL     1       0.925   4.063  20.168  0.00  0.00    +0.000 A 
ATOM      6  C   UNL     1       1.338   5.380  20.354  0.00  0.00    +0.000 A 
ATOM      7  C   UNL     1       2.245   5.975  19.464  0.00  0.00    +0.000 A 
ENDROOT
BRANCH   1   8
ATOM      8  O   UNL     1       3.758   5.809  17.633  0.00  0.00    +0.000 OA
BRANCH   8  10
ATOM      9  C   UNL     1       5.640   5.832  16.071  0.00  0.00    +0.000 C 
ATOM     10  C   UNL     1       4.544   4.984  16.756  0.00  0.00    +0.000 C 
ATOM     11  O   UNL     1       5.172   3.884  17.436  0.00  0.00    +0.000 OA
ATOM     12  C   UNL     1       6.002   4.329  18.523  0.00  0.00    +0.000 C 
ATOM     13  C   UNL     1       7.126   5.228  18.006  0.00  0.00    +0.000 C 
ATOM     14  C   UNL     1       6.571   6.390  17.161  0.00  0.00    +0.000 C 
BRANCH   9  15
ATOM     15  O   UNL     1       5.079   6.875  15.269  0.00  0.00    +0.000 OA
ATOM     16  H   UNL     1       5.740   7.114  14.598  0.00  0.00    +0.000 HD
ENDBRANCH   9  15
BRANCH  13  17
ATOM     17  O   UNL     1       8.015   4.456  17.171  0.00  0.00    +0.000 OA
ATOM     18  H   UNL     1       7.725   4.568  16.246  0.00  0.00    +0.000 HD
ENDBRANCH  13  17
BRANCH  14  19
ATOM     19  O   UNL     1       7.666   7.105  16.569  0.00  0.00    +0.000 OA
ATOM     20  H   UNL     1       8.095   7.595  17.296  0.00  0.00    +0.000 HD
ENDBRANCH  14  19
ENDBRANCH   8  10
ENDBRANCH   1   8
BRANCH   7  21
ATOM     21  O   UNL     1       2.617   7.250  19.831  0.00  0.00    +0.000 OA
BRANCH  21  22
ATOM     22  C   UNL     1       1.913   8.363  19.432  0.00  0.00    +0.000 A 
ATOM     23  C   UNL     1       1.804   8.802  18.110  0.00  0.00    +0.000 A 
ATOM     24  C   UNL     1       1.138   9.995  17.819  0.00  0.00    +0.000 A 
ATOM     25  C   UNL     1       0.537  10.727  18.840  0.00  0.00    +0.000 A 
ATOM     26 CL   UNL     1      -0.240  12.219  18.481  0.00  0.00    +0.000 Cl
ATOM     27  C   UNL     1       0.550  10.253  20.148  0.00  0.00    +0.000 A 
ATOM     28  C   UNL     1       1.230   9.069  20.439  0.00  0.00    +0.000 A 
ATOM     29 CL   UNL     1       1.191   8.493  22.071  0.00  0.00    +0.000 Cl
ENDBRANCH  21  22
ENDBRANCH   7  21
TORSDOF 7
ENDMDL
MODEL 3
REMARK VINA RESULT:      -8.3      0.988      1.875
REMARK  Name = 
REMARK  7 active torsions:
REMARK  status: ('A' for Active; 'I' for Inactive)
REMARK    1  A    between atoms: O_1  and  C_2
REMARK    2  A    between atoms: C_3  and  O_4
REMARK    3  A    between atoms: O_4  and  C_5
REMARK    4  A    between atoms: C_11  and  O_12
REMARK    5  A    between atoms: O_12  and  C_13
REMARK    6  A    between atoms: C_23  and  O_24
REMARK    7  A    between atoms: C_25  and  O_26
REMARK                            x       y       z     vdW  Elec       q    Type
REMARK                         _______ _______ _______ _____ _____    ______ ____
ROOT
ATOM      1  C   UNL     1       2.486   4.966  18.370  0.00  0.00    +0.000 A 
ATOM      2  C   UNL     1       1.958   3.679  18.203  0.00  0.00    +0.000 A 
ATOM      3  C   UNL     1       1.186   3.091  19.204  0.00  0.00    +0.000 A 
ATOM      4 CL   UNL     1       0.595   1.489  18.988  0.00  0.00    +0.000 Cl
ATOM      5  C   UNL     1       0.912   3.777  20.381  0.00  0.00    +0.000 A 
ATOM      6  C   UNL     1       1.400   5.070  20.547  0.00  0.00    +0.000 A 
ATOM      7  C   UNL     1       2.165   5.679  19.540  0.00  0.00    +0.000 A 
ENDROOT
BRANCH   1   8
ATOM      8  O   UNL     1       3.337   5.554  17.471  0.00  0.00    +0.000 OA
BRANCH   8  10
ATOM      9  C   UNL     1       5.517   4.448  17.481  0.00  0.00    +0.000 C 
ATOM     10  C   UNL     1       4.719   5.726  17.825  0.00  0.00    +0.000 C 
ATOM     11  O   UNL     1       5.333   6.842  17.159  0.00  0.00    +0.000 OA
ATOM     12  C   UNL     1       5.229   6.738  15.729  0.00  0.00    +0.000 C 
ATOM     13  C   UNL     1       5.943   5.481  15.230  0.00  0.00    +0.000 C 
ATOM     14  C   UNL     1       5.440   4.223  15.961  0.00  0.00    +0.000 C 
BRANCH   9  15
ATOM     15  O   UNL     1       5.039   3.313  18.210  0.00  0.00    +0.000 OA
ATOM     16  H   UNL     1       4.095   3.209  18.000  0.00  0.00    +0.000 HD
ENDBRANCH   9  15
BRANCH  13  17
ATOM     17  O   UNL     1       7.360   5.601  15.477  0.00  0.00    +0.000 OA
ATOM     18  H   UNL     1       7.766   4.729  15.310  0.00  0.00    +0.000 HD
ENDBRANCH  13  17
BRANCH  14  19
ATOM     19  O   UNL     1       6.248   3.100  15.577  0.00  0.00    +0.000 OA
ATOM     20  H   UNL     1       5.683   2.541  15.011  0.00  0.00    +0.000 HD
ENDBRANCH  14  19
ENDBRANCH   8  10
ENDBRANCH   1   8
BRANCH   7  21
ATOM     21  O   UNL     1       2.642   6.924  19.891  0.00  0.00    +0.000 OA
BRANCH  21  22
ATOM     22  C   UNL     1       1.804   7.986  20.139  0.00  0.00    +0.000 A 
ATOM     23  C   UNL     1       1.230   8.272  21.381  0.00  0.00    +0.000 A 
ATOM     24  C   UNL     1       0.321   9.325  21.508  0.00  0.00    +0.000 A 
ATOM     25  C   UNL     1       0.020  10.126  20.409  0.00  0.00    +0.000 A 
ATOM     26 CL   UNL     1      -1.136  11.390  20.562  0.00  0.00    +0.000 Cl
ATOM     27  C   UNL     1       0.659   9.917  19.190  0.00  0.00    +0.000 A 
ATOM     28  C   UNL     1       1.554   8.855  19.061  0.00  0.00    +0.000 A 
ATOM     29 CL   UNL     1       2.356   8.651  17.540  0.00  0.00    +0.000 Cl
ENDBRANCH  21  22
ENDBRANCH   7  21
TORSDOF 7
ENDMDL
MODEL 4
REMARK VINA RESULT:      -8.1      1.462      2.428
REMARK  Name = 
REMARK  7 active torsions:
REMARK  status: ('A' for Active; 'I' for Inactive)
REMARK    1  A    between atoms: O_1  and  C_2
REMARK    2  A    between atoms: C_3  and  O_4
REMARK    3  A    between atoms: O_4  and  C_5
REMARK    4  A    between atoms: C_11  and  O_12
REMARK    5  A    between atoms: O_12  and  C_13
REMARK    6  A    between atoms: C_23  and  O_24
REMARK    7  A    between atoms: C_25  and  O_26
REMARK                            x       y       z     vdW  Elec       q    Type
REMARK                         _______ _______ _______ _____ _____    ______ ____
ROOT
ATOM      1  C   UNL     1       2.494   5.016  18.341  0.00  0.00    +0.000 A 
ATOM      2  C   UNL     1       1.971   3.724  18.208  0.00  0.00    +0.000 A 
ATOM      3  C   UNL     1       1.197   3.161  19.222  0.00  0.00    +0.000 A 
ATOM      4 CL   UNL     1       0.612   1.552  19.048  0.00  0.00    +0.000 Cl
ATOM      5  C   UNL     1       0.916   3.879  20.378  0.00  0.00    +0.000 A 
ATOM      6  C   UNL     1       1.399   5.177  20.510  0.00  0.00    +0.000 A 
ATOM      7  C   UNL     1       2.166   5.761  19.490  0.00  0.00    +0.000 A 
ENDROOT
BRANCH   1   8
ATOM      8  O   UNL     1       3.346   5.582  17.429  0.00  0.00    +0.000 OA
BRANCH   8  10
ATOM      9  C   UNL     1       5.527   4.477  17.445  0.00  0.00    +0.000 C 
ATOM     10  C   UNL     1       4.729   5.757  17.780  0.00  0.00    +0.000 C 
ATOM     11  O   UNL     1       5.341   6.869  17.105  0.00  0.00    +0.000 OA
ATOM     12  C   UNL     1       5.235   6.754  15.675  0.00  0.00    +0.000 C 
ATOM     13  C   UNL     1       5.948   5.493  15.184  0.00  0.00    +0.000 C 
ATOM     14  C   UNL     1       5.447   4.241  15.927  0.00  0.00    +0.000 C 
BRANCH   9  15
ATOM     15  O   UNL     1       5.051   3.348  18.182  0.00  0.00    +0.000 OA
ATOM     16  H   UNL     1       5.821   2.932  18.607  0.00  0.00    +0.000 HD
ENDBRANCH   9  15
BRANCH  13  17
ATOM     17  O   UNL     1       7.366   5.616  15.429  0.00  0.00    +0.000 OA
ATOM     18  H   UNL     1       7.772   4.743  15.268  0.00  0.00    +0.000 HD
ENDBRANCH  13  17
BRANCH  14  19
ATOM     19  O   UNL     1       6.256   3.116  15.550  0.00  0.00    +0.000 OA
ATOM     20  H   UNL     1       6.909   3.454  14.908  0.00  0.00    +0.000 HD
ENDBRANCH  14  19
ENDBRANCH   8  10
ENDBRANCH   1   8
BRANCH   7  21
ATOM     21  O   UNL     1       2.637   7.016  19.807  0.00  0.00    +0.000 OA
BRANCH  21  22
ATOM     22  C   UNL     1       1.995   8.164  19.402  0.00  0.00    +0.000 A 
ATOM     23  C   UNL     1       1.973   8.640  18.088  0.00  0.00    +0.000 A 
ATOM     24  C   UNL     1       1.366   9.864  17.795  0.00  0.00    +0.000 A 
ATOM     25  C   UNL     1       0.739  10.592  18.803  0.00  0.00    +0.000 A 
ATOM     26 CL   UNL     1       0.038  12.121  18.444  0.00  0.00    +0.000 Cl
ATOM     27  C   UNL     1       0.667  10.086  20.096  0.00  0.00    +0.000 A 
ATOM     28  C   UNL     1       1.287   8.871  20.391  0.00  0.00    +0.000 A 
ATOM     29 CL   UNL     1       1.141   8.256  22.002  0.00  0.00    +0.000 Cl
ENDBRANCH  21  22
ENDBRANCH   7  21
TORSDOF 7
ENDMDL
MODEL 5
REMARK VINA RESULT:      -7.5      0.957      1.428
REMARK  Name = 
REMARK  7 active torsions:
REMARK  status: ('A' for Active; 'I' for Inactive)
REMARK    1  A    between atoms: O_1  and  C_2
REMARK    2  A    between atoms: C_3  and  O_4
REMARK    3  A    between atoms: O_4  and  C_5
REMARK    4  A    between atoms: C_11  and  O_12
REMARK    5  A    between atoms: O_12  and  C_13
REMARK    6  A    between atoms: C_23  and  O_24
REMARK    7  A    between atoms: C_25  and  O_26
REMARK                            x       y       z     vdW  Elec       q    Type
REMARK                         _______ _______ _______ _____ _____    ______ ____
ROOT
ATOM      1  C   UNL     1       3.396   4.874  19.483  0.00  0.00    +0.000 A 
ATOM      2  C   UNL     1       2.996   3.545  19.289  0.00  0.00    +0.000 A 
ATOM      3  C   UNL     1       1.733   3.115  19.694  0.00  0.00    +0.000 A 
ATOM      4 CL   UNL     1       1.293   1.464  19.486  0.00  0.00    +0.000 Cl
ATOM      5  C   UNL     1       0.841   4.000  20.286  0.00  0.00    +0.000 A 
ATOM      6  C   UNL     1       1.210   5.332  20.454  0.00  0.00    +0.000 A 
ATOM      7  C   UNL     1       2.472   5.782  20.035  0.00  0.00    +0.000 A 
ENDROOT
BRANCH   1   8
ATOM      8  O   UNL     1       4.657   5.330  19.204  0.00  0.00    +0.000 OA
BRANCH   8  10
ATOM      9  C   UNL     1       5.158   4.941  16.842  0.00  0.00    +0.000 C 
ATOM     10  C   UNL     1       5.491   4.577  18.307  0.00  0.00    +0.000 C 
ATOM     11  O   UNL     1       6.894   4.799  18.528  0.00  0.00    +0.000 OA
ATOM     12  C   UNL     1       7.240   6.190  18.426  0.00  0.00    +0.000 C 
ATOM     13  C   UNL     1       6.925   6.720  17.026  0.00  0.00    +0.000 C 
ATOM     14  C   UNL     1       5.463   6.435  16.634  0.00  0.00    +0.000 C 
BRANCH   9  15
ATOM     15  O   UNL     1       3.802   4.627  16.513  0.00  0.00    +0.000 OA
ATOM     16  H   UNL     1       3.482   3.990  17.174  0.00  0.00    +0.000 HD
ENDBRANCH   9  15
BRANCH  13  17
ATOM     17  O   UNL     1       7.778   6.068  16.060  0.00  0.00    +0.000 OA
ATOM     18  H   UNL     1       8.544   6.651  15.899  0.00  0.00    +0.000 HD
ENDBRANCH  13  17
BRANCH  14  19
ATOM     19  O   UNL     1       5.264   6.802  15.261  0.00  0.00    +0.000 OA
ATOM     20  H   UNL     1       6.061   7.299  14.995  0.00  0.00    +0.000 HD
ENDBRANCH  14  19
ENDBRANCH   8  10
ENDBRANCH   1   8
BRANCH   7  21
ATOM     21  O   UNL     1       2.716   7.101  20.347  0.00  0.00    +0.000 OA
BRANCH  21  22
ATOM     22  C   UNL     1       1.760   8.079  20.192  0.00  0.00    +0.000 A 
ATOM     23  C   UNL     1       0.930   8.547  21.214  0.00  0.00    +0.000 A 
ATOM     24  C   UNL     1      -0.070   9.481  20.934  0.00  0.00    +0.000 A 
ATOM     25  C   UNL     1      -0.212   9.988  19.644  0.00  0.00    +0.000 A 
ATOM     26 CL   UNL     1      -1.476  11.100  19.296  0.00  0.00    +0.000 Cl
ATOM     27  C   UNL     1       0.670   9.607  18.638  0.00  0.00    +0.000 A 
ATOM     28  C   UNL     1       1.658   8.661  18.916  0.00  0.00    +0.000 A 
ATOM     29 CL   UNL     1       2.759   8.243  17.647  0.00  0.00    +0.000 Cl
ENDBRANCH  21  22
ENDBRANCH   7  21
TORSDOF 7
ENDMDL
MODEL 6
REMARK VINA RESULT:      -7.5      1.399      2.099
REMARK  Name = 
REMARK  7 active torsions:
REMARK  status: ('A' for Active; 'I' for Inactive)
REMARK    1  A    between atoms: O_1  and  C_2
REMARK    2  A    between atoms: C_3  and  O_4
REMARK    3  A    between atoms: O_4  and  C_5
REMARK    4  A    between atoms: C_11  and  O_12
REMARK    5  A    between atoms: O_12  and  C_13
REMARK    6  A    between atoms: C_23  and  O_24
REMARK    7  A    between atoms: C_25  and  O_26
REMARK                            x       y       z     vdW  Elec       q    Type
REMARK                         _______ _______ _______ _____ _____    ______ ____
ROOT
ATOM      1  C   UNL     1       3.511   4.864  19.570  0.00  0.00    +0.000 A 
ATOM      2  C   UNL     1       3.150   3.514  19.473  0.00  0.00    +0.000 A 
ATOM      3  C   UNL     1       1.878   3.089  19.853  0.00  0.00    +0.000 A 
ATOM      4 CL   UNL     1       1.484   1.416  19.767  0.00  0.00    +0.000 Cl
ATOM      5  C   UNL     1       0.938   3.998  20.322  0.00  0.00    +0.000 A 
ATOM      6  C   UNL     1       1.271   5.348  20.391  0.00  0.00    +0.000 A 
ATOM      7  C   UNL     1       2.542   5.792  19.996  0.00  0.00    +0.000 A 
ENDROOT
BRANCH   1   8
ATOM      8  O   UNL     1       4.775   5.327  19.313  0.00  0.00    +0.000 OA
BRANCH   8  10
ATOM      9  C   UNL     1       5.222   4.999  16.932  0.00  0.00    +0.000 C 
ATOM     10  C   UNL     1       5.604   4.615  18.379  0.00  0.00    +0.000 C 
ATOM     11  O   UNL     1       7.006   4.870  18.567  0.00  0.00    +0.000 OA
ATOM     12  C   UNL     1       7.312   6.273  18.484  0.00  0.00    +0.000 C 
ATOM     13  C   UNL     1       6.945   6.821  17.105  0.00  0.00    +0.000 C 
ATOM     14  C   UNL     1       5.481   6.504  16.747  0.00  0.00    +0.000 C 
BRANCH   9  15
ATOM     15  O   UNL     1       3.867   4.654  16.632  0.00  0.00    +0.000 OA
ATOM     16  H   UNL     1       3.295   5.282  17.106  0.00  0.00    +0.000 HD
ENDBRANCH   9  15
BRANCH  13  17
ATOM     17  O   UNL     1       7.789   6.212  16.104  0.00  0.00    +0.000 OA
ATOM     18  H   UNL     1       8.299   5.502  16.537  0.00  0.00    +0.000 HD
ENDBRANCH  13  17
BRANCH  14  19
ATOM     19  O   UNL     1       5.235   6.893  15.387  0.00  0.00    +0.000 OA
ATOM     20  H   UNL     1       4.478   6.356  15.084  0.00  0.00    +0.000 HD
ENDBRANCH  14  19
ENDBRANCH   8  10
ENDBRANCH   1   8
BRANCH   7  21
ATOM     21  O   UNL     1       2.742   7.140  20.204  0.00  0.00    +0.000 OA
BRANCH  21  22
ATOM     22  C   UNL     1       1.935   8.097  19.633  0.00  0.00    +0.000 A 
ATOM     23  C   UNL     1       1.819   8.321  18.258  0.00  0.00    +0.000 A 
ATOM     24  C   UNL     1       1.038   9.377  17.783  0.00  0.00    +0.000 A 
ATOM     25  C   UNL     1       0.333  10.182  18.675  0.00  0.00    +0.000 A 
ATOM     26 CL   UNL     1      -0.586  11.510  18.085  0.00  0.00    +0.000 Cl
ATOM     27  C   UNL     1       0.359   9.911  20.039  0.00  0.00    +0.000 A 
ATOM     28  C   UNL     1       1.152   8.865  20.513  0.00  0.00    +0.000 A 
ATOM     29 CL   UNL     1       1.127   8.536  22.213  0.00  0.00    +0.000 Cl
ENDBRANCH  21  22
ENDBRANCH   7  21
TORSDOF 7
ENDMDL
MODEL 7
REMARK VINA RESULT:      -7.5      1.446      1.825
REMARK  Name = 
REMARK  7 active torsions:
REMARK  status: ('A' for Active; 'I' for Inactive)
REMARK    1  A    between atoms: O_1  and  C_2
REMARK    2  A    between atoms: C_3  and  O_4
REMARK    3  A    between atoms: O_4  and  C_5
REMARK    4  A    between atoms: C_11  and  O_12
REMARK    5  A    between atoms: O_12  and  C_13
REMARK    6  A    between atoms: C_23  and  O_24
REMARK    7  A    between atoms: C_25  and  O_26
REMARK                            x       y       z     vdW  Elec       q    Type
REMARK                         _______ _______ _______ _____ _____    ______ ____
ROOT
ATOM      1  C   UNL     1       3.243   5.020  19.015  0.00  0.00    +0.000 A 
ATOM      2  C   UNL     1       2.895   3.672  18.854  0.00  0.00    +0.000 A 
ATOM      3  C   UNL     1       1.775   3.145  19.494  0.00  0.00    +0.000 A 
ATOM      4 CL   UNL     1       1.405   1.473  19.314  0.00  0.00    +0.000 Cl
ATOM      5  C   UNL     1       0.972   3.949  20.292  0.00  0.00    +0.000 A 
ATOM      6  C   UNL     1       1.284   5.299  20.434  0.00  0.00    +0.000 A 
ATOM      7  C   UNL     1       2.400   5.846  19.783  0.00  0.00    +0.000 A 
ENDROOT
BRANCH   1   8
ATOM      8  O   UNL     1       4.387   5.570  18.500  0.00  0.00    +0.000 OA
BRANCH   8  10
ATOM      9  C   UNL     1       5.453   6.990  16.819  0.00  0.00    +0.000 C 
ATOM     10  C   UNL     1       4.461   5.836  17.089  0.00  0.00    +0.000 C 
ATOM     11  O   UNL     1       4.872   4.690  16.325  0.00  0.00    +0.000 OA
ATOM     12  C   UNL     1       6.139   4.174  16.768  0.00  0.00    +0.000 C 
ATOM     13  C   UNL     1       7.234   5.229  16.603  0.00  0.00    +0.000 C 
ATOM     14  C   UNL     1       6.849   6.550  17.295  0.00  0.00    +0.000 C 
BRANCH   9  15
ATOM     15  O   UNL     1       5.037   8.205  17.450  0.00  0.00    +0.000 OA
ATOM     16  H   UNL     1       5.101   8.070  18.411  0.00  0.00    +0.000 HD
ENDBRANCH   9  15
BRANCH  13  17
ATOM     17  O   UNL     1       7.431   5.504  15.199  0.00  0.00    +0.000 OA
ATOM     18  H   UNL     1       6.859   6.258  14.961  0.00  0.00    +0.000 HD
ENDBRANCH  13  17
BRANCH  14  19
ATOM     19  O   UNL     1       7.827   7.551  16.975  0.00  0.00    +0.000 OA
ATOM     20  H   UNL     1       7.649   8.304  17.570  0.00  0.00    +0.000 HD
ENDBRANCH  14  19
ENDBRANCH   8  10
ENDBRANCH   1   8
BRANCH   7  21
ATOM     21  O   UNL     1       2.620   7.171  20.090  0.00  0.00    +0.000 OA
BRANCH  21  22
ATOM     22  C   UNL     1       1.833   8.181  19.586  0.00  0.00    +0.000 A 
ATOM     23  C   UNL     1       1.700   8.482  18.228  0.00  0.00    +0.000 A 
ATOM     24  C   UNL     1       0.945   9.585  17.825  0.00  0.00    +0.000 A 
ATOM     25  C   UNL     1       0.280  10.361  18.771  0.00  0.00    +0.000 A 
ATOM     26 CL   UNL     1      -0.608  11.746  18.270  0.00  0.00    +0.000 Cl
ATOM     27  C   UNL     1       0.321  10.017  20.118  0.00  0.00    +0.000 A 
ATOM     28  C   UNL     1       1.089   8.924  20.521  0.00  0.00    +0.000 A 
ATOM     29 CL   UNL     1       1.084   8.505  22.201  0.00  0.00    +0.000 Cl
ENDBRANCH  21  22
ENDBRANCH   7  21
TORSDOF 7
ENDMDL
MODEL 8
REMARK VINA RESULT:      -7.5      1.275      1.714
REMARK  Name = 
REMARK  7 active torsions:
REMARK  status: ('A' for Active; 'I' for Inactive)
REMARK    1  A    between atoms: O_1  and  C_2
REMARK    2  A    between atoms: C_3  and  O_4
REMARK    3  A    between atoms: O_4  and  C_5
REMARK    4  A    between atoms: C_11  and  O_12
REMARK    5  A    between atoms: O_12  and  C_13
REMARK    6  A    between atoms: C_23  and  O_24
REMARK    7  A    between atoms: C_25  and  O_26
REMARK                            x       y       z     vdW  Elec       q    Type
REMARK                         _______ _______ _______ _____ _____    ______ ____
ROOT
ATOM      1  C   UNL     1       3.617   4.950  19.857  0.00  0.00    +0.000 A 
ATOM      2  C   UNL     1       3.458   3.664  20.389  0.00  0.00    +0.000 A 
ATOM      3  C   UNL     1       2.235   3.261  20.924  0.00  0.00    +0.000 A 
ATOM      4 CL   UNL     1       2.089   1.692  21.615  0.00  0.00    +0.000 Cl
ATOM      5  C   UNL     1       1.146   4.123  20.928  0.00  0.00    +0.000 A 
ATOM      6  C   UNL     1       1.278   5.392  20.372  0.00  0.00    +0.000 A 
ATOM      7  C   UNL     1       2.498   5.805  19.814  0.00  0.00    +0.000 A 
ENDROOT
BRANCH   1   8
ATOM      8  O   UNL     1       4.817   5.440  19.414  0.00  0.00    +0.000 OA
BRANCH   8  10
ATOM      9  C   UNL     1       5.179   4.958  17.044  0.00  0.00    +0.000 C 
ATOM     10  C   UNL     1       5.599   4.653  18.500  0.00  0.00    +0.000 C 
ATOM     11  O   UNL     1       7.012   4.885  18.628  0.00  0.00    +0.000 OA
ATOM     12  C   UNL     1       7.346   6.273  18.450  0.00  0.00    +0.000 C 
ATOM     13  C   UNL     1       6.946   6.745  17.051  0.00  0.00    +0.000 C 
ATOM     14  C   UNL     1       5.465   6.442  16.759  0.00  0.00    +0.000 C 
BRANCH   9  15
ATOM     15  O   UNL     1       3.807   4.628  16.809  0.00  0.00    +0.000 OA
ATOM     16  H   UNL     1       3.571   3.908  17.418  0.00  0.00    +0.000 HD
ENDBRANCH   9  15
BRANCH  13  17
ATOM     17  O   UNL     1       7.743   6.056  16.063  0.00  0.00    +0.000 OA
ATOM     18  H   UNL     1       8.662   6.024  16.392  0.00  0.00    +0.000 HD
ENDBRANCH  13  17
BRANCH  14  19
ATOM     19  O   UNL     1       5.183   6.754  15.386  0.00  0.00    +0.000 OA
ATOM     20  H   UNL     1       4.283   6.418  15.211  0.00  0.00    +0.000 HD
ENDBRANCH  14  19
ENDBRANCH   8  10
ENDBRANCH   1   8
BRANCH   7  21
ATOM     21  O   UNL     1       2.491   7.113  19.382  0.00  0.00    +0.000 OA
BRANCH  21  22
ATOM     22  C   UNL     1       1.808   8.102  20.052  0.00  0.00    +0.000 A 
ATOM     23  C   UNL     1       1.608   8.132  21.435  0.00  0.00    +0.000 A 
ATOM     24  C   UNL     1       0.824   9.136  22.009  0.00  0.00    +0.000 A 
ATOM     25  C   UNL     1       0.279  10.139  21.212  0.00  0.00    +0.000 A 
ATOM     26 CL   UNL     1      -0.725  11.343  21.919  0.00  0.00    +0.000 Cl
ATOM     27  C   UNL     1       0.551  10.180  19.848  0.00  0.00    +0.000 A 
ATOM     28  C   UNL     1       1.320   9.167  19.274  0.00  0.00    +0.000 A 
ATOM     29 CL   UNL     1       1.668   9.275  17.581  0.00  0.00    +0.000 Cl
ENDBRANCH  21  22
ENDBRANCH   7  21
TORSDOF 7
ENDMDL
MODEL 9
REMARK VINA RESULT:      -7.5      4.265      6.616
REMARK  Name = 
REMARK  7 active torsions:
REMARK  status: ('A' for Active; 'I' for Inactive)
REMARK    1  A    between atoms: O_1  and  C_2
REMARK    2  A    between atoms: C_3  and  O_4
REMARK    3  A    between atoms: O_4  and  C_5
REMARK    4  A    between atoms: C_11  and  O_12
REMARK    5  A    between atoms: O_12  and  C_13
REMARK    6  A    between atoms: C_23  and  O_24
REMARK    7  A    between atoms: C_25  and  O_26
REMARK                            x       y       z     vdW  Elec       q    Type
REMARK                         _______ _______ _______ _____ _____    ______ ____
ROOT
ATOM      1  C   UNL     1       5.028   4.144  16.261  0.00  0.00    +0.000 A 
ATOM      2  C   UNL     1       4.679   3.777  14.955  0.00  0.00    +0.000 A 
ATOM      3  C   UNL     1       5.591   3.913  13.909  0.00  0.00    +0.000 A 
ATOM      4 CL   UNL     1       5.112   3.499  12.309  0.00  0.00    +0.000 Cl
ATOM      5  C   UNL     1       6.870   4.402  14.145  0.00  0.00    +0.000 A 
ATOM      6  C   UNL     1       7.243   4.738  15.443  0.00  0.00    +0.000 A 
ATOM      7  C   UNL     1       6.341   4.590  16.507  0.00  0.00    +0.000 A 
ENDROOT
BRANCH   1   8
ATOM      8  O   UNL     1       4.145   4.133  17.309  0.00  0.00    +0.000 OA
BRANCH   8  10
ATOM      9  C   UNL     1       3.476   2.599  19.091  0.00  0.00    +0.000 C 
ATOM     10  C   UNL     1       3.402   2.934  17.584  0.00  0.00    +0.000 C 
ATOM     11  O   UNL     1       2.019   3.034  17.204  0.00  0.00    +0.000 OA
ATOM     12  C   UNL     1       1.365   4.144  17.843  0.00  0.00    +0.000 C 
ATOM     13  C   UNL     1       1.393   3.980  19.363  0.00  0.00    +0.000 C 
ATOM     14  C   UNL     1       2.827   3.753  19.876  0.00  0.00    +0.000 C 
BRANCH   9  15
ATOM     15  O   UNL     1       4.821   2.361  19.515  0.00  0.00    +0.000 OA
ATOM     16  H   UNL     1       4.784   1.753  20.273  0.00  0.00    +0.000 HD
ENDBRANCH   9  15
BRANCH  13  17
ATOM     17  O   UNL     1       0.600   2.833  19.739  0.00  0.00    +0.000 OA
ATOM     18  H   UNL     1       0.680   2.721  20.706  0.00  0.00    +0.000 HD
ENDBRANCH  13  17
BRANCH  14  19
ATOM     19  O   UNL     1       2.782   3.444  21.277  0.00  0.00    +0.000 OA
ATOM     20  H   UNL     1       1.879   3.665  21.575  0.00  0.00    +0.000 HD
ENDBRANCH  14  19
ENDBRANCH   8  10
ENDBRANCH   1   8
BRANCH   7  21
ATOM     21  O   UNL     1       6.833   5.044  17.711  0.00  0.00    +0.000 OA
BRANCH  21  22
ATOM     22  C   UNL     1       7.257   6.341  17.888  0.00  0.00    +0.000 A 
ATOM     23  C   UNL     1       6.842   7.426  17.110  0.00  0.00    +0.000 A 
ATOM     24  C   UNL     1       7.400   8.690  17.314  0.00  0.00    +0.000 A 
ATOM     25  C   UNL     1       8.337   8.886  18.326  0.00  0.00    +0.000 A 
ATOM     26 CL   UNL     1       9.055  10.433  18.539  0.00  0.00    +0.000 Cl
ATOM     27  C   UNL     1       8.687   7.839  19.173  0.00  0.00    +0.000 A 
ATOM     28  C   UNL     1       8.141   6.573  18.958  0.00  0.00    +0.000 A 
ATOM     29 CL   UNL     1       8.572   5.307  20.057  0.00  0.00    +0.000 Cl
ENDBRANCH  21  22
ENDBRANCH   7  21
TORSDOF 7
ENDMDL
