MODEL 1
REMARK VINA RESULT:      -8.4      0.000      0.000
REMARK  Name = 
REMARK  5 active torsions:
REMARK  status: ('A' for Active; 'I' for Inactive)
REMARK    1  A    between atoms: N_1  and  C_2
REMARK    2  A    between atoms: C_7  and  C_8
REMARK    3  A    between atoms: N_10  and  C_11
REMARK    4  A    between atoms: N_20  and  C_21
REMARK    5  A    between atoms: C_21  and  C_22
REMARK                            x       y       z     vdW  Elec       q    Type
REMARK                         _______ _______ _______ _____ _____    ______ ____
ROOT
ATOM      1  C   UNL     1       0.651  10.976  19.886  0.00  0.00    +0.000 A 
ATOM      2  C   UNL     1       1.107  11.386  18.614  0.00  0.00    +0.000 A 
ATOM      3  C   UNL     1       1.761  10.529  17.734  0.00  0.00    +0.000 A 
ATOM      4  C   UNL     1       2.040   9.220  18.099  0.00  0.00    +0.000 A 
ATOM      5  C   UNL     1       1.697   8.828  19.399  0.00  0.00    +0.000 A 
ATOM      6  C   UNL     1       1.025   9.670  20.303  0.00  0.00    +0.000 A 
ATOM      7  C   UNL     1       0.897   8.854  21.454  0.00  0.00    +0.000 A 
ATOM      8 BR   UNL     1       0.085   9.387  23.067  0.00  0.00    +0.000 Br
ATOM      9  N   UNL     1       1.448   7.645  21.330  0.00  0.00    +0.000 NA
ATOM     10  N   UNL     1       1.911   7.639  20.064  0.00  0.00    +0.000 N 
ENDROOT
BRANCH   1  13
ATOM     11  C   UNL     1       0.375  12.882  21.456  0.00  0.00    +0.000 C 
ATOM     12  O   UNL     1       1.569  13.168  21.496  0.00  0.00    +0.000 OA
ATOM     13  N   UNL     1      -0.148  11.839  20.694  0.00  0.00    +0.000 N 
ATOM     14  H   UNL     1      -1.157  11.810  20.582  0.00  0.00    +0.000 HD
BRANCH  11  20
ATOM     15  C   UNL     1      -3.541  14.356  24.228  0.00  0.00    +0.000 A 
ATOM     16  N   UNL     1      -4.059  13.126  24.364  0.00  0.00    +0.000 NA
ATOM     17  C   UNL     1      -3.422  12.102  23.776  0.00  0.00    +0.000 A 
ATOM     18  N   UNL     1      -2.293  12.136  23.051  0.00  0.00    +0.000 NA
ATOM     19  C   UNL     1      -1.755  13.381  22.927  0.00  0.00    +0.000 A 
ATOM     20  C   UNL     1      -0.557  13.717  22.216  0.00  0.00    +0.000 A 
ATOM     21  C   UNL     1      -0.305  15.078  22.312  0.00  0.00    +0.000 A 
ATOM     22  S   UNL     1      -1.462  15.932  23.203  0.00  0.00    +0.000 S 
ATOM     23  C   UNL     1      -2.354  14.500  23.506  0.00  0.00    +0.000 A 
BRANCH  15  24
ATOM     24  N   UNL     1      -4.210  15.420  24.812  0.00  0.00    +0.000 N 
ATOM     25  H   UNL     1      -4.126  15.437  25.820  0.00  0.00    +0.000 HD
ATOM     26  H   UNL     1      -4.151  16.303  24.323  0.00  0.00    +0.000 HD
ENDBRANCH  15  24
ENDBRANCH  11  20
ENDBRANCH   1  13
BRANCH  10  27
ATOM     27  C   UNL     1       2.735   6.522  19.602  0.00  0.00    +0.000 C 
BRANCH  27  28
ATOM     28  C   UNL     1       1.997   5.209  19.501  0.00  0.00    +0.000 A 
ATOM     29  C   UNL     1       1.782   4.604  18.252  0.00  0.00    +0.000 A 
ATOM     30  C   UNL     1       1.208   3.333  18.164  0.00  0.00    +0.000 A 
ATOM     31  C   UNL     1       0.842   2.650  19.322  0.00  0.00    +0.000 A 
ATOM     32  C   UNL     1       1.035   3.243  20.567  0.00  0.00    +0.000 A 
ATOM     33  C   UNL     1       1.608   4.514  20.657  0.00  0.00    +0.000 A 
ENDBRANCH  27  28
ENDBRANCH  10  27
TORSDOF 5
ENDMDL
MODEL 2
REMARK VINA RESULT:      -8.3      1.182      1.232
REMARK  Name = 
REMARK  5 active torsions:
REMARK  status: ('A' for Active; 'I' for Inactive)
REMARK    1  A    between atoms: N_1  and  C_2
REMARK    2  A    between atoms: C_7  and  C_8
REMARK    3  A    between atoms: N_10  and  C_11
REMARK    4  A    between atoms: N_20  and  C_21
REMARK    5  A    between atoms: C_21  and  C_22
REMARK                            x       y       z     vdW  Elec       q    Type
REMARK                         _______ _______ _______ _____ _____    ______ ____
ROOT
ATOM      1  C   UNL     1      -0.211  10.873  20.021  0.00  0.00    +0.000 A 
ATOM      2  C   UNL     1       0.014  11.246  18.677  0.00  0.00    +0.000 A 
ATOM      3  C   UNL     1       0.722  10.453  17.781  0.00  0.00    +0.000 A 
ATOM      4  C   UNL     1       1.290   9.257  18.193  0.00  0.00    +0.000 A 
ATOM      5  C   UNL     1       1.175   8.923  19.548  0.00  0.00    +0.000 A 
ATOM      6  C   UNL     1       0.455   9.700  20.472  0.00  0.00    +0.000 A 
ATOM      7  C   UNL     1       0.616   8.979  21.681  0.00  0.00    +0.000 A 
ATOM      8 BR   UNL     1      -0.103   9.491  23.344  0.00  0.00    +0.000 Br
ATOM      9  N   UNL     1       1.376   7.888  21.568  0.00  0.00    +0.000 NA
ATOM     10  N   UNL     1       1.689   7.857  20.257  0.00  0.00    +0.000 N 
ENDROOT
BRANCH   1  13
ATOM     11  C   UNL     1      -0.615  12.638  21.721  0.00  0.00    +0.000 C 
ATOM     12  O   UNL     1       0.565  12.966  21.826  0.00  0.00    +0.000 OA
ATOM     13  N   UNL     1      -1.070  11.639  20.864  0.00  0.00    +0.000 N 
ATOM     14  H   UNL     1      -2.073  11.579  20.715  0.00  0.00    +0.000 HD
BRANCH  11  20
ATOM     15  C   UNL     1      -4.979  14.447  23.417  0.00  0.00    +0.000 A 
ATOM     16  N   UNL     1      -5.737  13.754  22.555  0.00  0.00    +0.000 NA
ATOM     17  C   UNL     1      -5.121  12.951  21.674  0.00  0.00    +0.000 A 
ATOM     18  N   UNL     1      -3.804  12.729  21.535  0.00  0.00    +0.000 NA
ATOM     19  C   UNL     1      -3.034  13.418  22.421  0.00  0.00    +0.000 A 
ATOM     20  C   UNL     1      -1.603  13.375  22.510  0.00  0.00    +0.000 A 
ATOM     21  C   UNL     1      -1.160  14.193  23.538  0.00  0.00    +0.000 A 
ATOM     22  S   UNL     1      -2.398  14.999  24.362  0.00  0.00    +0.000 S 
ATOM     23  C   UNL     1      -3.593  14.274  23.370  0.00  0.00    +0.000 A 
BRANCH  15  24
ATOM     24  N   UNL     1      -5.609  15.297  24.312  0.00  0.00    +0.000 N 
ATOM     25  H   UNL     1      -6.317  15.876  23.878  0.00  0.00    +0.000 HD
ATOM     26  H   UNL     1      -5.817  14.908  25.222  0.00  0.00    +0.000 HD
ENDBRANCH  15  24
ENDBRANCH  11  20
ENDBRANCH   1  13
BRANCH  10  27
ATOM     27  C   UNL     1       2.661   6.878  19.770  0.00  0.00    +0.000 C 
BRANCH  27  28
ATOM     28  C   UNL     1       2.060   5.544  19.397  0.00  0.00    +0.000 A 
ATOM     29  C   UNL     1       2.157   5.059  18.082  0.00  0.00    +0.000 A 
ATOM     30  C   UNL     1       1.710   3.774  17.760  0.00  0.00    +0.000 A 
ATOM     31  C   UNL     1       1.160   2.958  18.747  0.00  0.00    +0.000 A 
ATOM     32  C   UNL     1       1.044   3.431  20.052  0.00  0.00    +0.000 A 
ATOM     33  C   UNL     1       1.489   4.715  20.375  0.00  0.00    +0.000 A 
ENDBRANCH  27  28
ENDBRANCH  10  27
TORSDOF 5
ENDMDL
MODEL 3
REMARK VINA RESULT:      -8.1      3.257      8.825
REMARK  Name = 
REMARK  5 active torsions:
REMARK  status: ('A' for Active; 'I' for Inactive)
REMARK    1  A    between atoms: N_1  and  C_2
REMARK    2  A    between atoms: C_7  and  C_8
REMARK    3  A    between atoms: N_10  and  C_11
REMARK    4  A    between atoms: N_20  and  C_21
REMARK    5  A    between atoms: C_21  and  C_22
REMARK                            x       y       z     vdW  Elec       q    Type
REMARK                         _______ _______ _______ _____ _____    ______ ____
ROOT
ATOM      1  C   UNL     1      -0.108  10.016  19.286  0.00  0.00    +0.000 A 
ATOM      2  C   UNL     1      -0.837  10.466  18.163  0.00  0.00    +0.000 A 
ATOM      3  C   UNL     1      -1.585  11.639  18.169  0.00  0.00    +0.000 A 
ATOM      4  C   UNL     1      -1.684  12.407  19.319  0.00  0.00    +0.000 A 
ATOM      5  C   UNL     1      -1.061  11.920  20.474  0.00  0.00    +0.000 A 
ATOM      6  C   UNL     1      -0.290  10.745  20.493  0.00  0.00    +0.000 A 
ATOM      7  C   UNL     1       0.127  10.665  21.845  0.00  0.00    +0.000 A 
ATOM      8 BR   UNL     1       1.199   9.293  22.563  0.00  0.00    +0.000 Br
ATOM      9  N   UNL     1      -0.343  11.645  22.620  0.00  0.00    +0.000 NA
ATOM     10  N   UNL     1      -1.046  12.413  21.763  0.00  0.00    +0.000 N 
ENDROOT
BRANCH   1  13
ATOM     11  C   UNL     1       1.835   8.821  18.303  0.00  0.00    +0.000 C 
ATOM     12  O   UNL     1       2.138   9.721  17.523  0.00  0.00    +0.000 OA
ATOM     13  N   UNL     1       0.766   8.892  19.193  0.00  0.00    +0.000 N 
ATOM     14  H   UNL     1       0.721   8.182  19.918  0.00  0.00    +0.000 HD
BRANCH  11  20
ATOM     15  C   UNL     1       3.788   4.387  19.614  0.00  0.00    +0.000 A 
ATOM     16  N   UNL     1       2.910   4.159  20.601  0.00  0.00    +0.000 NA
ATOM     17  C   UNL     1       1.970   5.086  20.840  0.00  0.00    +0.000 A 
ATOM     18  N   UNL     1       1.773   6.250  20.200  0.00  0.00    +0.000 NA
ATOM     19  C   UNL     1       2.651   6.475  19.184  0.00  0.00    +0.000 A 
ATOM     20  C   UNL     1       2.679   7.625  18.329  0.00  0.00    +0.000 A 
ATOM     21  C   UNL     1       3.701   7.509  17.399  0.00  0.00    +0.000 A 
ATOM     22  S   UNL     1       4.610   6.090  17.545  0.00  0.00    +0.000 S 
ATOM     23  C   UNL     1       3.659   5.563  18.870  0.00  0.00    +0.000 A 
BRANCH  15  24
ATOM     24  N   UNL     1       4.776   3.443  19.381  0.00  0.00    +0.000 N 
ATOM     25  H   UNL     1       5.438   3.366  20.141  0.00  0.00    +0.000 HD
ATOM     26  H   UNL     1       4.476   2.587  18.934  0.00  0.00    +0.000 HD
ENDBRANCH  15  24
ENDBRANCH  11  20
ENDBRANCH   1  13
BRANCH  10  27
ATOM     27  C   UNL     1      -1.857  13.514  22.280  0.00  0.00    +0.000 C 
BRANCH  27  28
ATOM     28  C   UNL     1      -3.227  13.100  22.761  0.00  0.00    +0.000 A 
ATOM     29  C   UNL     1      -3.426  12.702  24.094  0.00  0.00    +0.000 A 
ATOM     30  C   UNL     1      -4.711  12.434  24.574  0.00  0.00    +0.000 A 
ATOM     31  C   UNL     1      -5.813  12.561  23.730  0.00  0.00    +0.000 A 
ATOM     32  C   UNL     1      -5.630  12.940  22.403  0.00  0.00    +0.000 A 
ATOM     33  C   UNL     1      -4.346  13.207  21.921  0.00  0.00    +0.000 A 
ENDBRANCH  27  28
ENDBRANCH  10  27
TORSDOF 5
ENDMDL
MODEL 4
REMARK VINA RESULT:      -8.1      1.618      1.856
REMARK  Name = 
REMARK  5 active torsions:
REMARK  status: ('A' for Active; 'I' for Inactive)
REMARK    1  A    between atoms: N_1  and  C_2
REMARK    2  A    between atoms: C_7  and  C_8
REMARK    3  A    between atoms: N_10  and  C_11
REMARK    4  A    between atoms: N_20  and  C_21
REMARK    5  A    between atoms: C_21  and  C_22
REMARK                            x       y       z     vdW  Elec       q    Type
REMARK                         _______ _______ _______ _____ _____    ______ ____
ROOT
ATOM      1  C   UNL     1       0.317  10.990  19.895  0.00  0.00    +0.000 A 
ATOM      2  C   UNL     1       0.844  11.426  18.659  0.00  0.00    +0.000 A 
ATOM      3  C   UNL     1       1.618  10.612  17.839  0.00  0.00    +0.000 A 
ATOM      4  C   UNL     1       1.950   9.324  18.232  0.00  0.00    +0.000 A 
ATOM      5  C   UNL     1       1.532   8.912  19.503  0.00  0.00    +0.000 A 
ATOM      6  C   UNL     1       0.739   9.710  20.347  0.00  0.00    +0.000 A 
ATOM      7  C   UNL     1       0.573   8.888  21.490  0.00  0.00    +0.000 A 
ATOM      8 BR   UNL     1      -0.396   9.370  23.031  0.00  0.00    +0.000 Br
ATOM      9  N   UNL     1       1.207   7.717  21.416  0.00  0.00    +0.000 NA
ATOM     10  N   UNL     1       1.768   7.739  20.190  0.00  0.00    +0.000 N 
ENDROOT
BRANCH   1  13
ATOM     11  C   UNL     1      -1.905  12.051  20.226  0.00  0.00    +0.000 C 
ATOM     12  O   UNL     1      -2.404  11.587  19.203  0.00  0.00    +0.000 OA
ATOM     13  N   UNL     1      -0.596  11.801  20.632  0.00  0.00    +0.000 N 
ATOM     14  H   UNL     1      -0.347  12.072  21.579  0.00  0.00    +0.000 HD
BRANCH  11  20
ATOM     15  C   UNL     1      -3.456  14.992  23.985  0.00  0.00    +0.000 A 
ATOM     16  N   UNL     1      -2.252  15.085  24.567  0.00  0.00    +0.000 NA
ATOM     17  C   UNL     1      -1.223  14.432  24.003  0.00  0.00    +0.000 A 
ATOM     18  N   UNL     1      -1.230  13.680  22.892  0.00  0.00    +0.000 NA
ATOM     19  C   UNL     1      -2.448  13.600  22.288  0.00  0.00    +0.000 A 
ATOM     20  C   UNL     1      -2.752  12.873  21.090  0.00  0.00    +0.000 A 
ATOM     21  C   UNL     1      -4.091  13.027  20.761  0.00  0.00    +0.000 A 
ATOM     22  S   UNL     1      -4.963  13.988  21.846  0.00  0.00    +0.000 S 
ATOM     23  C   UNL     1      -3.569  14.246  22.809  0.00  0.00    +0.000 A 
BRANCH  15  24
ATOM     24  N   UNL     1      -4.526  15.643  24.579  0.00  0.00    +0.000 N 
ATOM     25  H   UNL     1      -4.620  15.434  25.565  0.00  0.00    +0.000 HD
ATOM     26  H   UNL     1      -4.681  16.598  24.287  0.00  0.00    +0.000 HD
ENDBRANCH  15  24
ENDBRANCH  11  20
ENDBRANCH   1  13
BRANCH  10  27
ATOM     27  C   UNL     1       2.695   6.677  19.801  0.00  0.00    +0.000 C 
BRANCH  27  28
ATOM     28  C   UNL     1       2.026   5.369  19.452  0.00  0.00    +0.000 A 
ATOM     29  C   UNL     1       2.038   4.889  18.132  0.00  0.00    +0.000 A 
ATOM     30  C   UNL     1       1.527   3.624  17.828  0.00  0.00    +0.000 A 
ATOM     31  C   UNL     1       0.997   2.823  18.838  0.00  0.00    +0.000 A 
ATOM     32  C   UNL     1       0.965   3.291  20.149  0.00  0.00    +0.000 A 
ATOM     33  C   UNL     1       1.474   4.556  20.455  0.00  0.00    +0.000 A 
ENDBRANCH  27  28
ENDBRANCH  10  27
TORSDOF 5
ENDMDL
MODEL 5
REMARK VINA RESULT:      -8.0      1.760      2.144
REMARK  Name = 
REMARK  5 active torsions:
REMARK  status: ('A' for Active; 'I' for Inactive)
REMARK    1  A    between atoms: N_1  and  C_2
REMARK    2  A    between atoms: C_7  and  C_8
REMARK    3  A    between atoms: N_10  and  C_11
REMARK    4  A    between atoms: N_20  and  C_21
REMARK    5  A    between atoms: C_21  and  C_22
REMARK                            x       y       z     vdW  Elec       q    Type
REMARK                         _______ _______ _______ _____ _____    ______ ____
ROOT
ATOM      1  C   UNL     1       0.656  10.575  19.531  0.00  0.00    +0.000 A 
ATOM      2  C   UNL     1       1.290  10.898  18.311  0.00  0.00    +0.000 A 
ATOM      3  C   UNL     1       2.098  10.002  17.619  0.00  0.00    +0.000 A 
ATOM      4  C   UNL     1       2.358   8.742  18.136  0.00  0.00    +0.000 A 
ATOM      5  C   UNL     1       1.831   8.443  19.398  0.00  0.00    +0.000 A 
ATOM      6  C   UNL     1       1.002   9.325  20.112  0.00  0.00    +0.000 A 
ATOM      7  C   UNL     1       0.723   8.602  21.298  0.00  0.00    +0.000 A 
ATOM      8 BR   UNL     1      -0.345   9.229  22.717  0.00  0.00    +0.000 Br
ATOM      9  N   UNL     1       1.324   7.412  21.366  0.00  0.00    +0.000 NA
ATOM     10  N   UNL     1       1.977   7.322  20.190  0.00  0.00    +0.000 N 
ENDROOT
BRANCH   1  13
ATOM     11  C   UNL     1      -1.619  11.551  19.738  0.00  0.00    +0.000 C 
ATOM     12  O   UNL     1      -2.118  10.862  18.852  0.00  0.00    +0.000 OA
ATOM     13  N   UNL     1      -0.284  11.465  20.129  0.00  0.00    +0.000 N 
ATOM     14  H   UNL     1      -0.024  11.938  20.990  0.00  0.00    +0.000 HD
BRANCH  11  20
ATOM     15  C   UNL     1      -3.378  14.752  23.181  0.00  0.00    +0.000 A 
ATOM     16  N   UNL     1      -2.266  14.741  23.931  0.00  0.00    +0.000 NA
ATOM     17  C   UNL     1      -1.242  13.970  23.534  0.00  0.00    +0.000 A 
ATOM     18  N   UNL     1      -1.167  13.187  22.447  0.00  0.00    +0.000 NA
ATOM     19  C   UNL     1      -2.288  13.212  21.673  0.00  0.00    +0.000 A 
ATOM     20  C   UNL     1      -2.491  12.483  20.456  0.00  0.00    +0.000 A 
ATOM     21  C   UNL     1      -3.745  12.760  19.932  0.00  0.00    +0.000 A 
ATOM     22  S   UNL     1      -4.659  13.838  20.861  0.00  0.00    +0.000 S 
ATOM     23  C   UNL     1      -3.398  13.984  22.013  0.00  0.00    +0.000 A 
BRANCH  15  24
ATOM     24  N   UNL     1      -4.448  15.526  23.601  0.00  0.00    +0.000 N 
ATOM     25  H   UNL     1      -4.269  16.520  23.536  0.00  0.00    +0.000 HD
ATOM     26  H   UNL     1      -5.365  15.198  23.332  0.00  0.00    +0.000 HD
ENDBRANCH  15  24
ENDBRANCH  11  20
ENDBRANCH   1  13
BRANCH  10  27
ATOM     27  C   UNL     1       2.897   6.210  19.958  0.00  0.00    +0.000 C 
BRANCH  27  28
ATOM     28  C   UNL     1       2.216   4.893  19.673  0.00  0.00    +0.000 A 
ATOM     29  C   UNL     1       1.777   4.073  20.726  0.00  0.00    +0.000 A 
ATOM     30  C   UNL     1       1.040   2.914  20.468  0.00  0.00    +0.000 A 
ATOM     31  C   UNL     1       0.730   2.560  19.156  0.00  0.00    +0.000 A 
ATOM     32  C   UNL     1       1.170   3.356  18.102  0.00  0.00    +0.000 A 
ATOM     33  C   UNL     1       1.908   4.513  18.357  0.00  0.00    +0.000 A 
ENDBRANCH  27  28
ENDBRANCH  10  27
TORSDOF 5
ENDMDL
MODEL 6
REMARK VINA RESULT:      -7.9      4.092      9.426
REMARK  Name = 
REMARK  5 active torsions:
REMARK  status: ('A' for Active; 'I' for Inactive)
REMARK    1  A    between atoms: N_1  and  C_2
REMARK    2  A    between atoms: C_7  and  C_8
REMARK    3  A    between atoms: N_10  and  C_11
REMARK    4  A    between atoms: N_20  and  C_21
REMARK    5  A    between atoms: C_21  and  C_22
REMARK                            x       y       z     vdW  Elec       q    Type
REMARK                         _______ _______ _______ _____ _____    ______ ____
ROOT
ATOM      1  C   UNL     1       1.249   8.807  21.203  0.00  0.00    +0.000 A 
ATOM      2  C   UNL     1       0.937   8.742  22.579  0.00  0.00    +0.000 A 
ATOM      3  C   UNL     1       0.002   9.579  23.181  0.00  0.00    +0.000 A 
ATOM      4  C   UNL     1      -0.641  10.564  22.446  0.00  0.00    +0.000 A 
ATOM      5  C   UNL     1      -0.263  10.717  21.107  0.00  0.00    +0.000 A 
ATOM      6  C   UNL     1       0.669   9.879  20.471  0.00  0.00    +0.000 A 
ATOM      7  C   UNL     1       0.721  10.406  19.157  0.00  0.00    +0.000 A 
ATOM      8 BR   UNL     1       1.807   9.740  17.771  0.00  0.00    +0.000 Br
ATOM      9  N   UNL     1      -0.052  11.478  18.969  0.00  0.00    +0.000 NA
ATOM     10  N   UNL     1      -0.662  11.639  20.161  0.00  0.00    +0.000 N 
ENDROOT
BRANCH   1  13
ATOM     11  C   UNL     1       1.757   6.489  20.467  0.00  0.00    +0.000 C 
ATOM     12  O   UNL     1       0.690   6.014  20.849  0.00  0.00    +0.000 OA
ATOM     13  N   UNL     1       2.098   7.834  20.596  0.00  0.00    +0.000 N 
ATOM     14  H   UNL     1       2.912   8.155  20.080  0.00  0.00    +0.000 HD
BRANCH  11  20
ATOM     15  C   UNL     1       5.170   4.709  17.246  0.00  0.00    +0.000 A 
ATOM     16  N   UNL     1       5.293   5.854  16.559  0.00  0.00    +0.000 NA
ATOM     17  C   UNL     1       4.546   6.903  16.938  0.00  0.00    +0.000 A 
ATOM     18  N   UNL     1       3.668   6.972  17.951  0.00  0.00    +0.000 NA
ATOM     19  C   UNL     1       3.555   5.816  18.661  0.00  0.00    +0.000 A 
ATOM     20  C   UNL     1       2.702   5.598  19.793  0.00  0.00    +0.000 A 
ATOM     21  C   UNL     1       2.858   4.305  20.271  0.00  0.00    +0.000 A 
ATOM     22  S   UNL     1       3.967   3.374  19.398  0.00  0.00    +0.000 S 
ATOM     23  C   UNL     1       4.294   4.678  18.334  0.00  0.00    +0.000 A 
BRANCH  15  24
ATOM     24  N   UNL     1       5.919   3.615  16.842  0.00  0.00    +0.000 N 
ATOM     25  H   UNL     1       6.807   3.873  16.431  0.00  0.00    +0.000 HD
ATOM     26  H   UNL     1       5.906   2.815  17.460  0.00  0.00    +0.000 HD
ENDBRANCH  15  24
ENDBRANCH  11  20
ENDBRANCH   1  13
BRANCH  10  27
ATOM     27  C   UNL     1      -1.479  12.828  20.399  0.00  0.00    +0.000 C 
BRANCH  27  28
ATOM     28  C   UNL     1      -2.965  12.561  20.427  0.00  0.00    +0.000 A 
ATOM     29  C   UNL     1      -3.714  12.808  21.590  0.00  0.00    +0.000 A 
ATOM     30  C   UNL     1      -5.106  12.678  21.583  0.00  0.00    +0.000 A 
ATOM     31  C   UNL     1      -5.767  12.299  20.416  0.00  0.00    +0.000 A 
ATOM     32  C   UNL     1      -5.037  12.036  19.260  0.00  0.00    +0.000 A 
ATOM     33  C   UNL     1      -3.645  12.165  19.265  0.00  0.00    +0.000 A 
ENDBRANCH  27  28
ENDBRANCH  10  27
TORSDOF 5
ENDMDL
MODEL 7
REMARK VINA RESULT:      -7.9      1.209      1.209
REMARK  Name = 
REMARK  5 active torsions:
REMARK  status: ('A' for Active; 'I' for Inactive)
REMARK    1  A    between atoms: N_1  and  C_2
REMARK    2  A    between atoms: C_7  and  C_8
REMARK    3  A    between atoms: N_10  and  C_11
REMARK    4  A    between atoms: N_20  and  C_21
REMARK    5  A    between atoms: C_21  and  C_22
REMARK                            x       y       z     vdW  Elec       q    Type
REMARK                         _______ _______ _______ _____ _____    ______ ____
ROOT
ATOM      1  C   UNL     1       0.622  10.665  19.645  0.00  0.00    +0.000 A 
ATOM      2  C   UNL     1       1.178  10.907  18.369  0.00  0.00    +0.000 A 
ATOM      3  C   UNL     1       1.900   9.948  17.666  0.00  0.00    +0.000 A 
ATOM      4  C   UNL     1       2.151   8.703  18.223  0.00  0.00    +0.000 A 
ATOM      5  C   UNL     1       1.705   8.483  19.532  0.00  0.00    +0.000 A 
ATOM      6  C   UNL     1       0.962   9.429  20.260  0.00  0.00    +0.000 A 
ATOM      7  C   UNL     1       0.743   8.772  21.496  0.00  0.00    +0.000 A 
ATOM      8 BR   UNL     1      -0.195   9.506  22.954  0.00  0.00    +0.000 Br
ATOM      9  N   UNL     1       1.303   7.564  21.579  0.00  0.00    +0.000 NA
ATOM     10  N   UNL     1       1.866   7.395  20.365  0.00  0.00    +0.000 N 
ENDROOT
BRANCH   1  13
ATOM     11  C   UNL     1       0.217  12.651  21.081  0.00  0.00    +0.000 C 
ATOM     12  O   UNL     1       1.402  12.849  21.335  0.00  0.00    +0.000 OA
ATOM     13  N   UNL     1      -0.240  11.618  20.264  0.00  0.00    +0.000 N 
ATOM     14  H   UNL     1      -1.210  11.659  19.967  0.00  0.00    +0.000 HD
BRANCH  11  20
ATOM     15  C   UNL     1      -4.134  14.908  22.162  0.00  0.00    +0.000 A 
ATOM     16  N   UNL     1      -4.894  14.023  21.499  0.00  0.00    +0.000 NA
ATOM     17  C   UNL     1      -4.282  13.007  20.872  0.00  0.00    +0.000 A 
ATOM     18  N   UNL     1      -2.968  12.737  20.819  0.00  0.00    +0.000 NA
ATOM     19  C   UNL     1      -2.196  13.624  21.507  0.00  0.00    +0.000 A 
ATOM     20  C   UNL     1      -0.768  13.584  21.630  0.00  0.00    +0.000 A 
ATOM     21  C   UNL     1      -0.323  14.638  22.414  0.00  0.00    +0.000 A 
ATOM     22  S   UNL     1      -1.557  15.651  22.974  0.00  0.00    +0.000 S 
ATOM     23  C   UNL     1      -2.751  14.708  22.186  0.00  0.00    +0.000 A 
BRANCH  15  24
ATOM     24  N   UNL     1      -4.761  15.973  22.790  0.00  0.00    +0.000 N 
ATOM     25  H   UNL     1      -5.067  16.689  22.145  0.00  0.00    +0.000 HD
ATOM     26  H   UNL     1      -5.380  15.736  23.553  0.00  0.00    +0.000 HD
ENDBRANCH  15  24
ENDBRANCH  11  20
ENDBRANCH   1  13
BRANCH  10  27
ATOM     27  C   UNL     1       2.726   6.237  20.122  0.00  0.00    +0.000 C 
BRANCH  27  28
ATOM     28  C   UNL     1       1.988   5.010  19.641  0.00  0.00    +0.000 A 
ATOM     29  C   UNL     1       1.942   4.695  18.273  0.00  0.00    +0.000 A 
ATOM     30  C   UNL     1       1.366   3.499  17.835  0.00  0.00    +0.000 A 
ATOM     31  C   UNL     1       0.830   2.603  18.758  0.00  0.00    +0.000 A 
ATOM     32  C   UNL     1       0.855   2.908  20.116  0.00  0.00    +0.000 A 
ATOM     33  C   UNL     1       1.429   4.103  20.556  0.00  0.00    +0.000 A 
ENDBRANCH  27  28
ENDBRANCH  10  27
TORSDOF 5
ENDMDL
MODEL 8
REMARK VINA RESULT:      -7.8      3.988      9.181
REMARK  Name = 
REMARK  5 active torsions:
REMARK  status: ('A' for Active; 'I' for Inactive)
REMARK    1  A    between atoms: N_1  and  C_2
REMARK    2  A    between atoms: C_7  and  C_8
REMARK    3  A    between atoms: N_10  and  C_11
REMARK    4  A    between atoms: N_20  and  C_21
REMARK    5  A    between atoms: C_21  and  C_22
REMARK                            x       y       z     vdW  Elec       q    Type
REMARK                         _______ _______ _______ _____ _____    ______ ____
ROOT
ATOM      1  C   UNL     1       0.792   9.253  21.521  0.00  0.00    +0.000 A 
ATOM      2  C   UNL     1       0.436   9.354  22.885  0.00  0.00    +0.000 A 
ATOM      3  C   UNL     1      -0.533  10.237  23.349  0.00  0.00    +0.000 A 
ATOM      4  C   UNL     1      -1.172  11.107  22.476  0.00  0.00    +0.000 A 
ATOM      5  C   UNL     1      -0.754  11.100  21.140  0.00  0.00    +0.000 A 
ATOM      6  C   UNL     1       0.214  10.210  20.643  0.00  0.00    +0.000 A 
ATOM      7  C   UNL     1       0.298  10.570  19.275  0.00  0.00    +0.000 A 
ATOM      8 BR   UNL     1       1.441   9.761  18.016  0.00  0.00    +0.000 Br
ATOM      9  N   UNL     1      -0.490  11.591  18.930  0.00  0.00    +0.000 NA
ATOM     10  N   UNL     1      -1.140  11.886  20.074  0.00  0.00    +0.000 N 
ENDROOT
BRANCH   1  13
ATOM     11  C   UNL     1       1.259   6.951  20.712  0.00  0.00    +0.000 C 
ATOM     12  O   UNL     1       0.088   6.582  20.741  0.00  0.00    +0.000 OA
ATOM     13  N   UNL     1       1.678   8.231  21.067  0.00  0.00    +0.000 N 
ATOM     14  H   UNL     1       2.630   8.489  20.826  0.00  0.00    +0.000 HD
BRANCH  11  20
ATOM     15  C   UNL     1       4.019   2.797  20.144  0.00  0.00    +0.000 A 
ATOM     16  N   UNL     1       3.342   2.081  21.053  0.00  0.00    +0.000 NA
ATOM     17  C   UNL     1       2.321   2.672  21.694  0.00  0.00    +0.000 A 
ATOM     18  N   UNL     1       1.861   3.924  21.540  0.00  0.00    +0.000 NA
ATOM     19  C   UNL     1       2.535   4.647  20.605  0.00  0.00    +0.000 A 
ATOM     20  C   UNL     1       2.264   6.004  20.228  0.00  0.00    +0.000 A 
ATOM     21  C   UNL     1       3.142   6.412  19.235  0.00  0.00    +0.000 A 
ATOM     22  S   UNL     1       4.262   5.231  18.775  0.00  0.00    +0.000 S 
ATOM     23  C   UNL     1       3.608   4.110  19.894  0.00  0.00    +0.000 A 
BRANCH  15  24
ATOM     24  N   UNL     1       5.089   2.199  19.499  0.00  0.00    +0.000 N 
ATOM     25  H   UNL     1       4.940   1.217  19.308  0.00  0.00    +0.000 HD
ATOM     26  H   UNL     1       5.539   2.750  18.780  0.00  0.00    +0.000 HD
ENDBRANCH  15  24
ENDBRANCH  11  20
ENDBRANCH   1  13
BRANCH  10  27
ATOM     27  C   UNL     1      -1.988  13.076  20.136  0.00  0.00    +0.000 C 
BRANCH  27  28
ATOM     28  C   UNL     1      -3.467  12.778  20.198  0.00  0.00    +0.000 A 
ATOM     29  C   UNL     1      -4.116  12.151  19.122  0.00  0.00    +0.000 A 
ATOM     30  C   UNL     1      -5.455  11.764  19.223  0.00  0.00    +0.000 A 
ATOM     31  C   UNL     1      -6.164  11.999  20.400  0.00  0.00    +0.000 A 
ATOM     32  C   UNL     1      -5.538  12.633  21.470  0.00  0.00    +0.000 A 
ATOM     33  C   UNL     1      -4.200  13.021  21.371  0.00  0.00    +0.000 A 
ENDBRANCH  27  28
ENDBRANCH  10  27
TORSDOF 5
ENDMDL
MODEL 9
REMARK VINA RESULT:      -7.7      0.817      1.190
REMARK  Name = 
REMARK  5 active torsions:
REMARK  status: ('A' for Active; 'I' for Inactive)
REMARK    1  A    between atoms: N_1  and  C_2
REMARK    2  A    between atoms: C_7  and  C_8
REMARK    3  A    between atoms: N_10  and  C_11
REMARK    4  A    between atoms: N_20  and  C_21
REMARK    5  A    between atoms: C_21  and  C_22
REMARK                            x       y       z     vdW  Elec       q    Type
REMARK                         _______ _______ _______ _____ _____    ______ ____
ROOT
ATOM      1  C   UNL     1       0.597  10.530  19.449  0.00  0.00    +0.000 A 
ATOM      2  C   UNL     1       1.221  10.768  18.204  0.00  0.00    +0.000 A 
ATOM      3  C   UNL     1       2.021   9.824  17.567  0.00  0.00    +0.000 A 
ATOM      4  C   UNL     1       2.281   8.600  18.166  0.00  0.00    +0.000 A 
ATOM      5  C   UNL     1       1.765   8.389  19.450  0.00  0.00    +0.000 A 
ATOM      6  C   UNL     1       0.944   9.320  20.110  0.00  0.00    +0.000 A 
ATOM      7  C   UNL     1       0.673   8.679  21.345  0.00  0.00    +0.000 A 
ATOM      8 BR   UNL     1      -0.380   9.405  22.727  0.00  0.00    +0.000 Br
ATOM      9  N   UNL     1       1.271   7.495  21.488  0.00  0.00    +0.000 NA
ATOM     10  N   UNL     1       1.914   7.324  20.314  0.00  0.00    +0.000 N 
ENDROOT
BRANCH   1  13
ATOM     11  C   UNL     1       0.021  12.481  20.874  0.00  0.00    +0.000 C 
ATOM     12  O   UNL     1       1.171  12.685  21.256  0.00  0.00    +0.000 OA
ATOM     13  N   UNL     1      -0.335  11.462  19.994  0.00  0.00    +0.000 N 
ATOM     14  H   UNL     1      -1.270  11.499  19.598  0.00  0.00    +0.000 HD
BRANCH  11  20
ATOM     15  C   UNL     1      -3.940  14.349  23.326  0.00  0.00    +0.000 A 
ATOM     16  N   UNL     1      -4.151  13.250  24.065  0.00  0.00    +0.000 NA
ATOM     17  C   UNL     1      -3.334  12.200  23.886  0.00  0.00    +0.000 A 
ATOM     18  N   UNL     1      -2.293  12.095  23.045  0.00  0.00    +0.000 NA
ATOM     19  C   UNL     1      -2.066  13.216  22.307  0.00  0.00    +0.000 A 
ATOM     20  C   UNL     1      -1.026  13.393  21.336  0.00  0.00    +0.000 A 
ATOM     21  C   UNL     1      -1.090  14.667  20.789  0.00  0.00    +0.000 A 
ATOM     22  S   UNL     1      -2.351  15.616  21.396  0.00  0.00    +0.000 S 
ATOM     23  C   UNL     1      -2.867  14.351  22.431  0.00  0.00    +0.000 A 
BRANCH  15  24
ATOM     24  N   UNL     1      -4.797  15.426  23.489  0.00  0.00    +0.000 N 
ATOM     25  H   UNL     1      -4.538  16.228  22.929  0.00  0.00    +0.000 HD
ATOM     26  H   UNL     1      -5.781  15.204  23.559  0.00  0.00    +0.000 HD
ENDBRANCH  15  24
ENDBRANCH  11  20
ENDBRANCH   1  13
BRANCH  10  27
ATOM     27  C   UNL     1       2.828   6.195  20.150  0.00  0.00    +0.000 C 
BRANCH  27  28
ATOM     28  C   UNL     1       2.166   4.929  19.662  0.00  0.00    +0.000 A 
ATOM     29  C   UNL     1       1.554   4.047  20.569  0.00  0.00    +0.000 A 
ATOM     30  C   UNL     1       0.836   2.938  20.112  0.00  0.00    +0.000 A 
ATOM     31  C   UNL     1       0.719   2.696  18.745  0.00  0.00    +0.000 A 
ATOM     32  C   UNL     1       1.332   3.553  17.834  0.00  0.00    +0.000 A 
ATOM     33  C   UNL     1       2.052   4.661  18.289  0.00  0.00    +0.000 A 
ENDBRANCH  27  28
ENDBRANCH  10  27
TORSDOF 5
ENDMDL
