MODEL 1
REMARK VINA RESULT:      -8.5      0.000      0.000
REMARK  Name = 
REMARK  5 active torsions:
REMARK  status: ('A' for Active; 'I' for Inactive)
REMARK    1  A    between atoms: C_2  and  C_12
REMARK    2  A    between atoms: N_3  and  C_4
REMARK    3  A    between atoms: C_4  and  C_5
REMARK    4  A    between atoms: N_20  and  C_21
REMARK    5  A    between atoms: C_21  and  C_22
REMARK                            x       y       z     vdW  Elec       q    Type
REMARK                         _______ _______ _______ _____ _____    ______ ____
ROOT
ATOM      1  C   UNL     1       2.137   6.158  19.652  0.00  0.00    +0.000 A 
ATOM      2  C   UNL     1       1.383   5.334  20.507  0.00  0.00    +0.000 A 
ATOM      3  C   UNL     1       1.511   3.935  20.466  0.00  0.00    +0.000 A 
ATOM      4  C   UNL     1       2.395   3.325  19.572  0.00  0.00    +0.000 A 
ATOM      5  C   UNL     1       3.152   4.136  18.743  0.00  0.00    +0.000 A 
ATOM      6  C   UNL     1       3.030   5.533  18.794  0.00  0.00    +0.000 A 
ATOM      7  C   UNL     1       3.990   6.082  17.821  0.00  0.00    +0.000 C 
ATOM      8  O   UNL     1       4.201   7.258  17.609  0.00  0.00    +0.000 OA
ATOM      9  N   UNL     1       4.581   5.017  17.177  0.00  0.00    +0.000 N 
ATOM     10  C   UNL     1       4.152   3.735  17.703  0.00  0.00    +0.000 C 
ENDROOT
BRANCH   1  12
ATOM     11  O   UNL     1       1.876   8.188  20.800  0.00  0.00    +0.000 OA
ATOM     12  C   UNL     1       1.902   7.626  19.713  0.00  0.00    +0.000 C 
ATOM     13  N   UNL     1       1.692   8.259  18.516  0.00  0.00    +0.000 N 
ATOM     14  H   UNL     1       1.857   7.761  17.650  0.00  0.00    +0.000 HD
BRANCH  13  15
ATOM     15  C   UNL     1       1.658   9.692  18.384  0.00  0.00    +0.000 C 
BRANCH  15  16
ATOM     16  C   UNL     1       0.244  10.191  18.477  0.00  0.00    +0.000 A 
ATOM     17  C   UNL     1      -0.711   9.728  17.561  0.00  0.00    +0.000 A 
ATOM     18  C   UNL     1      -2.023  10.204  17.611  0.00  0.00    +0.000 A 
ATOM     19  C   UNL     1      -2.381  11.145  18.572  0.00  0.00    +0.000 A 
ATOM     20 CL   UNL     1      -3.998  11.729  18.631  0.00  0.00    +0.000 Cl
ATOM     21  C   UNL     1      -1.439  11.625  19.482  0.00  0.00    +0.000 A 
ATOM     22  C   UNL     1      -0.126  11.153  19.429  0.00  0.00    +0.000 A 
ENDBRANCH  15  16
ENDBRANCH  13  15
ENDBRANCH   1  12
BRANCH   9  23
ATOM     23  C   UNL     1       5.645   5.167  16.190  0.00  0.00    +0.000 C 
BRANCH  23  24
ATOM     24  C   UNL     1       7.000   5.626  16.749  0.00  0.00    +0.000 C 
ATOM     25  C   UNL     1       7.212   5.366  18.233  0.00  0.00    +0.000 C 
ATOM     26  C   UNL     1       8.081   6.520  18.667  0.00  0.00    +0.000 C 
ATOM     27  C   UNL     1       7.718   7.630  17.706  0.00  0.00    +0.000 C 
ATOM     28  O   UNL     1       7.190   7.032  16.520  0.00  0.00    +0.000 OA
ENDBRANCH  23  24
ENDBRANCH   9  23
TORSDOF 5
ENDMDL
MODEL 2
REMARK VINA RESULT:      -8.2      1.746      2.363
REMARK  Name = 
REMARK  5 active torsions:
REMARK  status: ('A' for Active; 'I' for Inactive)
REMARK    1  A    between atoms: C_2  and  C_12
REMARK    2  A    between atoms: N_3  and  C_4
REMARK    3  A    between atoms: C_4  and  C_5
REMARK    4  A    between atoms: N_20  and  C_21
REMARK    5  A    between atoms: C_21  and  C_22
REMARK                            x       y       z     vdW  Elec       q    Type
REMARK                         _______ _______ _______ _____ _____    ______ ____
ROOT
ATOM      1  C   UNL     1       2.373   5.372  18.669  0.00  0.00    +0.000 A 
ATOM      2  C   UNL     1       1.321   4.553  19.118  0.00  0.00    +0.000 A 
ATOM      3  C   UNL     1       1.262   3.191  18.774  0.00  0.00    +0.000 A 
ATOM      4  C   UNL     1       2.252   2.614  17.974  0.00  0.00    +0.000 A 
ATOM      5  C   UNL     1       3.300   3.415  17.548  0.00  0.00    +0.000 A 
ATOM      6  C   UNL     1       3.361   4.771  17.903  0.00  0.00    +0.000 A 
ATOM      7  C   UNL     1       4.603   5.309  17.322  0.00  0.00    +0.000 C 
ATOM      8  O   UNL     1       5.020   6.442  17.448  0.00  0.00    +0.000 OA
ATOM      9  N   UNL     1       5.187   4.301  16.588  0.00  0.00    +0.000 N 
ATOM     10  C   UNL     1       4.467   3.045  16.686  0.00  0.00    +0.000 C 
ENDROOT
BRANCH   1  12
ATOM     11  O   UNL     1       2.412   7.149  20.200  0.00  0.00    +0.000 OA
ATOM     12  C   UNL     1       2.333   6.815  19.026  0.00  0.00    +0.000 C 
ATOM     13  N   UNL     1       2.173   7.694  17.987  0.00  0.00    +0.000 N 
ATOM     14  H   UNL     1       2.247   7.363  17.034  0.00  0.00    +0.000 HD
BRANCH  13  15
ATOM     15  C   UNL     1       2.322   9.118  18.136  0.00  0.00    +0.000 C 
BRANCH  15  16
ATOM     16  C   UNL     1       0.986   9.760  18.385  0.00  0.00    +0.000 A 
ATOM     17  C   UNL     1      -0.093   9.451  17.546  0.00  0.00    +0.000 A 
ATOM     18  C   UNL     1      -1.333  10.061  17.740  0.00  0.00    +0.000 A 
ATOM     19  C   UNL     1      -1.496  10.982  18.772  0.00  0.00    +0.000 A 
ATOM     20 CL   UNL     1      -3.027  11.731  19.011  0.00  0.00    +0.000 Cl
ATOM     21  C   UNL     1      -0.429  11.309  19.608  0.00  0.00    +0.000 A 
ATOM     22  C   UNL     1       0.813  10.703  19.410  0.00  0.00    +0.000 A 
ENDBRANCH  15  16
ENDBRANCH  13  15
ENDBRANCH   1  12
BRANCH   9  23
ATOM     23  C   UNL     1       6.478   4.438  15.921  0.00  0.00    +0.000 C 
BRANCH  23  24
ATOM     24  C   UNL     1       6.414   4.872  14.449  0.00  0.00    +0.000 C 
ATOM     25  C   UNL     1       6.222   3.743  13.447  0.00  0.00    +0.000 C 
ATOM     26  C   UNL     1       6.975   4.225  12.232  0.00  0.00    +0.000 C 
ATOM     27  C   UNL     1       8.049   5.123  12.803  0.00  0.00    +0.000 C 
ATOM     28  O   UNL     1       7.606   5.585  14.081  0.00  0.00    +0.000 OA
ENDBRANCH  23  24
ENDBRANCH   9  23
TORSDOF 5
ENDMDL
MODEL 3
REMARK VINA RESULT:      -8.1      1.134      1.839
REMARK  Name = 
REMARK  5 active torsions:
REMARK  status: ('A' for Active; 'I' for Inactive)
REMARK    1  A    between atoms: C_2  and  C_12
REMARK    2  A    between atoms: N_3  and  C_4
REMARK    3  A    between atoms: C_4  and  C_5
REMARK    4  A    between atoms: N_20  and  C_21
REMARK    5  A    between atoms: C_21  and  C_22
REMARK                            x       y       z     vdW  Elec       q    Type
REMARK                         _______ _______ _______ _____ _____    ______ ____
ROOT
ATOM      1  C   UNL     1       2.273   6.059  19.755  0.00  0.00    +0.000 A 
ATOM      2  C   UNL     1       1.368   5.317  20.536  0.00  0.00    +0.000 A 
ATOM      3  C   UNL     1       1.474   3.919  20.640  0.00  0.00    +0.000 A 
ATOM      4  C   UNL     1       2.486   3.228  19.968  0.00  0.00    +0.000 A 
ATOM      5  C   UNL     1       3.391   3.960  19.214  0.00  0.00    +0.000 A 
ATOM      6  C   UNL     1       3.288   5.356  19.122  0.00  0.00    +0.000 A 
ATOM      7  C   UNL     1       4.411   5.813  18.285  0.00  0.00    +0.000 C 
ATOM      8  O   UNL     1       4.677   6.965  18.012  0.00  0.00    +0.000 OA
ATOM      9  N   UNL     1       5.083   4.693  17.848  0.00  0.00    +0.000 N 
ATOM     10  C   UNL     1       4.546   3.464  18.402  0.00  0.00    +0.000 C 
ENDROOT
BRANCH   1  12
ATOM     11  O   UNL     1       1.985   8.202  20.665  0.00  0.00    +0.000 OA
ATOM     12  C   UNL     1       2.059   7.527  19.648  0.00  0.00    +0.000 C 
ATOM     13  N   UNL     1       1.923   8.030  18.380  0.00  0.00    +0.000 N 
ATOM     14  H   UNL     1       2.125   7.441  17.582  0.00  0.00    +0.000 HD
BRANCH  13  15
ATOM     15  C   UNL     1       1.919   9.441  18.095  0.00  0.00    +0.000 C 
BRANCH  15  16
ATOM     16  C   UNL     1       0.544  10.012  18.301  0.00  0.00    +0.000 A 
ATOM     17  C   UNL     1      -0.518   9.552  17.511  0.00  0.00    +0.000 A 
ATOM     18  C   UNL     1      -1.796  10.092  17.665  0.00  0.00    +0.000 A 
ATOM     19  C   UNL     1      -2.013  11.095  18.607  0.00  0.00    +0.000 A 
ATOM     20 CL   UNL     1      -3.589  11.759  18.796  0.00  0.00    +0.000 Cl
ATOM     21  C   UNL     1      -0.964  11.572  19.392  0.00  0.00    +0.000 A 
ATOM     22  C   UNL     1       0.316  11.035  19.234  0.00  0.00    +0.000 A 
ENDBRANCH  15  16
ENDBRANCH  13  15
ENDBRANCH   1  12
BRANCH   9  23
ATOM     23  C   UNL     1       6.304   4.751  17.050  0.00  0.00    +0.000 C 
BRANCH  23  24
ATOM     24  C   UNL     1       6.096   5.010  15.551  0.00  0.00    +0.000 C 
ATOM     25  C   UNL     1       5.661   3.801  14.736  0.00  0.00    +0.000 C 
ATOM     26  C   UNL     1       6.298   4.043  13.390  0.00  0.00    +0.000 C 
ATOM     27  C   UNL     1       7.523   4.868  13.710  0.00  0.00    +0.000 C 
ATOM     28  O   UNL     1       7.299   5.528  14.957  0.00  0.00    +0.000 OA
ENDBRANCH  23  24
ENDBRANCH   9  23
TORSDOF 5
ENDMDL
MODEL 4
REMARK VINA RESULT:      -8.0      2.944      7.247
REMARK  Name = 
REMARK  5 active torsions:
REMARK  status: ('A' for Active; 'I' for Inactive)
REMARK    1  A    between atoms: C_2  and  C_12
REMARK    2  A    between atoms: N_3  and  C_4
REMARK    3  A    between atoms: C_4  and  C_5
REMARK    4  A    between atoms: N_20  and  C_21
REMARK    5  A    between atoms: C_21  and  C_22
REMARK                            x       y       z     vdW  Elec       q    Type
REMARK                         _______ _______ _______ _____ _____    ______ ____
ROOT
ATOM      1  C   UNL     1       3.382   3.715  19.199  0.00  0.00    +0.000 A 
ATOM      2  C   UNL     1       2.954   2.509  19.784  0.00  0.00    +0.000 A 
ATOM      3  C   UNL     1       1.935   2.493  20.753  0.00  0.00    +0.000 A 
ATOM      4  C   UNL     1       1.318   3.679  21.159  0.00  0.00    +0.000 A 
ATOM      5  C   UNL     1       1.725   4.865  20.569  0.00  0.00    +0.000 A 
ATOM      6  C   UNL     1       2.735   4.876  19.595  0.00  0.00    +0.000 A 
ATOM      7  C   UNL     1       2.893   6.275  19.159  0.00  0.00    +0.000 C 
ATOM      8  O   UNL     1       3.649   6.674  18.298  0.00  0.00    +0.000 OA
ATOM      9  N   UNL     1       2.050   7.045  19.928  0.00  0.00    +0.000 N 
ATOM     10  C   UNL     1       1.235   6.255  20.832  0.00  0.00    +0.000 C 
ENDROOT
BRANCH   1  12
ATOM     11  O   UNL     1       4.300   3.258  17.089  0.00  0.00    +0.000 OA
ATOM     12  C   UNL     1       4.506   3.656  18.227  0.00  0.00    +0.000 C 
ATOM     13  N   UNL     1       5.738   4.033  18.697  0.00  0.00    +0.000 N 
ATOM     14  H   UNL     1       5.814   4.475  19.604  0.00  0.00    +0.000 HD
BRANCH  13  15
ATOM     15  C   UNL     1       6.876   4.231  17.839  0.00  0.00    +0.000 C 
BRANCH  15  16
ATOM     16  C   UNL     1       7.338   5.659  17.907  0.00  0.00    +0.000 A 
ATOM     17  C   UNL     1       8.082   6.089  19.014  0.00  0.00    +0.000 A 
ATOM     18  C   UNL     1       8.494   7.420  19.112  0.00  0.00    +0.000 A 
ATOM     19  C   UNL     1       8.159   8.322  18.105  0.00  0.00    +0.000 A 
ATOM     20 CL   UNL     1       8.668   9.962  18.228  0.00  0.00    +0.000 Cl
ATOM     21  C   UNL     1       7.409   7.912  17.004  0.00  0.00    +0.000 A 
ATOM     22  C   UNL     1       6.992   6.583  16.908  0.00  0.00    +0.000 A 
ENDBRANCH  15  16
ENDBRANCH  13  15
ENDBRANCH   1  12
BRANCH   9  23
ATOM     23  C   UNL     1       1.877   8.481  19.735  0.00  0.00    +0.000 C 
BRANCH  23  24
ATOM     24  C   UNL     1       0.672   9.101  20.458  0.00  0.00    +0.000 C 
ATOM     25  C   UNL     1      -0.241   9.953  19.588  0.00  0.00    +0.000 C 
ATOM     26  C   UNL     1      -0.744  11.008  20.541  0.00  0.00    +0.000 C 
ATOM     27  C   UNL     1       0.364  11.134  21.562  0.00  0.00    +0.000 C 
ATOM     28  O   UNL     1       1.108   9.913  21.560  0.00  0.00    +0.000 OA
ENDBRANCH  23  24
ENDBRANCH   9  23
TORSDOF 5
ENDMDL
MODEL 5
REMARK VINA RESULT:      -8.0      2.984      7.054
REMARK  Name = 
REMARK  5 active torsions:
REMARK  status: ('A' for Active; 'I' for Inactive)
REMARK    1  A    between atoms: C_2  and  C_12
REMARK    2  A    between atoms: N_3  and  C_4
REMARK    3  A    between atoms: C_4  and  C_5
REMARK    4  A    between atoms: N_20  and  C_21
REMARK    5  A    between atoms: C_21  and  C_22
REMARK                            x       y       z     vdW  Elec       q    Type
REMARK                         _______ _______ _______ _____ _____    ______ ____
ROOT
ATOM      1  C   UNL     1       3.045   3.632  18.012  0.00  0.00    +0.000 A 
ATOM      2  C   UNL     1       2.484   2.342  18.034  0.00  0.00    +0.000 A 
ATOM      3  C   UNL     1       1.452   2.014  18.930  0.00  0.00    +0.000 A 
ATOM      4  C   UNL     1       0.953   2.966  19.824  0.00  0.00    +0.000 A 
ATOM      5  C   UNL     1       1.491   4.243  19.789  0.00  0.00    +0.000 A 
ATOM      6  C   UNL     1       2.514   4.570  18.886  0.00  0.00    +0.000 A 
ATOM      7  C   UNL     1       2.824   5.996  19.088  0.00  0.00    +0.000 C 
ATOM      8  O   UNL     1       3.632   6.648  18.460  0.00  0.00    +0.000 OA
ATOM      9  N   UNL     1       2.051   6.442  20.137  0.00  0.00    +0.000 N 
ATOM     10  C   UNL     1       1.143   5.427  20.637  0.00  0.00    +0.000 C 
ENDROOT
BRANCH   1  12
ATOM     11  O   UNL     1       3.940   4.220  15.924  0.00  0.00    +0.000 OA
ATOM     12  C   UNL     1       4.174   3.884  17.077  0.00  0.00    +0.000 C 
ATOM     13  N   UNL     1       5.435   3.686  17.578  0.00  0.00    +0.000 N 
ATOM     14  H   UNL     1       5.562   3.537  18.571  0.00  0.00    +0.000 HD
BRANCH  13  15
ATOM     15  C   UNL     1       6.627   4.082  16.877  0.00  0.00    +0.000 C 
BRANCH  15  16
ATOM     16  C   UNL     1       7.138   5.389  17.413  0.00  0.00    +0.000 A 
ATOM     17  C   UNL     1       6.976   6.555  16.652  0.00  0.00    +0.000 A 
ATOM     18  C   UNL     1       7.472   7.774  17.117  0.00  0.00    +0.000 A 
ATOM     19  C   UNL     1       8.133   7.829  18.342  0.00  0.00    +0.000 A 
ATOM     20 CL   UNL     1       8.742   9.334  18.914  0.00  0.00    +0.000 Cl
ATOM     21  C   UNL     1       8.313   6.676  19.104  0.00  0.00    +0.000 A 
ATOM     22  C   UNL     1       7.822   5.456  18.637  0.00  0.00    +0.000 A 
ENDBRANCH  15  16
ENDBRANCH  13  15
ENDBRANCH   1  12
BRANCH   9  23
ATOM     23  C   UNL     1       2.030   7.831  20.584  0.00  0.00    +0.000 C 
BRANCH  23  24
ATOM     24  C   UNL     1       0.992   8.727  19.894  0.00  0.00    +0.000 C 
ATOM     25  C   UNL     1       1.447   9.364  18.589  0.00  0.00    +0.000 C 
ATOM     26  C   UNL     1       0.720  10.686  18.576  0.00  0.00    +0.000 C 
ATOM     27  C   UNL     1       0.528  11.010  20.040  0.00  0.00    +0.000 C 
ATOM     28  O   UNL     1       0.574   9.785  20.774  0.00  0.00    +0.000 OA
ENDBRANCH  23  24
ENDBRANCH   9  23
TORSDOF 5
ENDMDL
MODEL 6
REMARK VINA RESULT:      -7.9      3.024      7.262
REMARK  Name = 
REMARK  5 active torsions:
REMARK  status: ('A' for Active; 'I' for Inactive)
REMARK    1  A    between atoms: C_2  and  C_12
REMARK    2  A    between atoms: N_3  and  C_4
REMARK    3  A    between atoms: C_4  and  C_5
REMARK    4  A    between atoms: N_20  and  C_21
REMARK    5  A    between atoms: C_21  and  C_22
REMARK                            x       y       z     vdW  Elec       q    Type
REMARK                         _______ _______ _______ _____ _____    ______ ____
ROOT
ATOM      1  C   UNL     1       3.087   3.708  18.678  0.00  0.00    +0.000 A 
ATOM      2  C   UNL     1       2.588   2.434  19.007  0.00  0.00    +0.000 A 
ATOM      3  C   UNL     1       1.582   2.275  19.976  0.00  0.00    +0.000 A 
ATOM      4  C   UNL     1       1.049   3.384  20.639  0.00  0.00    +0.000 A 
ATOM      5  C   UNL     1       1.526   4.641  20.302  0.00  0.00    +0.000 A 
ATOM      6  C   UNL     1       2.522   4.796  19.326  0.00  0.00    +0.000 A 
ATOM      7  C   UNL     1       2.767   6.243  19.191  0.00  0.00    +0.000 C 
ATOM      8  O   UNL     1       3.536   6.769  18.414  0.00  0.00    +0.000 OA
ATOM      9  N   UNL     1       1.985   6.883  20.127  0.00  0.00    +0.000 N 
ATOM     10  C   UNL     1       1.132   5.971  20.865  0.00  0.00    +0.000 C 
ENDROOT
BRANCH   1  12
ATOM     11  O   UNL     1       3.944   3.678  16.494  0.00  0.00    +0.000 OA
ATOM     12  C   UNL     1       4.193   3.788  17.687  0.00  0.00    +0.000 C 
ATOM     13  N   UNL     1       5.456   3.950  18.195  0.00  0.00    +0.000 N 
ATOM     14  H   UNL     1       5.577   4.165  19.177  0.00  0.00    +0.000 HD
BRANCH  13  15
ATOM     15  C   UNL     1       6.598   4.252  17.373  0.00  0.00    +0.000 C 
BRANCH  15  16
ATOM     16  C   UNL     1       7.141   5.611  17.713  0.00  0.00    +0.000 A 
ATOM     17  C   UNL     1       6.914   6.681  16.837  0.00  0.00    +0.000 A 
ATOM     18  C   UNL     1       7.438   7.945  17.119  0.00  0.00    +0.000 A 
ATOM     19  C   UNL     1       8.191   8.139  18.274  0.00  0.00    +0.000 A 
ATOM     20 CL   UNL     1       8.834   9.697  18.619  0.00  0.00    +0.000 Cl
ATOM     21  C   UNL     1       8.436   7.081  19.149  0.00  0.00    +0.000 A 
ATOM     22  C   UNL     1       7.917   5.816  18.865  0.00  0.00    +0.000 A 
ENDBRANCH  15  16
ENDBRANCH  13  15
ENDBRANCH   1  12
BRANCH   9  23
ATOM     23  C   UNL     1       1.904   8.336  20.245  0.00  0.00    +0.000 C 
BRANCH  23  24
ATOM     24  C   UNL     1       0.546   8.882  20.711  0.00  0.00    +0.000 C 
ATOM     25  C   UNL     1      -0.034   9.997  19.855  0.00  0.00    +0.000 C 
ATOM     26  C   UNL     1      -0.788  10.844  20.851  0.00  0.00    +0.000 C 
ATOM     27  C   UNL     1      -0.049  10.620  22.151  0.00  0.00    +0.000 C 
ATOM     28  O   UNL     1       0.634   9.368  22.061  0.00  0.00    +0.000 OA
ENDBRANCH  23  24
ENDBRANCH   9  23
TORSDOF 5
ENDMDL
MODEL 7
REMARK VINA RESULT:      -7.8      1.402      2.067
REMARK  Name = 
REMARK  5 active torsions:
REMARK  status: ('A' for Active; 'I' for Inactive)
REMARK    1  A    between atoms: C_2  and  C_12
REMARK    2  A    between atoms: N_3  and  C_4
REMARK    3  A    between atoms: C_4  and  C_5
REMARK    4  A    between atoms: N_20  and  C_21
REMARK    5  A    between atoms: C_21  and  C_22
REMARK                            x       y       z     vdW  Elec       q    Type
REMARK                         _______ _______ _______ _____ _____    ______ ____
ROOT
ATOM      1  C   UNL     1       2.261   4.293  19.459  0.00  0.00    +0.000 A 
ATOM      2  C   UNL     1       1.531   3.098  19.592  0.00  0.00    +0.000 A 
ATOM      3  C   UNL     1       1.629   2.075  18.633  0.00  0.00    +0.000 A 
ATOM      4  C   UNL     1       2.459   2.221  17.518  0.00  0.00    +0.000 A 
ATOM      5  C   UNL     1       3.194   3.389  17.395  0.00  0.00    +0.000 A 
ATOM      6  C   UNL     1       3.102   4.403  18.361  0.00  0.00    +0.000 A 
ATOM      7  C   UNL     1       4.026   5.473  17.947  0.00  0.00    +0.000 C 
ATOM      8  O   UNL     1       4.250   6.499  18.554  0.00  0.00    +0.000 OA
ATOM      9  N   UNL     1       4.566   5.106  16.734  0.00  0.00    +0.000 N 
ATOM     10  C   UNL     1       4.137   3.789  16.304  0.00  0.00    +0.000 C 
ENDROOT
BRANCH   1  12
ATOM     11  O   UNL     1       2.150   5.068  21.670  0.00  0.00    +0.000 OA
ATOM     12  C   UNL     1       2.058   5.351  20.484  0.00  0.00    +0.000 C 
ATOM     13  N   UNL     1       1.738   6.599  20.015  0.00  0.00    +0.000 N 
ATOM     14  H   UNL     1       1.807   6.795  19.024  0.00  0.00    +0.000 HD
BRANCH  13  15
ATOM     15  C   UNL     1       1.715   7.768  20.854  0.00  0.00    +0.000 C 
BRANCH  15  16
ATOM     16  C   UNL     1       1.019   8.900  20.153  0.00  0.00    +0.000 A 
ATOM     17  C   UNL     1       0.003   9.600  20.817  0.00  0.00    +0.000 A 
ATOM     18  C   UNL     1      -0.678  10.634  20.172  0.00  0.00    +0.000 A 
ATOM     19  C   UNL     1      -0.347  10.967  18.860  0.00  0.00    +0.000 A 
ATOM     20 CL   UNL     1      -1.187  12.242  18.067  0.00  0.00    +0.000 Cl
ATOM     21  C   UNL     1       0.653  10.272  18.182  0.00  0.00    +0.000 A 
ATOM     22  C   UNL     1       1.331   9.234  18.825  0.00  0.00    +0.000 A 
ENDBRANCH  15  16
ENDBRANCH  13  15
ENDBRANCH   1  12
BRANCH   9  23
ATOM     23  C   UNL     1       5.587   5.887  16.042  0.00  0.00    +0.000 C 
BRANCH  23  24
ATOM     24  C   UNL     1       6.982   5.860  16.683  0.00  0.00    +0.000 C 
ATOM     25  C   UNL     1       7.139   4.904  17.857  0.00  0.00    +0.000 C 
ATOM     26  C   UNL     1       8.143   5.601  18.741  0.00  0.00    +0.000 C 
ATOM     27  C   UNL     1       7.940   7.068  18.435  0.00  0.00    +0.000 C 
ATOM     28  O   UNL     1       7.355   7.172  17.136  0.00  0.00    +0.000 OA
ENDBRANCH  23  24
ENDBRANCH   9  23
TORSDOF 5
ENDMDL
MODEL 8
REMARK VINA RESULT:      -7.7      0.872      1.365
REMARK  Name = 
REMARK  5 active torsions:
REMARK  status: ('A' for Active; 'I' for Inactive)
REMARK    1  A    between atoms: C_2  and  C_12
REMARK    2  A    between atoms: N_3  and  C_4
REMARK    3  A    between atoms: C_4  and  C_5
REMARK    4  A    between atoms: N_20  and  C_21
REMARK    5  A    between atoms: C_21  and  C_22
REMARK                            x       y       z     vdW  Elec       q    Type
REMARK                         _______ _______ _______ _____ _____    ______ ____
ROOT
ATOM      1  C   UNL     1       1.862   6.546  20.018  0.00  0.00    +0.000 A 
ATOM      2  C   UNL     1       1.241   5.603  20.858  0.00  0.00    +0.000 A 
ATOM      3  C   UNL     1       1.426   4.224  20.663  0.00  0.00    +0.000 A 
ATOM      4  C   UNL     1       2.236   3.752  19.626  0.00  0.00    +0.000 A 
ATOM      5  C   UNL     1       2.864   4.680  18.810  0.00  0.00    +0.000 A 
ATOM      6  C   UNL     1       2.685   6.056  19.015  0.00  0.00    +0.000 A 
ATOM      7  C   UNL     1       3.510   6.749  18.009  0.00  0.00    +0.000 C 
ATOM      8  O   UNL     1       3.644   7.949  17.897  0.00  0.00    +0.000 OA
ATOM      9  N   UNL     1       4.076   5.785  17.205  0.00  0.00    +0.000 N 
ATOM     10  C   UNL     1       3.764   4.436  17.639  0.00  0.00    +0.000 C 
ENDROOT
BRANCH   1  12
ATOM     11  O   UNL     1       1.688   8.451  21.376  0.00  0.00    +0.000 OA
ATOM     12  C   UNL     1       1.569   7.986  20.251  0.00  0.00    +0.000 C 
ATOM     13  N   UNL     1       1.141   8.703  19.164  0.00  0.00    +0.000 N 
ATOM     14  H   UNL     1       1.190   8.292  18.241  0.00  0.00    +0.000 HD
BRANCH  13  15
ATOM     15  C   UNL     1       1.017  10.137  19.173  0.00  0.00    +0.000 C 
BRANCH  15  16
ATOM     16  C   UNL     1      -0.346  10.546  18.689  0.00  0.00    +0.000 A 
ATOM     17  C   UNL     1      -0.997  11.626  19.301  0.00  0.00    +0.000 A 
ATOM     18  C   UNL     1      -2.277  12.001  18.889  0.00  0.00    +0.000 A 
ATOM     19  C   UNL     1      -2.908  11.296  17.867  0.00  0.00    +0.000 A 
ATOM     20 CL   UNL     1      -4.485  11.762  17.359  0.00  0.00    +0.000 Cl
ATOM     21  C   UNL     1      -2.278  10.212  17.257  0.00  0.00    +0.000 A 
ATOM     22  C   UNL     1      -1.001   9.833  17.673  0.00  0.00    +0.000 A 
ENDBRANCH  15  16
ENDBRANCH  13  15
ENDBRANCH   1  12
BRANCH   9  23
ATOM     23  C   UNL     1       5.021   6.087  16.134  0.00  0.00    +0.000 C 
BRANCH  23  24
ATOM     24  C   UNL     1       6.501   5.881  16.487  0.00  0.00    +0.000 C 
ATOM     25  C   UNL     1       6.906   4.443  16.776  0.00  0.00    +0.000 C 
ATOM     26  C   UNL     1       7.997   4.590  17.807  0.00  0.00    +0.000 C 
ATOM     27  C   UNL     1       7.658   5.882  18.514  0.00  0.00    +0.000 C 
ATOM     28  O   UNL     1       6.863   6.674  17.630  0.00  0.00    +0.000 OA
ENDBRANCH  23  24
ENDBRANCH   9  23
TORSDOF 5
ENDMDL
MODEL 9
REMARK VINA RESULT:      -7.6      1.712      2.127
REMARK  Name = 
REMARK  5 active torsions:
REMARK  status: ('A' for Active; 'I' for Inactive)
REMARK    1  A    between atoms: C_2  and  C_12
REMARK    2  A    between atoms: N_3  and  C_4
REMARK    3  A    between atoms: C_4  and  C_5
REMARK    4  A    between atoms: N_20  and  C_21
REMARK    5  A    between atoms: C_21  and  C_22
REMARK                            x       y       z     vdW  Elec       q    Type
REMARK                         _______ _______ _______ _____ _____    ______ ____
ROOT
ATOM      1  C   UNL     1       2.321   6.563  19.432  0.00  0.00    +0.000 A 
ATOM      2  C   UNL     1       1.552   6.074  20.504  0.00  0.00    +0.000 A 
ATOM      3  C   UNL     1       1.781   4.794  21.037  0.00  0.00    +0.000 A 
ATOM      4  C   UNL     1       2.783   3.972  20.514  0.00  0.00    +0.000 A 
ATOM      5  C   UNL     1       3.554   4.460  19.471  0.00  0.00    +0.000 A 
ATOM      6  C   UNL     1       3.330   5.743  18.949  0.00  0.00    +0.000 A 
ATOM      7  C   UNL     1       4.333   5.955  17.891  0.00  0.00    +0.000 C 
ATOM      8  O   UNL     1       4.479   6.966  17.236  0.00  0.00    +0.000 OA
ATOM      9  N   UNL     1       5.054   4.788  17.765  0.00  0.00    +0.000 N 
ATOM     10  C   UNL     1       4.670   3.783  18.738  0.00  0.00    +0.000 C 
ENDROOT
BRANCH   1  12
ATOM     11  O   UNL     1       2.119   8.120  17.688  0.00  0.00    +0.000 OA
ATOM     12  C   UNL     1       1.978   7.903  18.884  0.00  0.00    +0.000 C 
ATOM     13  N   UNL     1       1.549   8.839  19.788  0.00  0.00    +0.000 N 
ATOM     14  H   UNL     1       1.331   8.558  20.736  0.00  0.00    +0.000 HD
BRANCH  13  15
ATOM     15  C   UNL     1       0.986  10.105  19.398  0.00  0.00    +0.000 C 
BRANCH  15  16
ATOM     16  C   UNL     1       0.074  10.624  20.473  0.00  0.00    +0.000 A 
ATOM     17  C   UNL     1       0.086  10.019  21.737  0.00  0.00    +0.000 A 
ATOM     18  C   UNL     1      -0.777  10.465  22.740  0.00  0.00    +0.000 A 
ATOM     19  C   UNL     1      -1.654  11.515  22.479  0.00  0.00    +0.000 A 
ATOM     20 CL   UNL     1      -2.715  12.064  23.718  0.00  0.00    +0.000 Cl
ATOM     21  C   UNL     1      -1.687  12.119  21.224  0.00  0.00    +0.000 A 
ATOM     22  C   UNL     1      -0.828  11.669  20.219  0.00  0.00    +0.000 A 
ENDBRANCH  15  16
ENDBRANCH  13  15
ENDBRANCH   1  12
BRANCH   9  23
ATOM     23  C   UNL     1       6.190   4.641  16.861  0.00  0.00    +0.000 C 
BRANCH  23  24
ATOM     24  C   UNL     1       7.439   5.450  17.239  0.00  0.00    +0.000 C 
ATOM     25  C   UNL     1       7.590   5.758  18.721  0.00  0.00    +0.000 C 
ATOM     26  C   UNL     1       8.278   7.101  18.729  0.00  0.00    +0.000 C 
ATOM     27  C   UNL     1       7.839   7.742  17.432  0.00  0.00    +0.000 C 
ATOM     28  O   UNL     1       7.465   6.700  16.528  0.00  0.00    +0.000 OA
ENDBRANCH  23  24
ENDBRANCH   9  23
TORSDOF 5
ENDMDL
