MODEL 1
REMARK VINA RESULT:      -8.2      0.000      0.000
REMARK  Name = 
REMARK  13 active torsions:
REMARK  status: ('A' for Active; 'I' for Inactive)
REMARK    1  A    between atoms: C_1  and  O_2
REMARK    2  A    between atoms: O_2  and  C_3
REMARK    3  A    between atoms: C_6  and  O_7
REMARK    4  A    between atoms: O_7  and  C_8
REMARK    5  A    between atoms: C_9  and  C_10
REMARK    6  A    between atoms: C_10  and  C_11
REMARK    7  A    between atoms: C_11  and  C_12
REMARK    8  A    between atoms: C_12  and  C_13
REMARK    9  A    between atoms: N_15  and  C_16
REMARK   10  A    between atoms: C_16  and  C_17
REMARK   11  A    between atoms: C_16  and  C_24
REMARK   12  A    between atoms: C_17  and  C_18
REMARK   13  A    between atoms: C_24  and  C_26
REMARK                            x       y       z     vdW  Elec       q    Type
REMARK                         _______ _______ _______ _____ _____    ______ ____
ROOT
ATOM      1  C   UNL     1       7.781   7.616  17.903  0.00  0.00    +0.000 C 
ATOM      2  O   UNL     1       8.171   6.918  18.834  0.00  0.00    +0.000 OA
ATOM      3  N   UNL     1       6.790   7.218  17.037  0.00  0.00    +0.000 N 
ATOM      4  H   UNL     1       6.517   7.820  16.264  0.00  0.00    +0.000 HD
ENDROOT
BRANCH   1   5
ATOM      5  C   UNL     1       8.381   8.979  17.604  0.00  0.00    +0.000 C 
BRANCH   5   6
ATOM      6  C   UNL     1       8.861   9.676  18.884  0.00  0.00    +0.000 C 
BRANCH   6   7
ATOM      7  C   UNL     1       9.939  10.727  18.596  0.00  0.00    +0.000 C 
BRANCH   7  12
ATOM      8  C   UNL     1       9.410  12.687  21.820  0.00  0.00    +0.000 A 
ATOM      9  C   UNL     1      10.007  13.905  21.512  0.00  0.00    +0.000 A 
ATOM     10  C   UNL     1      10.558  14.126  20.251  0.00  0.00    +0.000 A 
ATOM     11  C   UNL     1      10.511  13.132  19.267  0.00  0.00    +0.000 A 
ATOM     12  C   UNL     1       9.950  11.880  19.579  0.00  0.00    +0.000 A 
ATOM     13  C   UNL     1       9.387  11.676  20.857  0.00  0.00    +0.000 A 
BRANCH   8  15
ATOM     14  C   UNL     1       7.941  11.596  23.339  0.00  0.00    +0.000 C 
ATOM     15  O   UNL     1       8.895  12.616  23.085  0.00  0.00    +0.000 OA
ENDBRANCH   8  15
BRANCH  11  16
ATOM     16  O   UNL     1      11.027  13.295  18.007  0.00  0.00    +0.000 OA
ATOM     17  C   UNL     1      12.175  14.135  17.918  0.00  0.00    +0.000 C 
ENDBRANCH  11  16
ENDBRANCH   7  12
ENDBRANCH   6   7
ENDBRANCH   5   6
ENDBRANCH   1   5
BRANCH   3  18
ATOM     18  C   UNL     1       6.197   5.871  17.076  0.00  0.00    +0.000 C 
BRANCH  18  19
ATOM     19  C   UNL     1       7.159   4.885  16.412  0.00  0.00    +0.000 C 
ATOM     20  O   UNL     1       8.015   4.240  17.018  0.00  0.00    +0.000 OA
BRANCH  19  21
ATOM     21  C   UNL     1       6.960   4.611  14.915  0.00  0.00    +0.000 C 
ATOM     22  N   UNL     1       7.602   5.476  14.078  0.00  0.00    +0.000 N 
ATOM     23  O   UNL     1       6.290   3.673  14.510  0.00  0.00    +0.000 OA
ATOM     24  H   UNL     1       8.210   6.197  14.450  0.00  0.00    +0.000 HD
ATOM     25  H   UNL     1       7.543   5.335  13.076  0.00  0.00    +0.000 HD
ENDBRANCH  19  21
ENDBRANCH  18  19
BRANCH  18  26
ATOM     26  C   UNL     1       4.764   5.814  16.523  0.00  0.00    +0.000 C 
BRANCH  26  27
ATOM     27  C   UNL     1       3.749   5.007  17.300  0.00  0.00    +0.000 A 
ATOM     28  C   UNL     1       3.640   3.621  17.132  0.00  0.00    +0.000 A 
ATOM     29  C   UNL     1       2.822   2.869  17.980  0.00  0.00    +0.000 A 
ATOM     30  C   UNL     1       2.102   3.497  18.995  0.00  0.00    +0.000 A 
ATOM     31  C   UNL     1       2.173   4.879  19.145  0.00  0.00    +0.000 A 
ATOM     32  C   UNL     1       2.986   5.632  18.297  0.00  0.00    +0.000 A 
ENDBRANCH  26  27
ENDBRANCH  18  26
ENDBRANCH   3  18
TORSDOF 11
ENDMDL
MODEL 2
REMARK VINA RESULT:      -8.1      5.354      6.392
REMARK  Name = 
REMARK  13 active torsions:
REMARK  status: ('A' for Active; 'I' for Inactive)
REMARK    1  A    between atoms: C_1  and  O_2
REMARK    2  A    between atoms: O_2  and  C_3
REMARK    3  A    between atoms: C_6  and  O_7
REMARK    4  A    between atoms: O_7  and  C_8
REMARK    5  A    between atoms: C_9  and  C_10
REMARK    6  A    between atoms: C_10  and  C_11
REMARK    7  A    between atoms: C_11  and  C_12
REMARK    8  A    between atoms: C_12  and  C_13
REMARK    9  A    between atoms: N_15  and  C_16
REMARK   10  A    between atoms: C_16  and  C_17
REMARK   11  A    between atoms: C_16  and  C_24
REMARK   12  A    between atoms: C_17  and  C_18
REMARK   13  A    between atoms: C_24  and  C_26
REMARK                            x       y       z     vdW  Elec       q    Type
REMARK                         _______ _______ _______ _____ _____    ______ ____
ROOT
ATOM      1  C   UNL     1       3.735   6.450  18.153  0.00  0.00    +0.000 C 
ATOM      2  O   UNL     1       3.771   6.162  19.345  0.00  0.00    +0.000 OA
ATOM      3  N   UNL     1       4.129   5.581  17.163  0.00  0.00    +0.000 N 
ATOM      4  H   UNL     1       4.106   5.872  16.189  0.00  0.00    +0.000 HD
ENDROOT
BRANCH   1   5
ATOM      5  C   UNL     1       3.277   7.812  17.660  0.00  0.00    +0.000 C 
BRANCH   5   6
ATOM      6  C   UNL     1       1.870   8.150  18.171  0.00  0.00    +0.000 C 
BRANCH   6   7
ATOM      7  C   UNL     1       1.453   9.578  17.800  0.00  0.00    +0.000 C 
BRANCH   7  12
ATOM      8  C   UNL     1      -0.024  10.608  21.157  0.00  0.00    +0.000 A 
ATOM      9  C   UNL     1       0.450  11.909  21.288  0.00  0.00    +0.000 A 
ATOM     10  C   UNL     1       1.222  12.487  20.282  0.00  0.00    +0.000 A 
ATOM     11  C   UNL     1       1.527  11.774  19.117  0.00  0.00    +0.000 A 
ATOM     12  C   UNL     1       1.093  10.441  18.991  0.00  0.00    +0.000 A 
ATOM     13  C   UNL     1       0.301   9.875  20.014  0.00  0.00    +0.000 A 
BRANCH   8  15
ATOM     14  C   UNL     1      -1.341  11.172  23.056  0.00  0.00    +0.000 C 
ATOM     15  O   UNL     1      -0.784  10.177  22.209  0.00  0.00    +0.000 OA
ENDBRANCH   8  15
BRANCH  11  16
ATOM     16  O   UNL     1       2.274  12.292  18.091  0.00  0.00    +0.000 OA
ATOM     17  C   UNL     1       2.489  13.701  18.139  0.00  0.00    +0.000 C 
ENDBRANCH  11  16
ENDBRANCH   7  12
ENDBRANCH   6   7
ENDBRANCH   5   6
ENDBRANCH   1   5
BRANCH   3  18
ATOM     18  C   UNL     1       4.743   4.274  17.454  0.00  0.00    +0.000 C 
BRANCH  18  19
ATOM     19  C   UNL     1       5.938   4.068  16.522  0.00  0.00    +0.000 C 
ATOM     20  O   UNL     1       5.908   3.377  15.503  0.00  0.00    +0.000 OA
BRANCH  19  21
ATOM     21  C   UNL     1       7.213   4.864  16.829  0.00  0.00    +0.000 C 
ATOM     22  N   UNL     1       8.110   4.233  17.640  0.00  0.00    +0.000 N 
ATOM     23  O   UNL     1       7.413   5.975  16.362  0.00  0.00    +0.000 OA
ATOM     24  H   UNL     1       7.943   3.281  17.948  0.00  0.00    +0.000 HD
ATOM     25  H   UNL     1       8.990   4.686  17.858  0.00  0.00    +0.000 HD
ENDBRANCH  19  21
ENDBRANCH  18  19
BRANCH  18  26
ATOM     26  C   UNL     1       3.741   3.109  17.452  0.00  0.00    +0.000 C 
BRANCH  26  27
ATOM     27  C   UNL     1       2.876   2.932  18.678  0.00  0.00    +0.000 A 
ATOM     28  C   UNL     1       3.440   2.689  19.937  0.00  0.00    +0.000 A 
ATOM     29  C   UNL     1       2.641   2.701  21.084  0.00  0.00    +0.000 A 
ATOM     30  C   UNL     1       1.272   2.948  20.980  0.00  0.00    +0.000 A 
ATOM     31  C   UNL     1       0.696   3.150  19.729  0.00  0.00    +0.000 A 
ATOM     32  C   UNL     1       1.491   3.134  18.583  0.00  0.00    +0.000 A 
ENDBRANCH  26  27
ENDBRANCH  18  26
ENDBRANCH   3  18
TORSDOF 11
ENDMDL
MODEL 3
REMARK VINA RESULT:      -8.0      5.724      7.985
REMARK  Name = 
REMARK  13 active torsions:
REMARK  status: ('A' for Active; 'I' for Inactive)
REMARK    1  A    between atoms: C_1  and  O_2
REMARK    2  A    between atoms: O_2  and  C_3
REMARK    3  A    between atoms: C_6  and  O_7
REMARK    4  A    between atoms: O_7  and  C_8
REMARK    5  A    between atoms: C_9  and  C_10
REMARK    6  A    between atoms: C_10  and  C_11
REMARK    7  A    between atoms: C_11  and  C_12
REMARK    8  A    between atoms: C_12  and  C_13
REMARK    9  A    between atoms: N_15  and  C_16
REMARK   10  A    between atoms: C_16  and  C_17
REMARK   11  A    between atoms: C_16  and  C_24
REMARK   12  A    between atoms: C_17  and  C_18
REMARK   13  A    between atoms: C_24  and  C_26
REMARK                            x       y       z     vdW  Elec       q    Type
REMARK                         _______ _______ _______ _____ _____    ______ ____
ROOT
ATOM      1  C   UNL     1       3.403   6.926  18.172  0.00  0.00    +0.000 C 
ATOM      2  O   UNL     1       3.267   6.573  19.339  0.00  0.00    +0.000 OA
ATOM      3  N   UNL     1       3.942   6.111  17.204  0.00  0.00    +0.000 N 
ATOM      4  H   UNL     1       4.059   6.456  16.254  0.00  0.00    +0.000 HD
ENDROOT
BRANCH   1   5
ATOM      5  C   UNL     1       3.015   8.314  17.694  0.00  0.00    +0.000 C 
BRANCH   5   6
ATOM      6  C   UNL     1       1.501   8.541  17.796  0.00  0.00    +0.000 C 
BRANCH   6   7
ATOM      7  C   UNL     1       1.151   9.627  18.818  0.00  0.00    +0.000 C 
BRANCH   7  12
ATOM      8  C   UNL     1      -2.256  10.379  17.287  0.00  0.00    +0.000 A 
ATOM      9  C   UNL     1      -2.646  11.506  18.003  0.00  0.00    +0.000 A 
ATOM     10  C   UNL     1      -1.804  12.062  18.965  0.00  0.00    +0.000 A 
ATOM     11  C   UNL     1      -0.546  11.503  19.221  0.00  0.00    +0.000 A 
ATOM     12  C   UNL     1      -0.157  10.338  18.536  0.00  0.00    +0.000 A 
ATOM     13  C   UNL     1      -1.017   9.795  17.557  0.00  0.00    +0.000 A 
BRANCH   8  15
ATOM     14  C   UNL     1      -2.987  10.389  15.024  0.00  0.00    +0.000 C 
ATOM     15  O   UNL     1      -3.171   9.955  16.364  0.00  0.00    +0.000 OA
ENDBRANCH   8  15
BRANCH  11  16
ATOM     16  O   UNL     1       0.328  12.011  20.147  0.00  0.00    +0.000 OA
ATOM     17  C   UNL     1      -0.106  11.942  21.504  0.00  0.00    +0.000 C 
ENDBRANCH  11  16
ENDBRANCH   7  12
ENDBRANCH   6   7
ENDBRANCH   5   6
ENDBRANCH   1   5
BRANCH   3  18
ATOM     18  C   UNL     1       4.513   4.789  17.509  0.00  0.00    +0.000 C 
BRANCH  18  19
ATOM     19  C   UNL     1       5.669   4.513  16.546  0.00  0.00    +0.000 C 
ATOM     20  O   UNL     1       5.543   3.952  15.457  0.00  0.00    +0.000 OA
BRANCH  19  21
ATOM     21  C   UNL     1       7.047   5.073  16.925  0.00  0.00    +0.000 C 
ATOM     22  N   UNL     1       7.700   4.389  17.908  0.00  0.00    +0.000 N 
ATOM     23  O   UNL     1       7.526   6.050  16.370  0.00  0.00    +0.000 OA
ATOM     24  H   UNL     1       7.304   3.539  18.293  0.00  0.00    +0.000 HD
ATOM     25  H   UNL     1       8.629   4.683  18.186  0.00  0.00    +0.000 HD
ENDBRANCH  19  21
ENDBRANCH  18  19
BRANCH  18  26
ATOM     26  C   UNL     1       3.467   3.665  17.566  0.00  0.00    +0.000 C 
BRANCH  26  27
ATOM     27  C   UNL     1       2.726   3.468  18.868  0.00  0.00    +0.000 A 
ATOM     28  C   UNL     1       1.329   3.547  18.929  0.00  0.00    +0.000 A 
ATOM     29  C   UNL     1       0.652   3.191  20.099  0.00  0.00    +0.000 A 
ATOM     30  C   UNL     1       1.364   2.763  21.218  0.00  0.00    +0.000 A 
ATOM     31  C   UNL     1       2.755   2.720  21.180  0.00  0.00    +0.000 A 
ATOM     32  C   UNL     1       3.434   3.078  20.015  0.00  0.00    +0.000 A 
ENDBRANCH  26  27
ENDBRANCH  18  26
ENDBRANCH   3  18
TORSDOF 11
ENDMDL
MODEL 4
REMARK VINA RESULT:      -7.8      5.523      7.140
REMARK  Name = 
REMARK  13 active torsions:
REMARK  status: ('A' for Active; 'I' for Inactive)
REMARK    1  A    between atoms: C_1  and  O_2
REMARK    2  A    between atoms: O_2  and  C_3
REMARK    3  A    between atoms: C_6  and  O_7
REMARK    4  A    between atoms: O_7  and  C_8
REMARK    5  A    between atoms: C_9  and  C_10
REMARK    6  A    between atoms: C_10  and  C_11
REMARK    7  A    between atoms: C_11  and  C_12
REMARK    8  A    between atoms: C_12  and  C_13
REMARK    9  A    between atoms: N_15  and  C_16
REMARK   10  A    between atoms: C_16  and  C_17
REMARK   11  A    between atoms: C_16  and  C_24
REMARK   12  A    between atoms: C_17  and  C_18
REMARK   13  A    between atoms: C_24  and  C_26
REMARK                            x       y       z     vdW  Elec       q    Type
REMARK                         _______ _______ _______ _____ _____    ______ ____
ROOT
ATOM      1  C   UNL     1       3.444   6.611  18.253  0.00  0.00    +0.000 C 
ATOM      2  O   UNL     1       3.295   6.296  19.429  0.00  0.00    +0.000 OA
ATOM      3  N   UNL     1       4.148   5.842  17.358  0.00  0.00    +0.000 N 
ATOM      4  H   UNL     1       4.268   6.156  16.398  0.00  0.00    +0.000 HD
ENDROOT
BRANCH   1   5
ATOM      5  C   UNL     1       2.886   7.904  17.683  0.00  0.00    +0.000 C 
BRANCH   5   6
ATOM      6  C   UNL     1       1.905   8.570  18.656  0.00  0.00    +0.000 C 
BRANCH   6   7
ATOM      7  C   UNL     1       0.883   9.451  17.928  0.00  0.00    +0.000 C 
BRANCH   7  12
ATOM      8  C   UNL     1       0.472  12.182  20.552  0.00  0.00    +0.000 A 
ATOM      9  C   UNL     1      -0.881  12.485  20.436  0.00  0.00    +0.000 A 
ATOM     10  C   UNL     1      -1.689  11.791  19.536  0.00  0.00    +0.000 A 
ATOM     11  C   UNL     1      -1.157  10.769  18.741  0.00  0.00    +0.000 A 
ATOM     12  C   UNL     1       0.218  10.483  18.816  0.00  0.00    +0.000 A 
ATOM     13  C   UNL     1       1.019  11.187  19.740  0.00  0.00    +0.000 A 
BRANCH   8  15
ATOM     14  C   UNL     1       1.999  13.948  21.005  0.00  0.00    +0.000 C 
ATOM     15  O   UNL     1       1.137  12.927  21.486  0.00  0.00    +0.000 OA
ENDBRANCH   8  15
BRANCH  11  16
ATOM     16  O   UNL     1      -1.903  10.046  17.846  0.00  0.00    +0.000 OA
ATOM     17  C   UNL     1      -2.678  10.816  16.930  0.00  0.00    +0.000 C 
ENDBRANCH  11  16
ENDBRANCH   7  12
ENDBRANCH   6   7
ENDBRANCH   5   6
ENDBRANCH   1   5
BRANCH   3  18
ATOM     18  C   UNL     1       4.887   4.633  17.760  0.00  0.00    +0.000 C 
BRANCH  18  19
ATOM     19  C   UNL     1       6.218   4.590  17.007  0.00  0.00    +0.000 C 
ATOM     20  O   UNL     1       7.301   4.332  17.532  0.00  0.00    +0.000 OA
BRANCH  19  21
ATOM     21  C   UNL     1       6.168   4.774  15.484  0.00  0.00    +0.000 C 
ATOM     22  N   UNL     1       6.286   3.626  14.757  0.00  0.00    +0.000 N 
ATOM     23  O   UNL     1       6.015   5.871  14.967  0.00  0.00    +0.000 OA
ATOM     24  H   UNL     1       6.336   2.726  15.222  0.00  0.00    +0.000 HD
ATOM     25  H   UNL     1       6.228   3.668  13.747  0.00  0.00    +0.000 HD
ENDBRANCH  19  21
ENDBRANCH  18  19
BRANCH  18  26
ATOM     26  C   UNL     1       4.063   3.341  17.646  0.00  0.00    +0.000 C 
BRANCH  26  27
ATOM     27  C   UNL     1       3.106   3.023  18.771  0.00  0.00    +0.000 A 
ATOM     28  C   UNL     1       3.561   2.845  20.084  0.00  0.00    +0.000 A 
ATOM     29  C   UNL     1       2.650   2.726  21.137  0.00  0.00    +0.000 A 
ATOM     30  C   UNL     1       1.280   2.774  20.886  0.00  0.00    +0.000 A 
ATOM     31  C   UNL     1       0.818   2.909  19.580  0.00  0.00    +0.000 A 
ATOM     32  C   UNL     1       1.725   3.025  18.526  0.00  0.00    +0.000 A 
ENDBRANCH  26  27
ENDBRANCH  18  26
ENDBRANCH   3  18
TORSDOF 11
ENDMDL
MODEL 5
REMARK VINA RESULT:      -7.8      5.708      7.179
REMARK  Name = 
REMARK  13 active torsions:
REMARK  status: ('A' for Active; 'I' for Inactive)
REMARK    1  A    between atoms: C_1  and  O_2
REMARK    2  A    between atoms: O_2  and  C_3
REMARK    3  A    between atoms: C_6  and  O_7
REMARK    4  A    between atoms: O_7  and  C_8
REMARK    5  A    between atoms: C_9  and  C_10
REMARK    6  A    between atoms: C_10  and  C_11
REMARK    7  A    between atoms: C_11  and  C_12
REMARK    8  A    between atoms: C_12  and  C_13
REMARK    9  A    between atoms: N_15  and  C_16
REMARK   10  A    between atoms: C_16  and  C_17
REMARK   11  A    between atoms: C_16  and  C_24
REMARK   12  A    between atoms: C_17  and  C_18
REMARK   13  A    between atoms: C_24  and  C_26
REMARK                            x       y       z     vdW  Elec       q    Type
REMARK                         _______ _______ _______ _____ _____    ______ ____
ROOT
ATOM      1  C   UNL     1       4.256   6.952  17.522  0.00  0.00    +0.000 C 
ATOM      2  O   UNL     1       5.370   7.457  17.418  0.00  0.00    +0.000 OA
ATOM      3  N   UNL     1       4.055   5.688  18.026  0.00  0.00    +0.000 N 
ATOM      4  H   UNL     1       3.116   5.300  18.070  0.00  0.00    +0.000 HD
ENDROOT
BRANCH   1   5
ATOM      5  C   UNL     1       2.995   7.668  17.073  0.00  0.00    +0.000 C 
BRANCH   5   6
ATOM      6  C   UNL     1       2.306   8.381  18.244  0.00  0.00    +0.000 C 
BRANCH   6   7
ATOM      7  C   UNL     1       1.106   9.215  17.783  0.00  0.00    +0.000 C 
BRANCH   7  12
ATOM      8  C   UNL     1       0.273  10.444  21.292  0.00  0.00    +0.000 A 
ATOM      9  C   UNL     1      -0.862  11.214  21.060  0.00  0.00    +0.000 A 
ATOM     10  C   UNL     1      -1.398  11.320  19.777  0.00  0.00    +0.000 A 
ATOM     11  C   UNL     1      -0.810  10.647  18.700  0.00  0.00    +0.000 A 
ATOM     12  C   UNL     1       0.364   9.901  18.912  0.00  0.00    +0.000 A 
ATOM     13  C   UNL     1       0.887   9.795  20.219  0.00  0.00    +0.000 A 
BRANCH   8  15
ATOM     14  C   UNL     1       0.048   9.463  23.446  0.00  0.00    +0.000 C 
ATOM     15  O   UNL     1       0.675  10.413  22.598  0.00  0.00    +0.000 OA
ENDBRANCH   8  15
BRANCH  11  16
ATOM     16  O   UNL     1      -1.296  10.706  17.420  0.00  0.00    +0.000 OA
ATOM     17  C   UNL     1      -2.610  10.182  17.237  0.00  0.00    +0.000 C 
ENDBRANCH  11  16
ENDBRANCH   7  12
ENDBRANCH   6   7
ENDBRANCH   5   6
ENDBRANCH   1   5
BRANCH   3  18
ATOM     18  C   UNL     1       5.166   4.786  18.371  0.00  0.00    +0.000 C 
BRANCH  18  19
ATOM     19  C   UNL     1       5.788   4.247  17.082  0.00  0.00    +0.000 C 
ATOM     20  O   UNL     1       5.183   3.563  16.256  0.00  0.00    +0.000 OA
BRANCH  19  21
ATOM     21  C   UNL     1       7.222   4.687  16.758  0.00  0.00    +0.000 C 
ATOM     22  N   UNL     1       7.327   5.694  15.844  0.00  0.00    +0.000 N 
ATOM     23  O   UNL     1       8.194   4.180  17.297  0.00  0.00    +0.000 OA
ATOM     24  H   UNL     1       6.496   6.142  15.474  0.00  0.00    +0.000 HD
ATOM     25  H   UNL     1       8.243   6.058  15.607  0.00  0.00    +0.000 HD
ENDBRANCH  19  21
ENDBRANCH  18  19
BRANCH  18  26
ATOM     26  C   UNL     1       4.781   3.694  19.381  0.00  0.00    +0.000 C 
BRANCH  26  27
ATOM     27  C   UNL     1       3.310   3.391  19.553  0.00  0.00    +0.000 A 
ATOM     28  C   UNL     1       2.544   4.038  20.531  0.00  0.00    +0.000 A 
ATOM     29  C   UNL     1       1.156   3.877  20.562  0.00  0.00    +0.000 A 
ATOM     30  C   UNL     1       0.525   3.062  19.623  0.00  0.00    +0.000 A 
ATOM     31  C   UNL     1       1.282   2.383  18.673  0.00  0.00    +0.000 A 
ATOM     32  C   UNL     1       2.669   2.539  18.642  0.00  0.00    +0.000 A 
ENDBRANCH  26  27
ENDBRANCH  18  26
ENDBRANCH   3  18
TORSDOF 11
ENDMDL
MODEL 6
REMARK VINA RESULT:      -7.7      5.372      7.735
REMARK  Name = 
REMARK  13 active torsions:
REMARK  status: ('A' for Active; 'I' for Inactive)
REMARK    1  A    between atoms: C_1  and  O_2
REMARK    2  A    between atoms: O_2  and  C_3
REMARK    3  A    between atoms: C_6  and  O_7
REMARK    4  A    between atoms: O_7  and  C_8
REMARK    5  A    between atoms: C_9  and  C_10
REMARK    6  A    between atoms: C_10  and  C_11
REMARK    7  A    between atoms: C_11  and  C_12
REMARK    8  A    between atoms: C_12  and  C_13
REMARK    9  A    between atoms: N_15  and  C_16
REMARK   10  A    between atoms: C_16  and  C_17
REMARK   11  A    between atoms: C_16  and  C_24
REMARK   12  A    between atoms: C_17  and  C_18
REMARK   13  A    between atoms: C_24  and  C_26
REMARK                            x       y       z     vdW  Elec       q    Type
REMARK                         _______ _______ _______ _____ _____    ______ ____
ROOT
ATOM      1  C   UNL     1       3.125   6.885  18.383  0.00  0.00    +0.000 C 
ATOM      2  O   UNL     1       2.766   6.661  19.535  0.00  0.00    +0.000 OA
ATOM      3  N   UNL     1       4.103   6.152  17.752  0.00  0.00    +0.000 N 
ATOM      4  H   UNL     1       4.387   6.390  16.804  0.00  0.00    +0.000 HD
ENDROOT
BRANCH   1   5
ATOM      5  C   UNL     1       2.541   8.016  17.555  0.00  0.00    +0.000 C 
BRANCH   5   6
ATOM      6  C   UNL     1       2.266   9.257  18.414  0.00  0.00    +0.000 C 
BRANCH   6   7
ATOM      7  C   UNL     1       1.155   9.011  19.440  0.00  0.00    +0.000 C 
BRANCH   7  12
ATOM      8  C   UNL     1      -1.691  11.247  18.251  0.00  0.00    +0.000 A 
ATOM      9  C   UNL     1      -1.985  11.969  19.403  0.00  0.00    +0.000 A 
ATOM     10  C   UNL     1      -1.249  11.772  20.570  0.00  0.00    +0.000 A 
ATOM     11  C   UNL     1      -0.194  10.853  20.602  0.00  0.00    +0.000 A 
ATOM     12  C   UNL     1       0.086  10.084  19.458  0.00  0.00    +0.000 A 
ATOM     13  C   UNL     1      -0.662  10.304  18.281  0.00  0.00    +0.000 A 
BRANCH   8  15
ATOM     14  C   UNL     1      -2.551  10.599  16.130  0.00  0.00    +0.000 C 
ATOM     15  O   UNL     1      -2.479  11.556  17.177  0.00  0.00    +0.000 OA
ENDBRANCH   8  15
BRANCH  11  16
ATOM     16  O   UNL     1       0.571  10.623  21.717  0.00  0.00    +0.000 OA
ATOM     17  C   UNL     1      -0.101   9.987  22.802  0.00  0.00    +0.000 C 
ENDBRANCH  11  16
ENDBRANCH   7  12
ENDBRANCH   6   7
ENDBRANCH   5   6
ENDBRANCH   1   5
BRANCH   3  18
ATOM     18  C   UNL     1       4.889   5.116  18.443  0.00  0.00    +0.000 C 
BRANCH  18  19
ATOM     19  C   UNL     1       6.356   5.249  18.034  0.00  0.00    +0.000 C 
ATOM     20  O   UNL     1       7.271   4.579  18.513  0.00  0.00    +0.000 OA
BRANCH  19  21
ATOM     21  C   UNL     1       6.678   6.203  16.876  0.00  0.00    +0.000 C 
ATOM     22  N   UNL     1       7.142   5.603  15.742  0.00  0.00    +0.000 N 
ATOM     23  O   UNL     1       6.509   7.410  16.963  0.00  0.00    +0.000 OA
ATOM     24  H   UNL     1       7.197   4.592  15.681  0.00  0.00    +0.000 HD
ATOM     25  H   UNL     1       7.343   6.169  14.925  0.00  0.00    +0.000 HD
ENDBRANCH  19  21
ENDBRANCH  18  19
BRANCH  18  26
ATOM     26  C   UNL     1       4.320   3.699  18.276  0.00  0.00    +0.000 C 
BRANCH  26  27
ATOM     27  C   UNL     1       3.232   3.267  19.231  0.00  0.00    +0.000 A 
ATOM     28  C   UNL     1       3.525   2.913  20.555  0.00  0.00    +0.000 A 
ATOM     29  C   UNL     1       2.494   2.686  21.470  0.00  0.00    +0.000 A 
ATOM     30  C   UNL     1       1.163   2.802  21.069  0.00  0.00    +0.000 A 
ATOM     31  C   UNL     1       0.862   3.114  19.746  0.00  0.00    +0.000 A 
ATOM     32  C   UNL     1       1.890   3.337  18.829  0.00  0.00    +0.000 A 
ENDBRANCH  26  27
ENDBRANCH  18  26
ENDBRANCH   3  18
TORSDOF 11
ENDMDL
MODEL 7
REMARK VINA RESULT:      -7.7      1.047      1.246
REMARK  Name = 
REMARK  13 active torsions:
REMARK  status: ('A' for Active; 'I' for Inactive)
REMARK    1  A    between atoms: C_1  and  O_2
REMARK    2  A    between atoms: O_2  and  C_3
REMARK    3  A    between atoms: C_6  and  O_7
REMARK    4  A    between atoms: O_7  and  C_8
REMARK    5  A    between atoms: C_9  and  C_10
REMARK    6  A    between atoms: C_10  and  C_11
REMARK    7  A    between atoms: C_11  and  C_12
REMARK    8  A    between atoms: C_12  and  C_13
REMARK    9  A    between atoms: N_15  and  C_16
REMARK   10  A    between atoms: C_16  and  C_17
REMARK   11  A    between atoms: C_16  and  C_24
REMARK   12  A    between atoms: C_17  and  C_18
REMARK   13  A    between atoms: C_24  and  C_26
REMARK                            x       y       z     vdW  Elec       q    Type
REMARK                         _______ _______ _______ _____ _____    ______ ____
ROOT
ATOM      1  C   UNL     1       7.791   7.875  17.996  0.00  0.00    +0.000 C 
ATOM      2  O   UNL     1       8.301   7.007  18.698  0.00  0.00    +0.000 OA
ATOM      3  N   UNL     1       6.644   7.666  17.267  0.00  0.00    +0.000 N 
ATOM      4  H   UNL     1       6.271   8.407  16.679  0.00  0.00    +0.000 HD
ENDROOT
BRANCH   1   5
ATOM      5  C   UNL     1       8.400   9.258  17.845  0.00  0.00    +0.000 C 
BRANCH   5   6
ATOM      6  C   UNL     1       9.021   9.746  19.160  0.00  0.00    +0.000 C 
BRANCH   6   7
ATOM      7  C   UNL     1       9.946  10.949  18.947  0.00  0.00    +0.000 C 
BRANCH   7  12
ATOM      8  C   UNL     1       9.087  12.648  22.247  0.00  0.00    +0.000 A 
ATOM      9  C   UNL     1       9.538  13.945  22.023  0.00  0.00    +0.000 A 
ATOM     10  C   UNL     1      10.092  14.302  20.795  0.00  0.00    +0.000 A 
ATOM     11  C   UNL     1      10.197  13.365  19.760  0.00  0.00    +0.000 A 
ATOM     12  C   UNL     1       9.787  12.038  19.987  0.00  0.00    +0.000 A 
ATOM     13  C   UNL     1       9.217  11.697  21.233  0.00  0.00    +0.000 A 
BRANCH   8  15
ATOM     14  C   UNL     1       8.356  13.591  24.304  0.00  0.00    +0.000 C 
ATOM     15  O   UNL     1       8.549  12.446  23.487  0.00  0.00    +0.000 OA
ENDBRANCH   8  15
BRANCH  11  16
ATOM     16  O   UNL     1      10.724  13.659  18.529  0.00  0.00    +0.000 OA
ATOM     17  C   UNL     1      11.453  14.882  18.450  0.00  0.00    +0.000 C 
ENDBRANCH  11  16
ENDBRANCH   7  12
ENDBRANCH   6   7
ENDBRANCH   5   6
ENDBRANCH   1   5
BRANCH   3  18
ATOM     18  C   UNL     1       5.997   6.347  17.169  0.00  0.00    +0.000 C 
BRANCH  18  19
ATOM     19  C   UNL     1       5.729   6.033  15.696  0.00  0.00    +0.000 C 
ATOM     20  O   UNL     1       4.945   6.664  14.986  0.00  0.00    +0.000 OA
BRANCH  19  21
ATOM     21  C   UNL     1       6.579   4.932  15.047  0.00  0.00    +0.000 C 
ATOM     22  N   UNL     1       7.720   5.364  14.437  0.00  0.00    +0.000 N 
ATOM     23  O   UNL     1       6.261   3.753  15.095  0.00  0.00    +0.000 OA
ATOM     24  H   UNL     1       7.989   6.340  14.482  0.00  0.00    +0.000 HD
ATOM     25  H   UNL     1       8.347   4.688  14.016  0.00  0.00    +0.000 HD
ENDBRANCH  19  21
ENDBRANCH  18  19
BRANCH  18  26
ATOM     26  C   UNL     1       4.763   6.198  18.072  0.00  0.00    +0.000 C 
BRANCH  26  27
ATOM     27  C   UNL     1       3.901   4.972  17.879  0.00  0.00    +0.000 A 
ATOM     28  C   UNL     1       4.450   3.684  17.918  0.00  0.00    +0.000 A 
ATOM     29  C   UNL     1       3.618   2.561  17.913  0.00  0.00    +0.000 A 
ATOM     30  C   UNL     1       2.233   2.716  17.859  0.00  0.00    +0.000 A 
ATOM     31  C   UNL     1       1.680   3.991  17.779  0.00  0.00    +0.000 A 
ATOM     32  C   UNL     1       2.509   5.114  17.780  0.00  0.00    +0.000 A 
ENDBRANCH  26  27
ENDBRANCH  18  26
ENDBRANCH   3  18
TORSDOF 11
ENDMDL
MODEL 8
REMARK VINA RESULT:      -7.7      5.323      8.077
REMARK  Name = 
REMARK  13 active torsions:
REMARK  status: ('A' for Active; 'I' for Inactive)
REMARK    1  A    between atoms: C_1  and  O_2
REMARK    2  A    between atoms: O_2  and  C_3
REMARK    3  A    between atoms: C_6  and  O_7
REMARK    4  A    between atoms: O_7  and  C_8
REMARK    5  A    between atoms: C_9  and  C_10
REMARK    6  A    between atoms: C_10  and  C_11
REMARK    7  A    between atoms: C_11  and  C_12
REMARK    8  A    between atoms: C_12  and  C_13
REMARK    9  A    between atoms: N_15  and  C_16
REMARK   10  A    between atoms: C_16  and  C_17
REMARK   11  A    between atoms: C_16  and  C_24
REMARK   12  A    between atoms: C_17  and  C_18
REMARK   13  A    between atoms: C_24  and  C_26
REMARK                            x       y       z     vdW  Elec       q    Type
REMARK                         _______ _______ _______ _____ _____    ______ ____
ROOT
ATOM      1  C   UNL     1       3.132   7.127  18.236  0.00  0.00    +0.000 C 
ATOM      2  O   UNL     1       2.749   6.739  19.336  0.00  0.00    +0.000 OA
ATOM      3  N   UNL     1       3.941   6.372  17.419  0.00  0.00    +0.000 N 
ATOM      4  H   UNL     1       4.254   6.744  16.526  0.00  0.00    +0.000 HD
ENDROOT
BRANCH   1   5
ATOM      5  C   UNL     1       2.769   8.495  17.686  0.00  0.00    +0.000 C 
BRANCH   5   6
ATOM      6  C   UNL     1       1.276   8.798  17.873  0.00  0.00    +0.000 C 
BRANCH   6   7
ATOM      7  C   UNL     1       1.034   9.817  18.992  0.00  0.00    +0.000 C 
BRANCH   7  12
ATOM      8  C   UNL     1      -2.424  10.781  17.717  0.00  0.00    +0.000 A 
ATOM      9  C   UNL     1      -2.845  11.682  18.691  0.00  0.00    +0.000 A 
ATOM     10  C   UNL     1      -2.008  12.019  19.753  0.00  0.00    +0.000 A 
ATOM     11  C   UNL     1      -0.726  11.467  19.855  0.00  0.00    +0.000 A 
ATOM     12  C   UNL     1      -0.305  10.521  18.903  0.00  0.00    +0.000 A 
ATOM     13  C   UNL     1      -1.160  10.199  17.827  0.00  0.00    +0.000 A 
BRANCH   8  15
ATOM     14  C   UNL     1      -4.449  11.441  16.657  0.00  0.00    +0.000 C 
ATOM     15  O   UNL     1      -3.338  10.559  16.724  0.00  0.00    +0.000 OA
ENDBRANCH   8  15
BRANCH  11  16
ATOM     16  O   UNL     1       0.144  11.767  20.871  0.00  0.00    +0.000 OA
ATOM     17  C   UNL     1      -0.381  12.599  21.904  0.00  0.00    +0.000 C 
ENDBRANCH  11  16
ENDBRANCH   7  12
ENDBRANCH   6   7
ENDBRANCH   5   6
ENDBRANCH   1   5
BRANCH   3  18
ATOM     18  C   UNL     1       4.518   5.086  17.845  0.00  0.00    +0.000 C 
BRANCH  18  19
ATOM     19  C   UNL     1       5.888   4.914  17.187  0.00  0.00    +0.000 C 
ATOM     20  O   UNL     1       6.133   4.090  16.306  0.00  0.00    +0.000 OA
BRANCH  19  21
ATOM     21  C   UNL     1       6.986   5.910  17.584  0.00  0.00    +0.000 C 
ATOM     22  N   UNL     1       7.479   6.667  16.562  0.00  0.00    +0.000 N 
ATOM     23  O   UNL     1       7.372   6.025  18.738  0.00  0.00    +0.000 OA
ATOM     24  H   UNL     1       7.082   6.596  15.632  0.00  0.00    +0.000 HD
ATOM     25  H   UNL     1       8.183   7.369  16.757  0.00  0.00    +0.000 HD
ENDBRANCH  19  21
ENDBRANCH  18  19
BRANCH  18  26
ATOM     26  C   UNL     1       3.574   3.891  17.640  0.00  0.00    +0.000 C 
BRANCH  26  27
ATOM     27  C   UNL     1       2.798   3.402  18.842  0.00  0.00    +0.000 A 
ATOM     28  C   UNL     1       3.448   3.035  20.027  0.00  0.00    +0.000 A 
ATOM     29  C   UNL     1       2.709   2.754  21.180  0.00  0.00    +0.000 A 
ATOM     30  C   UNL     1       1.317   2.830  21.155  0.00  0.00    +0.000 A 
ATOM     31  C   UNL     1       0.660   3.154  19.971  0.00  0.00    +0.000 A 
ATOM     32  C   UNL     1       1.396   3.431  18.818  0.00  0.00    +0.000 A 
ENDBRANCH  26  27
ENDBRANCH  18  26
ENDBRANCH   3  18
TORSDOF 11
ENDMDL
MODEL 9
REMARK VINA RESULT:      -7.7      5.267      7.491
REMARK  Name = 
REMARK  13 active torsions:
REMARK  status: ('A' for Active; 'I' for Inactive)
REMARK    1  A    between atoms: C_1  and  O_2
REMARK    2  A    between atoms: O_2  and  C_3
REMARK    3  A    between atoms: C_6  and  O_7
REMARK    4  A    between atoms: O_7  and  C_8
REMARK    5  A    between atoms: C_9  and  C_10
REMARK    6  A    between atoms: C_10  and  C_11
REMARK    7  A    between atoms: C_11  and  C_12
REMARK    8  A    between atoms: C_12  and  C_13
REMARK    9  A    between atoms: N_15  and  C_16
REMARK   10  A    between atoms: C_16  and  C_17
REMARK   11  A    between atoms: C_16  and  C_24
REMARK   12  A    between atoms: C_17  and  C_18
REMARK   13  A    between atoms: C_24  and  C_26
REMARK                            x       y       z     vdW  Elec       q    Type
REMARK                         _______ _______ _______ _____ _____    ______ ____
ROOT
ATOM      1  C   UNL     1       3.024   6.684  18.413  0.00  0.00    +0.000 C 
ATOM      2  O   UNL     1       2.828   6.554  19.617  0.00  0.00    +0.000 OA
ATOM      3  N   UNL     1       3.944   5.932  17.721  0.00  0.00    +0.000 N 
ATOM      4  H   UNL     1       4.090   6.092  16.727  0.00  0.00    +0.000 HD
ENDROOT
BRANCH   1   5
ATOM      5  C   UNL     1       2.284   7.714  17.577  0.00  0.00    +0.000 C 
BRANCH   5   6
ATOM      6  C   UNL     1       2.319   9.100  18.233  0.00  0.00    +0.000 C 
BRANCH   6   7
ATOM      7  C   UNL     1       1.161   9.300  19.217  0.00  0.00    +0.000 C 
BRANCH   7  12
ATOM      8  C   UNL     1      -1.824  11.097  17.677  0.00  0.00    +0.000 A 
ATOM      9  C   UNL     1      -1.651  12.393  18.153  0.00  0.00    +0.000 A 
ATOM     10  C   UNL     1      -0.552  12.716  18.947  0.00  0.00    +0.000 A 
ATOM     11  C   UNL     1       0.403  11.746  19.273  0.00  0.00    +0.000 A 
ATOM     12  C   UNL     1       0.217  10.421  18.836  0.00  0.00    +0.000 A 
ATOM     13  C   UNL     1      -0.895  10.114  18.023  0.00  0.00    +0.000 A 
BRANCH   8  15
ATOM     14  C   UNL     1      -2.724  10.493  15.560  0.00  0.00    +0.000 C 
ATOM     15  O   UNL     1      -2.933  10.928  16.896  0.00  0.00    +0.000 OA
ENDBRANCH   8  15
BRANCH  11  16
ATOM     16  O   UNL     1       1.509  12.006  20.041  0.00  0.00    +0.000 OA
ATOM     17  C   UNL     1       1.820  13.386  20.220  0.00  0.00    +0.000 C 
ENDBRANCH  11  16
ENDBRANCH   7  12
ENDBRANCH   6   7
ENDBRANCH   5   6
ENDBRANCH   1   5
BRANCH   3  18
ATOM     18  C   UNL     1       4.861   4.991  18.387  0.00  0.00    +0.000 C 
BRANCH  18  19
ATOM     19  C   UNL     1       6.270   5.188  17.825  0.00  0.00    +0.000 C 
ATOM     20  O   UNL     1       7.239   4.494  18.131  0.00  0.00    +0.000 OA
BRANCH  19  21
ATOM     21  C   UNL     1       6.446   6.250  16.731  0.00  0.00    +0.000 C 
ATOM     22  N   UNL     1       7.277   7.283  17.056  0.00  0.00    +0.000 N 
ATOM     23  O   UNL     1       5.896   6.161  15.644  0.00  0.00    +0.000 OA
ATOM     24  H   UNL     1       7.775   7.285  17.939  0.00  0.00    +0.000 HD
ATOM     25  H   UNL     1       7.467   8.004  16.369  0.00  0.00    +0.000 HD
ENDBRANCH  19  21
ENDBRANCH  18  19
BRANCH  18  26
ATOM     26  C   UNL     1       4.375   3.534  18.356  0.00  0.00    +0.000 C 
BRANCH  26  27
ATOM     27  C   UNL     1       3.248   3.155  19.290  0.00  0.00    +0.000 A 
ATOM     28  C   UNL     1       3.482   2.903  20.648  0.00  0.00    +0.000 A 
ATOM     29  C   UNL     1       2.411   2.727  21.528  0.00  0.00    +0.000 A 
ATOM     30  C   UNL     1       1.100   2.793  21.057  0.00  0.00    +0.000 A 
ATOM     31  C   UNL     1       0.858   3.003  19.703  0.00  0.00    +0.000 A 
ATOM     32  C   UNL     1       1.926   3.175  18.821  0.00  0.00    +0.000 A 
ENDBRANCH  26  27
ENDBRANCH  18  26
ENDBRANCH   3  18
TORSDOF 11
ENDMDL
