MODEL 1
REMARK VINA RESULT:      -8.1      0.000      0.000
REMARK  Name = 
REMARK  8 active torsions:
REMARK  status: ('A' for Active; 'I' for Inactive)
REMARK    1  A    between atoms: C_1  and  C_2
REMARK    2  A    between atoms: C_7  and  O_8
REMARK    3  A    between atoms: O_8  and  C_9
REMARK    4  A    between atoms: N_12  and  C_13
REMARK    5  A    between atoms: C_13  and  C_14
REMARK    6  A    between atoms: N_16  and  C_17
REMARK    7  A    between atoms: N_20  and  C_21
REMARK    8  A    between atoms: C_22  and  C_23
REMARK                            x       y       z     vdW  Elec       q    Type
REMARK                         _______ _______ _______ _____ _____    ______ ____
ROOT
ATOM      1  C   UNL     1       1.720   4.354  21.042  0.00  0.00    +0.000 C 
ATOM      2  C   UNL     1       2.714   3.254  21.454  0.00  0.00    +0.000 C 
ATOM      3  C   UNL     1       3.452   2.680  20.237  0.00  0.00    +0.000 C 
ATOM      4  N   UNL     1       2.530   2.167  19.191  0.00  0.00    +0.000 NA
ATOM      5  C   UNL     1       1.442   3.125  18.860  0.00  0.00    +0.000 C 
ATOM      6  C   UNL     1       0.716   3.663  20.106  0.00  0.00    +0.000 C 
ENDROOT
BRANCH   1   7
ATOM      7  O   UNL     1       2.256   5.448  20.357  0.00  0.00    +0.000 OA
BRANCH   7  14
ATOM      8  C   UNL     1       3.035   6.679  17.963  0.00  0.00    +0.000 C 
ATOM      9  C   UNL     1       2.234   7.407  19.005  0.00  0.00    +0.000 A 
ATOM     10  C   UNL     1       1.847   8.738  18.771  0.00  0.00    +0.000 A 
ATOM     11  C   UNL     1       1.144   9.447  19.745  0.00  0.00    +0.000 A 
ATOM     12  C   UNL     1       0.810   8.828  20.949  0.00  0.00    +0.000 A 
ATOM     13  C   UNL     1       1.158   7.491  21.178  0.00  0.00    +0.000 A 
ATOM     14  C   UNL     1       1.874   6.756  20.211  0.00  0.00    +0.000 A 
ENDBRANCH   7  14
ENDBRANCH   1   7
BRANCH   4  15
ATOM     15  C   UNL     1       3.286   1.884  17.941  0.00  0.00    +0.000 C 
BRANCH  15  16
ATOM     16  C   UNL     1       3.991   3.093  17.372  0.00  0.00    +0.000 C 
ATOM     17  O   UNL     1       3.338   3.886  16.713  0.00  0.00    +0.000 OA
ATOM     18  N   UNL     1       5.329   3.299  17.602  0.00  0.00    +0.000 N 
ATOM     19  H   UNL     1       5.846   2.592  18.143  0.00  0.00    +0.000 HD
BRANCH  18  20
ATOM     20  C   UNL     1       6.074   4.437  17.142  0.00  0.00    +0.000 A 
ATOM     21  C   UNL     1       6.515   4.718  15.856  0.00  0.00    +0.000 A 
ATOM     22  N   UNL     1       7.192   5.883  15.867  0.00  0.00    +0.000 NA
ATOM     23  N   UNL     1       7.190   6.355  17.105  0.00  0.00    +0.000 N 
ATOM     24  C   UNL     1       7.862   7.595  17.482  0.00  0.00    +0.000 C 
ATOM     25  C   UNL     1       6.505   5.512  17.916  0.00  0.00    +0.000 A 
ATOM     26  C   UNL     1       6.274   5.721  19.382  0.00  0.00    +0.000 C 
ENDBRANCH  18  20
ENDBRANCH  15  16
ENDBRANCH   4  15
TORSDOF 5
ENDMDL
MODEL 2
REMARK VINA RESULT:      -7.7      3.590      6.062
REMARK  Name = 
REMARK  8 active torsions:
REMARK  status: ('A' for Active; 'I' for Inactive)
REMARK    1  A    between atoms: C_1  and  C_2
REMARK    2  A    between atoms: C_7  and  O_8
REMARK    3  A    between atoms: O_8  and  C_9
REMARK    4  A    between atoms: N_12  and  C_13
REMARK    5  A    between atoms: C_13  and  C_14
REMARK    6  A    between atoms: N_16  and  C_17
REMARK    7  A    between atoms: N_20  and  C_21
REMARK    8  A    between atoms: C_22  and  C_23
REMARK                            x       y       z     vdW  Elec       q    Type
REMARK                         _______ _______ _______ _____ _____    ______ ____
ROOT
ATOM      1  C   UNL     1       4.691   4.570  16.982  0.00  0.00    +0.000 C 
ATOM      2  C   UNL     1       6.088   4.270  16.409  0.00  0.00    +0.000 C 
ATOM      3  C   UNL     1       7.191   4.939  17.242  0.00  0.00    +0.000 C 
ATOM      4  N   UNL     1       7.002   6.405  17.381  0.00  0.00    +0.000 NA
ATOM      5  C   UNL     1       5.616   6.774  17.778  0.00  0.00    +0.000 C 
ATOM      6  C   UNL     1       4.543   6.098  16.908  0.00  0.00    +0.000 C 
ENDROOT
BRANCH   1   7
ATOM      7  O   UNL     1       4.469   4.184  18.307  0.00  0.00    +0.000 OA
BRANCH   7  14
ATOM      8  C   UNL     1       3.458   1.572  18.393  0.00  0.00    +0.000 C 
ATOM      9  C   UNL     1       2.813   2.698  19.150  0.00  0.00    +0.000 A 
ATOM     10  C   UNL     1       1.680   2.437  19.940  0.00  0.00    +0.000 A 
ATOM     11  C   UNL     1       1.037   3.475  20.614  0.00  0.00    +0.000 A 
ATOM     12  C   UNL     1       1.531   4.776  20.515  0.00  0.00    +0.000 A 
ATOM     13  C   UNL     1       2.681   5.043  19.762  0.00  0.00    +0.000 A 
ATOM     14  C   UNL     1       3.343   4.009  19.068  0.00  0.00    +0.000 A 
ENDBRANCH   7  14
ENDBRANCH   1   7
BRANCH   4  15
ATOM     15  C   UNL     1       7.931   6.943  18.412  0.00  0.00    +0.000 C 
BRANCH  15  16
ATOM     16  C   UNL     1       8.292   8.396  18.203  0.00  0.00    +0.000 C 
ATOM     17  O   UNL     1       7.903   8.947  17.186  0.00  0.00    +0.000 OA
ATOM     18  N   UNL     1       9.027   9.078  19.140  0.00  0.00    +0.000 N 
ATOM     19  H   UNL     1       9.355   8.566  19.971  0.00  0.00    +0.000 HD
BRANCH  18  20
ATOM     20  C   UNL     1       9.381  10.468  19.051  0.00  0.00    +0.000 A 
ATOM     21  C   UNL     1       9.808  11.181  17.940  0.00  0.00    +0.000 A 
ATOM     22  N   UNL     1      10.049  12.457  18.301  0.00  0.00    +0.000 NA
ATOM     23  N   UNL     1       9.783  12.582  19.593  0.00  0.00    +0.000 N 
ATOM     24  C   UNL     1       9.962  13.834  20.322  0.00  0.00    +0.000 C 
ATOM     25  C   UNL     1       9.356  11.395  20.090  0.00  0.00    +0.000 A 
ATOM     26  C   UNL     1       8.944  11.152  21.511  0.00  0.00    +0.000 C 
ENDBRANCH  18  20
ENDBRANCH  15  16
ENDBRANCH   4  15
TORSDOF 5
ENDMDL
MODEL 3
REMARK VINA RESULT:      -7.7      0.502      1.485
REMARK  Name = 
REMARK  8 active torsions:
REMARK  status: ('A' for Active; 'I' for Inactive)
REMARK    1  A    between atoms: C_1  and  C_2
REMARK    2  A    between atoms: C_7  and  O_8
REMARK    3  A    between atoms: O_8  and  C_9
REMARK    4  A    between atoms: N_12  and  C_13
REMARK    5  A    between atoms: C_13  and  C_14
REMARK    6  A    between atoms: N_16  and  C_17
REMARK    7  A    between atoms: N_20  and  C_21
REMARK    8  A    between atoms: C_22  and  C_23
REMARK                            x       y       z     vdW  Elec       q    Type
REMARK                         _______ _______ _______ _____ _____    ______ ____
ROOT
ATOM      1  C   UNL     1       1.751   4.580  20.989  0.00  0.00    +0.000 C 
ATOM      2  C   UNL     1       2.377   3.266  21.487  0.00  0.00    +0.000 C 
ATOM      3  C   UNL     1       3.195   2.582  20.383  0.00  0.00    +0.000 C 
ATOM      4  N   UNL     1       2.407   2.335  19.148  0.00  0.00    +0.000 NA
ATOM      5  C   UNL     1       1.643   3.530  18.701  0.00  0.00    +0.000 C 
ATOM      6  C   UNL     1       0.823   4.175  19.833  0.00  0.00    +0.000 C 
ENDROOT
BRANCH   1   7
ATOM      7  O   UNL     1       2.638   5.545  20.505  0.00  0.00    +0.000 OA
BRANCH   7  14
ATOM      8  C   UNL     1       1.076   7.693  21.400  0.00  0.00    +0.000 C 
ATOM      9  C   UNL     1       1.747   7.707  20.056  0.00  0.00    +0.000 A 
ATOM     10  C   UNL     1       1.607   8.832  19.227  0.00  0.00    +0.000 A 
ATOM     11  C   UNL     1       2.182   8.847  17.957  0.00  0.00    +0.000 A 
ATOM     12  C   UNL     1       2.913   7.745  17.514  0.00  0.00    +0.000 A 
ATOM     13  C   UNL     1       3.093   6.633  18.346  0.00  0.00    +0.000 A 
ATOM     14  C   UNL     1       2.515   6.594  19.631  0.00  0.00    +0.000 A 
ENDBRANCH   7  14
ENDBRANCH   1   7
BRANCH   4  15
ATOM     15  C   UNL     1       3.313   1.931  18.038  0.00  0.00    +0.000 C 
BRANCH  15  16
ATOM     16  C   UNL     1       4.030   3.092  17.389  0.00  0.00    +0.000 C 
ATOM     17  O   UNL     1       3.446   3.716  16.518  0.00  0.00    +0.000 OA
ATOM     18  N   UNL     1       5.299   3.440  17.777  0.00  0.00    +0.000 N 
ATOM     19  H   UNL     1       5.763   2.869  18.498  0.00  0.00    +0.000 HD
BRANCH  18  20
ATOM     20  C   UNL     1       6.043   4.550  17.251  0.00  0.00    +0.000 A 
ATOM     21  C   UNL     1       6.350   4.834  15.927  0.00  0.00    +0.000 A 
ATOM     22  N   UNL     1       7.080   5.966  15.877  0.00  0.00    +0.000 NA
ATOM     23  N   UNL     1       7.239   6.415  17.114  0.00  0.00    +0.000 N 
ATOM     24  C   UNL     1       8.007   7.616  17.429  0.00  0.00    +0.000 C 
ATOM     25  C   UNL     1       6.609   5.589  17.986  0.00  0.00    +0.000 A 
ATOM     26  C   UNL     1       6.552   5.783  19.471  0.00  0.00    +0.000 C 
ENDBRANCH  18  20
ENDBRANCH  15  16
ENDBRANCH   4  15
TORSDOF 5
ENDMDL
MODEL 4
REMARK VINA RESULT:      -7.6      2.320      5.646
REMARK  Name = 
REMARK  8 active torsions:
REMARK  status: ('A' for Active; 'I' for Inactive)
REMARK    1  A    between atoms: C_1  and  C_2
REMARK    2  A    between atoms: C_7  and  O_8
REMARK    3  A    between atoms: O_8  and  C_9
REMARK    4  A    between atoms: N_12  and  C_13
REMARK    5  A    between atoms: C_13  and  C_14
REMARK    6  A    between atoms: N_16  and  C_17
REMARK    7  A    between atoms: N_20  and  C_21
REMARK    8  A    between atoms: C_22  and  C_23
REMARK                            x       y       z     vdW  Elec       q    Type
REMARK                         _______ _______ _______ _____ _____    ______ ____
ROOT
ATOM      1  C   UNL     1       3.851   2.166  17.812  0.00  0.00    +0.000 C 
ATOM      2  C   UNL     1       2.323   2.019  17.921  0.00  0.00    +0.000 C 
ATOM      3  C   UNL     1       1.765   2.825  19.103  0.00  0.00    +0.000 C 
ATOM      4  N   UNL     1       2.404   2.472  20.396  0.00  0.00    +0.000 NA
ATOM      5  C   UNL     1       3.889   2.437  20.317  0.00  0.00    +0.000 C 
ATOM      6  C   UNL     1       4.407   1.605  19.131  0.00  0.00    +0.000 C 
ENDROOT
BRANCH   1   7
ATOM      7  O   UNL     1       4.339   3.467  17.663  0.00  0.00    +0.000 OA
BRANCH   7  14
ATOM      8  C   UNL     1       6.124   5.276  18.844  0.00  0.00    +0.000 C 
ATOM      9  C   UNL     1       6.172   4.958  17.376  0.00  0.00    +0.000 A 
ATOM     10  C   UNL     1       7.149   5.568  16.571  0.00  0.00    +0.000 A 
ATOM     11  C   UNL     1       7.182   5.323  15.199  0.00  0.00    +0.000 A 
ATOM     12  C   UNL     1       6.251   4.457  14.626  0.00  0.00    +0.000 A 
ATOM     13  C   UNL     1       5.297   3.813  15.424  0.00  0.00    +0.000 A 
ATOM     14  C   UNL     1       5.241   4.051  16.813  0.00  0.00    +0.000 A 
ENDBRANCH   7  14
ENDBRANCH   1   7
BRANCH   4  15
ATOM     15  C   UNL     1       2.025   3.464  21.438  0.00  0.00    +0.000 C 
BRANCH  15  16
ATOM     16  C   UNL     1       1.530   4.776  20.875  0.00  0.00    +0.000 C 
ATOM     17  O   UNL     1       0.375   4.837  20.485  0.00  0.00    +0.000 OA
ATOM     18  N   UNL     1       2.355   5.871  20.815  0.00  0.00    +0.000 N 
ATOM     19  H   UNL     1       3.329   5.767  21.133  0.00  0.00    +0.000 HD
BRANCH  18  20
ATOM     20  C   UNL     1       1.963   7.168  20.338  0.00  0.00    +0.000 A 
ATOM     21  C   UNL     1       1.250   8.155  21.005  0.00  0.00    +0.000 A 
ATOM     22  N   UNL     1       1.086   9.211  20.185  0.00  0.00    +0.000 NA
ATOM     23  N   UNL     1       1.675   8.937  19.029  0.00  0.00    +0.000 N 
ATOM     24  C   UNL     1       1.666   9.859  17.897  0.00  0.00    +0.000 C 
ATOM     25  C   UNL     1       2.238   7.705  19.083  0.00  0.00    +0.000 A 
ATOM     26  C   UNL     1       3.008   7.059  17.970  0.00  0.00    +0.000 C 
ENDBRANCH  18  20
ENDBRANCH  15  16
ENDBRANCH   4  15
TORSDOF 5
ENDMDL
MODEL 5
REMARK VINA RESULT:      -7.2      3.471      5.464
REMARK  Name = 
REMARK  8 active torsions:
REMARK  status: ('A' for Active; 'I' for Inactive)
REMARK    1  A    between atoms: C_1  and  C_2
REMARK    2  A    between atoms: C_7  and  O_8
REMARK    3  A    between atoms: O_8  and  C_9
REMARK    4  A    between atoms: N_12  and  C_13
REMARK    5  A    between atoms: C_13  and  C_14
REMARK    6  A    between atoms: N_16  and  C_17
REMARK    7  A    between atoms: N_20  and  C_21
REMARK    8  A    between atoms: C_22  and  C_23
REMARK                            x       y       z     vdW  Elec       q    Type
REMARK                         _______ _______ _______ _____ _____    ______ ____
ROOT
ATOM      1  C   UNL     1       0.345  10.848  19.348  0.00  0.00    +0.000 C 
ATOM      2  C   UNL     1       1.458  10.164  18.535  0.00  0.00    +0.000 C 
ATOM      3  C   UNL     1       1.514   8.656  18.818  0.00  0.00    +0.000 C 
ATOM      4  N   UNL     1       1.675   8.345  20.262  0.00  0.00    +0.000 NA
ATOM      5  C   UNL     1       0.729   9.103  21.125  0.00  0.00    +0.000 C 
ATOM      6  C   UNL     1       0.717  10.611  20.821  0.00  0.00    +0.000 C 
ENDROOT
BRANCH   1   7
ATOM      7  O   UNL     1      -0.951  10.365  19.153  0.00  0.00    +0.000 OA
BRANCH   7  14
ATOM      8  C   UNL     1      -3.024  12.202  19.578  0.00  0.00    +0.000 C 
ATOM      9  C   UNL     1      -2.916  11.408  18.306  0.00  0.00    +0.000 A 
ATOM     10  C   UNL     1      -3.867  11.601  17.290  0.00  0.00    +0.000 A 
ATOM     11  C   UNL     1      -3.812  10.842  16.122  0.00  0.00    +0.000 A 
ATOM     12  C   UNL     1      -2.800   9.898  15.955  0.00  0.00    +0.000 A 
ATOM     13  C   UNL     1      -1.823   9.724  16.944  0.00  0.00    +0.000 A 
ATOM     14  C   UNL     1      -1.863  10.476  18.136  0.00  0.00    +0.000 A 
ENDBRANCH   7  14
ENDBRANCH   1   7
BRANCH   4  15
ATOM     15  C   UNL     1       1.446   6.894  20.498  0.00  0.00    +0.000 C 
BRANCH  15  16
ATOM     16  C   UNL     1       2.395   5.999  19.736  0.00  0.00    +0.000 C 
ATOM     17  O   UNL     1       1.941   5.002  19.197  0.00  0.00    +0.000 OA
ATOM     18  N   UNL     1       3.729   6.306  19.642  0.00  0.00    +0.000 N 
ATOM     19  H   UNL     1       4.073   7.144  20.134  0.00  0.00    +0.000 HD
BRANCH  18  20
ATOM     20  C   UNL     1       4.698   5.543  18.906  0.00  0.00    +0.000 A 
ATOM     21  C   UNL     1       5.427   4.438  19.325  0.00  0.00    +0.000 A 
ATOM     22  N   UNL     1       6.235   4.038  18.324  0.00  0.00    +0.000 NA
ATOM     23  N   UNL     1       6.041   4.839  17.286  0.00  0.00    +0.000 N 
ATOM     24  C   UNL     1       6.778   4.706  16.032  0.00  0.00    +0.000 C 
ATOM     25  C   UNL     1       5.098   5.764  17.590  0.00  0.00    +0.000 A 
ATOM     26  C   UNL     1       4.600   6.828  16.659  0.00  0.00    +0.000 C 
ENDBRANCH  18  20
ENDBRANCH  15  16
ENDBRANCH   4  15
TORSDOF 5
ENDMDL
MODEL 6
REMARK VINA RESULT:      -7.1      3.839      7.232
REMARK  Name = 
REMARK  8 active torsions:
REMARK  status: ('A' for Active; 'I' for Inactive)
REMARK    1  A    between atoms: C_1  and  C_2
REMARK    2  A    between atoms: C_7  and  O_8
REMARK    3  A    between atoms: O_8  and  C_9
REMARK    4  A    between atoms: N_12  and  C_13
REMARK    5  A    between atoms: C_13  and  C_14
REMARK    6  A    between atoms: N_16  and  C_17
REMARK    7  A    between atoms: N_20  and  C_21
REMARK    8  A    between atoms: C_22  and  C_23
REMARK                            x       y       z     vdW  Elec       q    Type
REMARK                         _______ _______ _______ _____ _____    ______ ____
ROOT
ATOM      1  C   UNL     1       2.959   3.257  18.549  0.00  0.00    +0.000 C 
ATOM      2  C   UNL     1       2.056   4.138  17.668  0.00  0.00    +0.000 C 
ATOM      3  C   UNL     1       2.263   5.629  17.967  0.00  0.00    +0.000 C 
ATOM      4  N   UNL     1       2.059   5.965  19.399  0.00  0.00    +0.000 NA
ATOM      5  C   UNL     1       2.782   5.044  20.317  0.00  0.00    +0.000 C 
ATOM      6  C   UNL     1       2.533   3.559  19.995  0.00  0.00    +0.000 C 
ENDROOT
BRANCH   1   7
ATOM      7  O   UNL     1       4.334   3.488  18.454  0.00  0.00    +0.000 OA
BRANCH   7  14
ATOM      8  C   UNL     1       6.266   5.348  19.268  0.00  0.00    +0.000 C 
ATOM      9  C   UNL     1       6.150   4.898  17.838  0.00  0.00    +0.000 A 
ATOM     10  C   UNL     1       7.044   5.407  16.881  0.00  0.00    +0.000 A 
ATOM     11  C   UNL     1       6.925   5.040  15.541  0.00  0.00    +0.000 A 
ATOM     12  C   UNL     1       5.924   4.151  15.153  0.00  0.00    +0.000 A 
ATOM     13  C   UNL     1       5.051   3.607  16.103  0.00  0.00    +0.000 A 
ATOM     14  C   UNL     1       5.149   3.969  17.462  0.00  0.00    +0.000 A 
ENDBRANCH   7  14
ENDBRANCH   1   7
BRANCH   4  15
ATOM     15  C   UNL     1       2.538   7.348  19.671  0.00  0.00    +0.000 C 
BRANCH  15  16
ATOM     16  C   UNL     1       1.456   8.276  20.173  0.00  0.00    +0.000 C 
ATOM     17  O   UNL     1       0.828   7.947  21.166  0.00  0.00    +0.000 OA
ATOM     18  N   UNL     1       1.196   9.462  19.533  0.00  0.00    +0.000 N 
ATOM     19  H   UNL     1       1.733   9.687  18.684  0.00  0.00    +0.000 HD
BRANCH  18  20
ATOM     20  C   UNL     1       0.220  10.427  19.959  0.00  0.00    +0.000 A 
ATOM     21  C   UNL     1       0.231  11.221  21.097  0.00  0.00    +0.000 A 
ATOM     22  N   UNL     1      -0.887  11.975  21.118  0.00  0.00    +0.000 NA
ATOM     23  N   UNL     1      -1.599  11.696  20.036  0.00  0.00    +0.000 N 
ATOM     24  C   UNL     1      -2.890  12.317  19.754  0.00  0.00    +0.000 C 
ATOM     25  C   UNL     1      -0.954  10.766  19.290  0.00  0.00    +0.000 A 
ATOM     26  C   UNL     1      -1.443  10.215  17.984  0.00  0.00    +0.000 C 
ENDBRANCH  18  20
ENDBRANCH  15  16
ENDBRANCH   4  15
TORSDOF 5
ENDMDL
MODEL 7
REMARK VINA RESULT:      -7.1      1.251      2.013
REMARK  Name = 
REMARK  8 active torsions:
REMARK  status: ('A' for Active; 'I' for Inactive)
REMARK    1  A    between atoms: C_1  and  C_2
REMARK    2  A    between atoms: C_7  and  O_8
REMARK    3  A    between atoms: O_8  and  C_9
REMARK    4  A    between atoms: N_12  and  C_13
REMARK    5  A    between atoms: C_13  and  C_14
REMARK    6  A    between atoms: N_16  and  C_17
REMARK    7  A    between atoms: N_20  and  C_21
REMARK    8  A    between atoms: C_22  and  C_23
REMARK                            x       y       z     vdW  Elec       q    Type
REMARK                         _______ _______ _______ _____ _____    ______ ____
ROOT
ATOM      1  C   UNL     1       1.866   4.618  20.895  0.00  0.00    +0.000 C 
ATOM      2  C   UNL     1       2.743   3.459  21.401  0.00  0.00    +0.000 C 
ATOM      3  C   UNL     1       3.482   2.769  20.246  0.00  0.00    +0.000 C 
ATOM      4  N   UNL     1       2.567   2.288  19.180  0.00  0.00    +0.000 NA
ATOM      5  C   UNL     1       1.580   3.318  18.756  0.00  0.00    +0.000 C 
ATOM      6  C   UNL     1       0.849   3.971  19.942  0.00  0.00    +0.000 C 
ENDROOT
BRANCH   1   7
ATOM      7  O   UNL     1       2.524   5.631  20.192  0.00  0.00    +0.000 OA
BRANCH   7  14
ATOM      8  C   UNL     1       3.399   6.387  17.639  0.00  0.00    +0.000 C 
ATOM      9  C   UNL     1       2.580   7.306  18.502  0.00  0.00    +0.000 A 
ATOM     10  C   UNL     1       2.224   8.575  18.013  0.00  0.00    +0.000 A 
ATOM     11  C   UNL     1       1.505   9.461  18.814  0.00  0.00    +0.000 A 
ATOM     12  C   UNL     1       1.123   9.080  20.100  0.00  0.00    +0.000 A 
ATOM     13  C   UNL     1       1.439   7.804  20.584  0.00  0.00    +0.000 A 
ATOM     14  C   UNL     1       2.171   6.894  19.794  0.00  0.00    +0.000 A 
ENDBRANCH   7  14
ENDBRANCH   1   7
BRANCH   4  15
ATOM     15  C   UNL     1       3.350   1.885  17.980  0.00  0.00    +0.000 C 
BRANCH  15  16
ATOM     16  C   UNL     1       4.419   2.880  17.592  0.00  0.00    +0.000 C 
ATOM     17  O   UNL     1       4.900   3.581  18.468  0.00  0.00    +0.000 OA
ATOM     18  N   UNL     1       4.843   2.984  16.291  0.00  0.00    +0.000 N 
ATOM     19  H   UNL     1       4.392   2.390  15.581  0.00  0.00    +0.000 HD
BRANCH  18  20
ATOM     20  C   UNL     1       5.881   3.866  15.834  0.00  0.00    +0.000 A 
ATOM     21  C   UNL     1       6.751   4.640  16.590  0.00  0.00    +0.000 A 
ATOM     22  N   UNL     1       7.557   5.333  15.762  0.00  0.00    +0.000 NA
ATOM     23  N   UNL     1       7.239   5.022  14.513  0.00  0.00    +0.000 N 
ATOM     24  C   UNL     1       7.900   5.615  13.355  0.00  0.00    +0.000 C 
ATOM     25  C   UNL     1       6.230   4.116  14.509  0.00  0.00    +0.000 A 
ATOM     26  C   UNL     1       5.615   3.514  13.282  0.00  0.00    +0.000 C 
ENDBRANCH  18  20
ENDBRANCH  15  16
ENDBRANCH   4  15
TORSDOF 5
ENDMDL
MODEL 8
REMARK VINA RESULT:      -7.0      3.642      7.088
REMARK  Name = 
REMARK  8 active torsions:
REMARK  status: ('A' for Active; 'I' for Inactive)
REMARK    1  A    between atoms: C_1  and  C_2
REMARK    2  A    between atoms: C_7  and  O_8
REMARK    3  A    between atoms: O_8  and  C_9
REMARK    4  A    between atoms: N_12  and  C_13
REMARK    5  A    between atoms: C_13  and  C_14
REMARK    6  A    between atoms: N_16  and  C_17
REMARK    7  A    between atoms: N_20  and  C_21
REMARK    8  A    between atoms: C_22  and  C_23
REMARK                            x       y       z     vdW  Elec       q    Type
REMARK                         _______ _______ _______ _____ _____    ______ ____
ROOT
ATOM      1  C   UNL     1       4.084   3.482  18.007  0.00  0.00    +0.000 C 
ATOM      2  C   UNL     1       2.619   3.736  17.613  0.00  0.00    +0.000 C 
ATOM      3  C   UNL     1       2.246   5.217  17.764  0.00  0.00    +0.000 C 
ATOM      4  N   UNL     1       2.504   5.742  19.129  0.00  0.00    +0.000 NA
ATOM      5  C   UNL     1       3.857   5.389  19.638  0.00  0.00    +0.000 C 
ATOM      6  C   UNL     1       4.183   3.893  19.485  0.00  0.00    +0.000 C 
ENDROOT
BRANCH   1   7
ATOM      7  O   UNL     1       5.050   4.202  17.299  0.00  0.00    +0.000 OA
BRANCH   7  14
ATOM      8  C   UNL     1       4.987   6.653  15.941  0.00  0.00    +0.000 C 
ATOM      9  C   UNL     1       6.005   6.363  17.009  0.00  0.00    +0.000 A 
ATOM     10  C   UNL     1       6.943   7.351  17.353  0.00  0.00    +0.000 A 
ATOM     11  C   UNL     1       7.925   7.087  18.307  0.00  0.00    +0.000 A 
ATOM     12  C   UNL     1       7.966   5.842  18.933  0.00  0.00    +0.000 A 
ATOM     13  C   UNL     1       7.013   4.862  18.627  0.00  0.00    +0.000 A 
ATOM     14  C   UNL     1       6.015   5.106  17.661  0.00  0.00    +0.000 A 
ENDBRANCH   7  14
ENDBRANCH   1   7
BRANCH   4  15
ATOM     15  C   UNL     1       2.386   7.225  19.135  0.00  0.00    +0.000 C 
BRANCH  15  16
ATOM     16  C   UNL     1       1.596   7.766  20.304  0.00  0.00    +0.000 C 
ATOM     17  O   UNL     1       1.324   7.005  21.218  0.00  0.00    +0.000 OA
ATOM     18  N   UNL     1       1.206   9.082  20.340  0.00  0.00    +0.000 N 
ATOM     19  H   UNL     1       1.436   9.682  19.535  0.00  0.00    +0.000 HD
BRANCH  18  20
ATOM     20  C   UNL     1       0.492   9.696  21.425  0.00  0.00    +0.000 A 
ATOM     21  C   UNL     1       0.603   9.442  22.785  0.00  0.00    +0.000 A 
ATOM     22  N   UNL     1      -0.263  10.231  23.452  0.00  0.00    +0.000 NA
ATOM     23  N   UNL     1      -0.909  10.980  22.570  0.00  0.00    +0.000 N 
ATOM     24  C   UNL     1      -1.946  11.936  22.949  0.00  0.00    +0.000 C 
ATOM     25  C   UNL     1      -0.469  10.698  21.319  0.00  0.00    +0.000 A 
ATOM     26  C   UNL     1      -0.954  11.360  20.064  0.00  0.00    +0.000 C 
ENDBRANCH  18  20
ENDBRANCH  15  16
ENDBRANCH   4  15
TORSDOF 5
ENDMDL
MODEL 9
REMARK VINA RESULT:      -7.0      3.603      7.465
REMARK  Name = 
REMARK  8 active torsions:
REMARK  status: ('A' for Active; 'I' for Inactive)
REMARK    1  A    between atoms: C_1  and  C_2
REMARK    2  A    between atoms: C_7  and  O_8
REMARK    3  A    between atoms: O_8  and  C_9
REMARK    4  A    between atoms: N_12  and  C_13
REMARK    5  A    between atoms: C_13  and  C_14
REMARK    6  A    between atoms: N_16  and  C_17
REMARK    7  A    between atoms: N_20  and  C_21
REMARK    8  A    between atoms: C_22  and  C_23
REMARK                            x       y       z     vdW  Elec       q    Type
REMARK                         _______ _______ _______ _____ _____    ______ ____
ROOT
ATOM      1  C   UNL     1       4.187   3.382  18.118  0.00  0.00    +0.000 C 
ATOM      2  C   UNL     1       2.822   3.737  17.502  0.00  0.00    +0.000 C 
ATOM      3  C   UNL     1       2.496   5.226  17.682  0.00  0.00    +0.000 C 
ATOM      4  N   UNL     1       2.542   5.660  19.101  0.00  0.00    +0.000 NA
ATOM      5  C   UNL     1       3.771   5.206  19.805  0.00  0.00    +0.000 C 
ATOM      6  C   UNL     1       4.052   3.705  19.614  0.00  0.00    +0.000 C 
ENDROOT
BRANCH   1   7
ATOM      7  O   UNL     1       5.290   4.086  17.628  0.00  0.00    +0.000 OA
BRANCH   7  14
ATOM      8  C   UNL     1       7.263   6.066  17.426  0.00  0.00    +0.000 C 
ATOM      9  C   UNL     1       6.832   5.252  16.239  0.00  0.00    +0.000 A 
ATOM     10  C   UNL     1       7.444   5.472  14.993  0.00  0.00    +0.000 A 
ATOM     11  C   UNL     1       7.028   4.760  13.869  0.00  0.00    +0.000 A 
ATOM     12  C   UNL     1       6.009   3.815  13.985  0.00  0.00    +0.000 A 
ATOM     13  C   UNL     1       5.418   3.559  15.228  0.00  0.00    +0.000 A 
ATOM     14  C   UNL     1       5.819   4.271  16.377  0.00  0.00    +0.000 A 
ENDBRANCH   7  14
ENDBRANCH   1   7
BRANCH   4  15
ATOM     15  C   UNL     1       2.492   7.145  19.181  0.00  0.00    +0.000 C 
BRANCH  15  16
ATOM     16  C   UNL     1       1.641   7.662  20.318  0.00  0.00    +0.000 C 
ATOM     17  O   UNL     1       1.193   6.856  21.117  0.00  0.00    +0.000 OA
ATOM     18  N   UNL     1       1.390   9.005  20.454  0.00  0.00    +0.000 N 
ATOM     19  H   UNL     1       1.768   9.646  19.742  0.00  0.00    +0.000 HD
BRANCH  18  20
ATOM     20  C   UNL     1       0.632   9.594  21.522  0.00  0.00    +0.000 A 
ATOM     21  C   UNL     1       0.741   9.366  22.887  0.00  0.00    +0.000 A 
ATOM     22  N   UNL     1      -0.173  10.115  23.534  0.00  0.00    +0.000 NA
ATOM     23  N   UNL     1      -0.851  10.814  22.635  0.00  0.00    +0.000 N 
ATOM     24  C   UNL     1      -1.943  11.716  22.990  0.00  0.00    +0.000 C 
ATOM     25  C   UNL     1      -0.382  10.540  21.392  0.00  0.00    +0.000 A 
ATOM     26  C   UNL     1      -0.889  11.156  20.123  0.00  0.00    +0.000 C 
ENDBRANCH  18  20
ENDBRANCH  15  16
ENDBRANCH   4  15
TORSDOF 5
ENDMDL
