MODEL 1
REMARK VINA RESULT:      -7.7      0.000      0.000
REMARK  Name = 
REMARK  9 active torsions:
REMARK  status: ('A' for Active; 'I' for Inactive)
REMARK    1  A    between atoms: C_1  and  O_2
REMARK    2  A    between atoms: O_2  and  C_3
REMARK    3  A    between atoms: C_6  and  C_7
REMARK    4  A    between atoms: C_7  and  N_8
REMARK    5  A    between atoms: C_9  and  C_10
REMARK    6  A    between atoms: C_13  and  C_14
REMARK    7  A    between atoms: C_17  and  C_18
REMARK    8  A    between atoms: C_21  and  C_22
REMARK    9  A    between atoms: C_29  and  N_30
REMARK                            x       y       z     vdW  Elec       q    Type
REMARK                         _______ _______ _______ _____ _____    ______ ____
ROOT
ATOM      1  N   UNL     1       0.578  11.537  19.788  0.00  0.00    +0.000 N 
ATOM      2  C   UNL     1       0.510  12.701  18.925  0.00  0.00    +0.000 A 
ATOM      3  C   UNL     1      -0.772  13.233  18.819  0.00  0.00    +0.000 A 
ATOM      4  C   UNL     1      -0.710  14.140  20.005  0.00  0.00    +0.000 A 
ATOM      5  O   UNL     1      -1.004  15.331  19.997  0.00  0.00    +0.000 OA
ATOM      6  C   UNL     1      -0.441  13.289  21.256  0.00  0.00    +0.000 A 
ATOM      7  C   UNL     1      -1.019  13.844  22.396  0.00  0.00    +0.000 A 
ATOM      8  C   UNL     1      -1.680  12.999  23.250  0.00  0.00    +0.000 A 
ATOM      9  C   UNL     1      -1.664  11.621  22.931  0.00  0.00    +0.000 A 
ATOM     10  C   UNL     1      -0.855  11.039  21.876  0.00  0.00    +0.000 A 
ATOM     11  C   UNL     1      -0.165  11.862  21.002  0.00  0.00    +0.000 A 
ENDROOT
BRANCH   2  12
ATOM     12  C   UNL     1       1.793  13.546  19.103  0.00  0.00    +0.000 A 
ATOM     13  C   UNL     1       2.300  14.278  18.005  0.00  0.00    +0.000 A 
ATOM     14  C   UNL     1       3.545  14.911  18.030  0.00  0.00    +0.000 A 
ATOM     15  C   UNL     1       4.338  14.844  19.169  0.00  0.00    +0.000 A 
ATOM     16  C   UNL     1       5.698  15.477  19.175  0.00  0.00    +0.000 C 
ATOM     17  C   UNL     1       3.843  14.163  20.289  0.00  0.00    +0.000 A 
ATOM     18  C   UNL     1       2.584  13.529  20.262  0.00  0.00    +0.000 A 
ENDBRANCH   2  12
BRANCH   3  19
ATOM     19  C   UNL     1      -2.074  12.330  18.787  0.00  0.00    +0.000 A 
ATOM     20  C   UNL     1      -2.334  11.288  17.865  0.00  0.00    +0.000 A 
ATOM     21  C   UNL     1      -3.639  10.704  17.726  0.00  0.00    +0.000 A 
ATOM     22  C   UNL     1      -4.723  11.190  18.453  0.00  0.00    +0.000 A 
ATOM     23  C   UNL     1      -6.125  10.658  18.339  0.00  0.00    +0.000 C 
ATOM     24  C   UNL     1      -4.474  12.199  19.372  0.00  0.00    +0.000 A 
ATOM     25  C   UNL     1      -3.165  12.650  19.606  0.00  0.00    +0.000 A 
ENDBRANCH   3  19
BRANCH   8  26
ATOM     26  N   UNL     1      -2.616  13.580  24.118  0.00  0.00    +0.000 N 
ATOM     27  H   UNL     1      -3.522  13.102  24.137  0.00  0.00    +0.000 HD
ATOM     28  H   UNL     1      -2.728  14.588  24.074  0.00  0.00    +0.000 HD
ENDBRANCH   8  26
BRANCH   1  29
ATOM     29  C   UNL     1       0.755  10.236  18.995  0.00  0.00    +0.000 C 
BRANCH  29  33
ATOM     30  C   UNL     1       2.398   6.204  19.589  0.00  0.00    +0.000 A 
ATOM     31  C   UNL     1       1.832   6.948  20.653  0.00  0.00    +0.000 A 
ATOM     32  C   UNL     1       1.438   8.294  20.525  0.00  0.00    +0.000 A 
ATOM     33  C   UNL     1       1.606   8.977  19.328  0.00  0.00    +0.000 A 
ATOM     34  C   UNL     1       2.274   8.244  18.285  0.00  0.00    +0.000 A 
ATOM     35  C   UNL     1       2.661   6.879  18.415  0.00  0.00    +0.000 A 
BRANCH  30  37
ATOM     36  C   UNL     1       2.006   4.296  21.016  0.00  0.00    +0.000 C 
ATOM     37  O   UNL     1       2.643   4.895  19.884  0.00  0.00    +0.000 OA
ENDBRANCH  30  37
ENDBRANCH  29  33
ENDBRANCH   1  29
TORSDOF 6
ENDMDL
MODEL 2
REMARK VINA RESULT:      -7.6      0.859      1.420
REMARK  Name = 
REMARK  9 active torsions:
REMARK  status: ('A' for Active; 'I' for Inactive)
REMARK    1  A    between atoms: C_1  and  O_2
REMARK    2  A    between atoms: O_2  and  C_3
REMARK    3  A    between atoms: C_6  and  C_7
REMARK    4  A    between atoms: C_7  and  N_8
REMARK    5  A    between atoms: C_9  and  C_10
REMARK    6  A    between atoms: C_13  and  C_14
REMARK    7  A    between atoms: C_17  and  C_18
REMARK    8  A    between atoms: C_21  and  C_22
REMARK    9  A    between atoms: C_29  and  N_30
REMARK                            x       y       z     vdW  Elec       q    Type
REMARK                         _______ _______ _______ _____ _____    ______ ____
ROOT
ATOM      1  N   UNL     1       0.159  11.189  20.168  0.00  0.00    +0.000 N 
ATOM      2  C   UNL     1       0.235  12.214  19.145  0.00  0.00    +0.000 A 
ATOM      3  C   UNL     1      -0.983  12.845  18.906  0.00  0.00    +0.000 A 
ATOM      4  C   UNL     1      -0.867  13.906  19.952  0.00  0.00    +0.000 A 
ATOM      5  O   UNL     1      -1.038  15.105  19.760  0.00  0.00    +0.000 OA
ATOM      6  C   UNL     1      -0.724  13.225  21.322  0.00  0.00    +0.000 A 
ATOM      7  C   UNL     1      -1.278  13.994  22.345  0.00  0.00    +0.000 A 
ATOM      8  C   UNL     1      -2.047  13.351  23.279  0.00  0.00    +0.000 A 
ATOM      9  C   UNL     1      -2.160  11.945  23.162  0.00  0.00    +0.000 A 
ATOM     10  C   UNL     1      -1.382  11.141  22.238  0.00  0.00    +0.000 A 
ATOM     11  C   UNL     1      -0.585  11.757  21.288  0.00  0.00    +0.000 A 
ENDROOT
BRANCH   2  12
ATOM     12  C   UNL     1       1.591  12.949  19.259  0.00  0.00    +0.000 A 
ATOM     13  C   UNL     1       2.213  13.065  20.525  0.00  0.00    +0.000 A 
ATOM     14  C   UNL     1       3.335  13.868  20.743  0.00  0.00    +0.000 A 
ATOM     15  C   UNL     1       3.892  14.588  19.693  0.00  0.00    +0.000 A 
ATOM     16  C   UNL     1       5.063  15.492  19.940  0.00  0.00    +0.000 C 
ATOM     17  C   UNL     1       3.325  14.458  18.418  0.00  0.00    +0.000 A 
ATOM     18  C   UNL     1       2.194  13.644  18.200  0.00  0.00    +0.000 A 
ENDBRANCH   2  12
BRANCH   3  19
ATOM     19  C   UNL     1      -2.368  12.075  18.945  0.00  0.00    +0.000 A 
ATOM     20  C   UNL     1      -2.709  10.948  18.158  0.00  0.00    +0.000 A 
ATOM     21  C   UNL     1      -4.061  10.479  18.049  0.00  0.00    +0.000 A 
ATOM     22  C   UNL     1      -5.109  11.161  18.664  0.00  0.00    +0.000 A 
ATOM     23  C   UNL     1      -6.554  10.756  18.569  0.00  0.00    +0.000 C 
ATOM     24  C   UNL     1      -4.782  12.256  19.451  0.00  0.00    +0.000 A 
ATOM     25  C   UNL     1      -3.440  12.606  19.673  0.00  0.00    +0.000 A 
ENDBRANCH   3  19
BRANCH   8  26
ATOM     26  N   UNL     1      -2.946  14.140  24.012  0.00  0.00    +0.000 N 
ATOM     27  H   UNL     1      -3.169  13.767  24.941  0.00  0.00    +0.000 HD
ATOM     28  H   UNL     1      -3.779  14.463  23.532  0.00  0.00    +0.000 HD
ENDBRANCH   8  26
BRANCH   1  29
ATOM     29  C   UNL     1       0.228   9.774  19.578  0.00  0.00    +0.000 C 
BRANCH  29  33
ATOM     30  C   UNL     1       3.084   6.703  18.269  0.00  0.00    +0.000 A 
ATOM     31  C   UNL     1       2.582   6.744  19.591  0.00  0.00    +0.000 A 
ATOM     32  C   UNL     1       1.787   7.800  20.079  0.00  0.00    +0.000 A 
ATOM     33  C   UNL     1       1.466   8.884  19.273  0.00  0.00    +0.000 A 
ATOM     34  C   UNL     1       2.065   8.881  17.965  0.00  0.00    +0.000 A 
ATOM     35  C   UNL     1       2.860   7.807  17.471  0.00  0.00    +0.000 A 
BRANCH  30  37
ATOM     36  C   UNL     1       4.724   5.581  16.896  0.00  0.00    +0.000 C 
ATOM     37  O   UNL     1       3.768   5.563  17.960  0.00  0.00    +0.000 OA
ENDBRANCH  30  37
ENDBRANCH  29  33
ENDBRANCH   1  29
TORSDOF 6
ENDMDL
MODEL 3
REMARK VINA RESULT:      -7.5      1.192      1.367
REMARK  Name = 
REMARK  9 active torsions:
REMARK  status: ('A' for Active; 'I' for Inactive)
REMARK    1  A    between atoms: C_1  and  O_2
REMARK    2  A    between atoms: O_2  and  C_3
REMARK    3  A    between atoms: C_6  and  C_7
REMARK    4  A    between atoms: C_7  and  N_8
REMARK    5  A    between atoms: C_9  and  C_10
REMARK    6  A    between atoms: C_13  and  C_14
REMARK    7  A    between atoms: C_17  and  C_18
REMARK    8  A    between atoms: C_21  and  C_22
REMARK    9  A    between atoms: C_29  and  N_30
REMARK                            x       y       z     vdW  Elec       q    Type
REMARK                         _______ _______ _______ _____ _____    ______ ____
ROOT
ATOM      1  N   UNL     1      -0.454  11.635  20.727  0.00  0.00    +0.000 N 
ATOM      2  C   UNL     1      -0.380  12.682  19.726  0.00  0.00    +0.000 A 
ATOM      3  C   UNL     1      -1.609  13.284  19.466  0.00  0.00    +0.000 A 
ATOM      4  C   UNL     1      -1.549  14.327  20.535  0.00  0.00    +0.000 A 
ATOM      5  O   UNL     1      -1.749  15.524  20.361  0.00  0.00    +0.000 OA
ATOM      6  C   UNL     1      -1.423  13.624  21.896  0.00  0.00    +0.000 A 
ATOM      7  C   UNL     1      -2.025  14.357  22.917  0.00  0.00    +0.000 A 
ATOM      8  C   UNL     1      -2.799  13.675  23.819  0.00  0.00    +0.000 A 
ATOM      9  C   UNL     1      -2.870  12.269  23.672  0.00  0.00    +0.000 A 
ATOM     10  C   UNL     1      -2.046  11.505  22.755  0.00  0.00    +0.000 A 
ATOM     11  C   UNL     1      -1.242  12.160  21.837  0.00  0.00    +0.000 A 
ENDROOT
BRANCH   2  12
ATOM     12  C   UNL     1       0.951  13.452  19.889  0.00  0.00    +0.000 A 
ATOM     13  C   UNL     1       1.307  14.432  18.934  0.00  0.00    +0.000 A 
ATOM     14  C   UNL     1       2.567  15.035  18.906  0.00  0.00    +0.000 A 
ATOM     15  C   UNL     1       3.529  14.685  19.846  0.00  0.00    +0.000 A 
ATOM     16  C   UNL     1       4.898  15.293  19.781  0.00  0.00    +0.000 C 
ATOM     17  C   UNL     1       3.190  13.750  20.832  0.00  0.00    +0.000 A 
ATOM     18  C   UNL     1       1.916  13.146  20.861  0.00  0.00    +0.000 A 
ENDBRANCH   2  12
BRANCH   3  19
ATOM     19  C   UNL     1      -2.972  12.475  19.455  0.00  0.00    +0.000 A 
ATOM     20  C   UNL     1      -3.291  11.406  18.583  0.00  0.00    +0.000 A 
ATOM     21  C   UNL     1      -4.631  10.910  18.447  0.00  0.00    +0.000 A 
ATOM     22  C   UNL     1      -5.691  11.512  19.123  0.00  0.00    +0.000 A 
ATOM     23  C   UNL     1      -7.125  11.076  19.007  0.00  0.00    +0.000 C 
ATOM     24  C   UNL     1      -5.385  12.549  19.992  0.00  0.00    +0.000 A 
ATOM     25  C   UNL     1      -4.051  12.918  20.231  0.00  0.00    +0.000 A 
ENDBRANCH   3  19
BRANCH   8  26
ATOM     26  N   UNL     1      -3.738  14.425  24.543  0.00  0.00    +0.000 N 
ATOM     27  H   UNL     1      -4.411  14.930  23.957  0.00  0.00    +0.000 HD
ATOM     28  H   UNL     1      -3.387  15.009  25.294  0.00  0.00    +0.000 HD
ENDBRANCH   8  26
BRANCH   1  29
ATOM     29  C   UNL     1      -0.331  10.234  20.113  0.00  0.00    +0.000 C 
BRANCH  29  33
ATOM     30  C   UNL     1       2.634   7.382  18.571  0.00  0.00    +0.000 A 
ATOM     31  C   UNL     1       2.191   7.349  19.915  0.00  0.00    +0.000 A 
ATOM     32  C   UNL     1       1.360   8.340  20.474  0.00  0.00    +0.000 A 
ATOM     33  C   UNL     1       0.941   9.430  19.723  0.00  0.00    +0.000 A 
ATOM     34  C   UNL     1       1.480   9.505  18.390  0.00  0.00    +0.000 A 
ATOM     35  C   UNL     1       2.311   8.496  17.824  0.00  0.00    +0.000 A 
BRANCH  30  37
ATOM     36  C   UNL     1       4.039   5.516  19.187  0.00  0.00    +0.000 C 
ATOM     37  O   UNL     1       3.367   6.295  18.193  0.00  0.00    +0.000 OA
ENDBRANCH  30  37
ENDBRANCH  29  33
ENDBRANCH   1  29
TORSDOF 6
ENDMDL
MODEL 4
REMARK VINA RESULT:      -7.4      0.890      1.224
REMARK  Name = 
REMARK  9 active torsions:
REMARK  status: ('A' for Active; 'I' for Inactive)
REMARK    1  A    between atoms: C_1  and  O_2
REMARK    2  A    between atoms: O_2  and  C_3
REMARK    3  A    between atoms: C_6  and  C_7
REMARK    4  A    between atoms: C_7  and  N_8
REMARK    5  A    between atoms: C_9  and  C_10
REMARK    6  A    between atoms: C_13  and  C_14
REMARK    7  A    between atoms: C_17  and  C_18
REMARK    8  A    between atoms: C_21  and  C_22
REMARK    9  A    between atoms: C_29  and  N_30
REMARK                            x       y       z     vdW  Elec       q    Type
REMARK                         _______ _______ _______ _____ _____    ______ ____
ROOT
ATOM      1  N   UNL     1       1.113  12.109  19.469  0.00  0.00    +0.000 N 
ATOM      2  C   UNL     1       0.875  13.347  18.750  0.00  0.00    +0.000 A 
ATOM      3  C   UNL     1      -0.466  13.723  18.731  0.00  0.00    +0.000 A 
ATOM      4  C   UNL     1      -0.476  14.488  20.015  0.00  0.00    +0.000 A 
ATOM      5  O   UNL     1      -0.912  15.626  20.153  0.00  0.00    +0.000 OA
ATOM      6  C   UNL     1      -0.063  13.539  21.151  0.00  0.00    +0.000 A 
ATOM      7  C   UNL     1      -0.667  13.883  22.360  0.00  0.00    +0.000 A 
ATOM      8  C   UNL     1      -1.191  12.870  23.120  0.00  0.00    +0.000 A 
ATOM      9  C   UNL     1      -1.017  11.550  22.640  0.00  0.00    +0.000 A 
ATOM     10  C   UNL     1      -0.179  11.199  21.509  0.00  0.00    +0.000 A 
ATOM     11  C   UNL     1       0.377  12.197  20.725  0.00  0.00    +0.000 A 
ENDROOT
BRANCH   2  12
ATOM     12  C   UNL     1       2.051  14.319  19.003  0.00  0.00    +0.000 A 
ATOM     13  C   UNL     1       2.115  15.533  18.280  0.00  0.00    +0.000 A 
ATOM     14  C   UNL     1       3.231  16.372  18.313  0.00  0.00    +0.000 A 
ATOM     15  C   UNL     1       4.336  16.033  19.084  0.00  0.00    +0.000 A 
ATOM     16  C   UNL     1       5.555  16.907  19.076  0.00  0.00    +0.000 C 
ATOM     17  C   UNL     1       4.284  14.859  19.847  0.00  0.00    +0.000 A 
ATOM     18  C   UNL     1       3.154  14.015  19.815  0.00  0.00    +0.000 A 
ENDBRANCH   2  12
BRANCH   3  19
ATOM     19  C   UNL     1      -1.648  12.674  18.618  0.00  0.00    +0.000 A 
ATOM     20  C   UNL     1      -1.824  11.738  17.570  0.00  0.00    +0.000 A 
ATOM     21  C   UNL     1      -3.052  11.016  17.394  0.00  0.00    +0.000 A 
ATOM     22  C   UNL     1      -4.152  11.261  18.214  0.00  0.00    +0.000 A 
ATOM     23  C   UNL     1      -5.482  10.574  18.073  0.00  0.00    +0.000 C 
ATOM     24  C   UNL     1      -3.983  12.164  19.254  0.00  0.00    +0.000 A 
ATOM     25  C   UNL     1      -2.729  12.742  19.506  0.00  0.00    +0.000 A 
ENDBRANCH   3  19
BRANCH   8  26
ATOM     26  N   UNL     1      -2.161  13.226  24.068  0.00  0.00    +0.000 N 
ATOM     27  H   UNL     1      -2.994  12.628  24.059  0.00  0.00    +0.000 HD
ATOM     28  H   UNL     1      -2.410  14.207  24.133  0.00  0.00    +0.000 HD
ENDBRANCH   8  26
BRANCH   1  29
ATOM     29  C   UNL     1       1.421  10.940  18.524  0.00  0.00    +0.000 C 
BRANCH  29  33
ATOM     30  C   UNL     1       2.385   6.799  19.631  0.00  0.00    +0.000 A 
ATOM     31  C   UNL     1       2.418   7.243  18.287  0.00  0.00    +0.000 A 
ATOM     32  C   UNL     1       1.969   8.517  17.887  0.00  0.00    +0.000 A 
ATOM     33  C   UNL     1       1.445   9.412  18.810  0.00  0.00    +0.000 A 
ATOM     34  C   UNL     1       1.323   8.913  20.155  0.00  0.00    +0.000 A 
ATOM     35  C   UNL     1       1.788   7.628  20.558  0.00  0.00    +0.000 A 
BRANCH  30  37
ATOM     36  C   UNL     1       4.295   5.331  19.457  0.00  0.00    +0.000 C 
ATOM     37  O   UNL     1       2.935   5.566  19.831  0.00  0.00    +0.000 OA
ENDBRANCH  30  37
ENDBRANCH  29  33
ENDBRANCH   1  29
TORSDOF 6
ENDMDL
MODEL 5
REMARK VINA RESULT:      -7.1      2.976      6.892
REMARK  Name = 
REMARK  9 active torsions:
REMARK  status: ('A' for Active; 'I' for Inactive)
REMARK    1  A    between atoms: C_1  and  O_2
REMARK    2  A    between atoms: O_2  and  C_3
REMARK    3  A    between atoms: C_6  and  C_7
REMARK    4  A    between atoms: C_7  and  N_8
REMARK    5  A    between atoms: C_9  and  C_10
REMARK    6  A    between atoms: C_13  and  C_14
REMARK    7  A    between atoms: C_17  and  C_18
REMARK    8  A    between atoms: C_21  and  C_22
REMARK    9  A    between atoms: C_29  and  N_30
REMARK                            x       y       z     vdW  Elec       q    Type
REMARK                         _______ _______ _______ _____ _____    ______ ____
ROOT
ATOM      1  N   UNL     1      -1.407  13.807  21.225  0.00  0.00    +0.000 N 
ATOM      2  C   UNL     1      -1.116  13.022  22.410  0.00  0.00    +0.000 A 
ATOM      3  C   UNL     1      -1.913  13.358  23.502  0.00  0.00    +0.000 A 
ATOM      4  C   UNL     1      -3.057  12.445  23.201  0.00  0.00    +0.000 A 
ATOM      5  O   UNL     1      -3.562  11.663  24.000  0.00  0.00    +0.000 OA
ATOM      6  C   UNL     1      -3.625  12.813  21.821  0.00  0.00    +0.000 A 
ATOM      7  C   UNL     1      -4.993  12.562  21.738  0.00  0.00    +0.000 A 
ATOM      8  C   UNL     1      -5.781  13.517  21.151  0.00  0.00    +0.000 A 
ATOM      9  C   UNL     1      -5.126  14.654  20.620  0.00  0.00    +0.000 A 
ATOM     10  C   UNL     1      -3.685  14.781  20.502  0.00  0.00    +0.000 A 
ATOM     11  C   UNL     1      -2.858  13.828  21.073  0.00  0.00    +0.000 A 
ENDROOT
BRANCH   2  12
ATOM     12  C   UNL     1      -0.774  11.573  21.992  0.00  0.00    +0.000 A 
ATOM     13  C   UNL     1      -0.523  10.604  22.991  0.00  0.00    +0.000 A 
ATOM     14  C   UNL     1      -0.029   9.331  22.699  0.00  0.00    +0.000 A 
ATOM     15  C   UNL     1       0.228   8.967  21.383  0.00  0.00    +0.000 A 
ATOM     16  C   UNL     1       0.809   7.619  21.076  0.00  0.00    +0.000 C 
ATOM     17  C   UNL     1      -0.054   9.891  20.367  0.00  0.00    +0.000 A 
ATOM     18  C   UNL     1      -0.556  11.174  20.664  0.00  0.00    +0.000 A 
ENDBRANCH   2  12
BRANCH   3  19
ATOM     19  C   UNL     1      -2.362  14.847  23.808  0.00  0.00    +0.000 A 
ATOM     20  C   UNL     1      -1.502  15.969  23.887  0.00  0.00    +0.000 A 
ATOM     21  C   UNL     1      -1.938  17.222  24.435  0.00  0.00    +0.000 A 
ATOM     22  C   UNL     1      -3.214  17.364  24.976  0.00  0.00    +0.000 A 
ATOM     23  C   UNL     1      -3.733  18.631  25.599  0.00  0.00    +0.000 C 
ATOM     24  C   UNL     1      -4.068  16.275  24.887  0.00  0.00    +0.000 A 
ATOM     25  C   UNL     1      -3.678  15.109  24.209  0.00  0.00    +0.000 A 
ENDBRANCH   3  19
BRANCH   8  26
ATOM     26  N   UNL     1      -7.149  13.489  21.460  0.00  0.00    +0.000 N 
ATOM     27  H   UNL     1      -7.361  13.700  22.441  0.00  0.00    +0.000 HD
ATOM     28  H   UNL     1      -7.684  12.693  21.127  0.00  0.00    +0.000 HD
ENDBRANCH   8  26
BRANCH   1  29
ATOM     29  C   UNL     1      -0.317  14.847  20.936  0.00  0.00    +0.000 C 
BRANCH  29  33
ATOM     30  C   UNL     1       3.011  15.088  18.077  0.00  0.00    +0.000 A 
ATOM     31  C   UNL     1       2.392  16.246  18.607  0.00  0.00    +0.000 A 
ATOM     32  C   UNL     1       1.231  16.201  19.403  0.00  0.00    +0.000 A 
ATOM     33  C   UNL     1       0.613  14.993  19.698  0.00  0.00    +0.000 A 
ATOM     34  C   UNL     1       1.191  13.833  19.072  0.00  0.00    +0.000 A 
ATOM     35  C   UNL     1       2.371  13.881  18.276  0.00  0.00    +0.000 A 
BRANCH  30  37
ATOM     36  C   UNL     1       5.418  14.938  17.972  0.00  0.00    +0.000 C 
ATOM     37  O   UNL     1       4.169  15.328  17.396  0.00  0.00    +0.000 OA
ENDBRANCH  30  37
ENDBRANCH  29  33
ENDBRANCH   1  29
TORSDOF 6
ENDMDL
MODEL 6
REMARK VINA RESULT:      -7.0      3.256      7.097
REMARK  Name = 
REMARK  9 active torsions:
REMARK  status: ('A' for Active; 'I' for Inactive)
REMARK    1  A    between atoms: C_1  and  O_2
REMARK    2  A    between atoms: O_2  and  C_3
REMARK    3  A    between atoms: C_6  and  C_7
REMARK    4  A    between atoms: C_7  and  N_8
REMARK    5  A    between atoms: C_9  and  C_10
REMARK    6  A    between atoms: C_13  and  C_14
REMARK    7  A    between atoms: C_17  and  C_18
REMARK    8  A    between atoms: C_21  and  C_22
REMARK    9  A    between atoms: C_29  and  N_30
REMARK                            x       y       z     vdW  Elec       q    Type
REMARK                         _______ _______ _______ _____ _____    ______ ____
ROOT
ATOM      1  N   UNL     1      -2.432  14.781  20.962  0.00  0.00    +0.000 N 
ATOM      2  C   UNL     1      -1.606  13.642  21.317  0.00  0.00    +0.000 A 
ATOM      3  C   UNL     1      -1.504  13.443  22.691  0.00  0.00    +0.000 A 
ATOM      4  C   UNL     1      -2.719  12.590  22.860  0.00  0.00    +0.000 A 
ATOM      5  O   UNL     1      -2.747  11.511  23.441  0.00  0.00    +0.000 OA
ATOM      6  C   UNL     1      -3.945  13.390  22.390  0.00  0.00    +0.000 A 
ATOM      7  C   UNL     1      -5.097  13.036  23.091  0.00  0.00    +0.000 A 
ATOM      8  C   UNL     1      -5.915  14.047  23.522  0.00  0.00    +0.000 A 
ATOM      9  C   UNL     1      -5.552  15.367  23.162  0.00  0.00    +0.000 A 
ATOM     10  C   UNL     1      -4.487  15.692  22.231  0.00  0.00    +0.000 A 
ATOM     11  C   UNL     1      -3.647  14.694  21.765  0.00  0.00    +0.000 A 
ENDROOT
BRANCH   2  12
ATOM     12  C   UNL     1      -1.826  12.511  20.285  0.00  0.00    +0.000 A 
ATOM     13  C   UNL     1      -0.803  11.557  20.074  0.00  0.00    +0.000 A 
ATOM     14  C   UNL     1      -0.847  10.623  19.037  0.00  0.00    +0.000 A 
ATOM     15  C   UNL     1      -1.928  10.598  18.165  0.00  0.00    +0.000 A 
ATOM     16  C   UNL     1      -1.948   9.631  17.019  0.00  0.00    +0.000 C 
ATOM     17  C   UNL     1      -2.978  11.502  18.377  0.00  0.00    +0.000 A 
ATOM     18  C   UNL     1      -2.934  12.441  19.427  0.00  0.00    +0.000 A 
ENDBRANCH   2  12
BRANCH   3  19
ATOM     19  C   UNL     1      -1.429  14.641  23.727  0.00  0.00    +0.000 A 
ATOM     20  C   UNL     1      -0.543  15.743  23.652  0.00  0.00    +0.000 A 
ATOM     21  C   UNL     1      -0.346  16.635  24.760  0.00  0.00    +0.000 A 
ATOM     22  C   UNL     1      -0.973  16.410  25.983  0.00  0.00    +0.000 A 
ATOM     23  C   UNL     1      -0.791  17.275  27.199  0.00  0.00    +0.000 C 
ATOM     24  C   UNL     1      -1.856  15.342  26.059  0.00  0.00    +0.000 A 
ATOM     25  C   UNL     1      -2.155  14.575  24.922  0.00  0.00    +0.000 A 
ENDBRANCH   3  19
BRANCH   8  26
ATOM     26  N   UNL     1      -6.792  13.748  24.575  0.00  0.00    +0.000 N 
ATOM     27  H   UNL     1      -6.493  12.958  25.156  0.00  0.00    +0.000 HD
ATOM     28  H   UNL     1      -7.781  13.695  24.355  0.00  0.00    +0.000 HD
ENDBRANCH   8  26
BRANCH   1  29
ATOM     29  C   UNL     1      -1.599  15.970  20.465  0.00  0.00    +0.000 C 
BRANCH  29  33
ATOM     30  C   UNL     1       2.598  15.244  19.387  0.00  0.00    +0.000 A 
ATOM     31  C   UNL     1       2.232  16.177  20.386  0.00  0.00    +0.000 A 
ATOM     32  C   UNL     1       0.895  16.540  20.645  0.00  0.00    +0.000 A 
ATOM     33  C   UNL     1      -0.148  16.001  19.905  0.00  0.00    +0.000 A 
ATOM     34  C   UNL     1       0.243  15.131  18.827  0.00  0.00    +0.000 A 
ATOM     35  C   UNL     1       1.594  14.758  18.574  0.00  0.00    +0.000 A 
BRANCH  30  37
ATOM     36  C   UNL     1       4.567  14.771  18.071  0.00  0.00    +0.000 C 
ATOM     37  O   UNL     1       3.933  14.964  19.338  0.00  0.00    +0.000 OA
ENDBRANCH  30  37
ENDBRANCH  29  33
ENDBRANCH   1  29
TORSDOF 6
ENDMDL
MODEL 7
REMARK VINA RESULT:      -7.0      3.368      7.508
REMARK  Name = 
REMARK  9 active torsions:
REMARK  status: ('A' for Active; 'I' for Inactive)
REMARK    1  A    between atoms: C_1  and  O_2
REMARK    2  A    between atoms: O_2  and  C_3
REMARK    3  A    between atoms: C_6  and  C_7
REMARK    4  A    between atoms: C_7  and  N_8
REMARK    5  A    between atoms: C_9  and  C_10
REMARK    6  A    between atoms: C_13  and  C_14
REMARK    7  A    between atoms: C_17  and  C_18
REMARK    8  A    between atoms: C_21  and  C_22
REMARK    9  A    between atoms: C_29  and  N_30
REMARK                            x       y       z     vdW  Elec       q    Type
REMARK                         _______ _______ _______ _____ _____    ______ ____
ROOT
ATOM      1  N   UNL     1      -2.306  15.034  21.005  0.00  0.00    +0.000 N 
ATOM      2  C   UNL     1      -1.018  14.376  21.115  0.00  0.00    +0.000 A 
ATOM      3  C   UNL     1      -0.578  14.243  22.430  0.00  0.00    +0.000 A 
ATOM      4  C   UNL     1      -1.248  12.942  22.733  0.00  0.00    +0.000 A 
ATOM      5  O   UNL     1      -0.694  11.961  23.218  0.00  0.00    +0.000 OA
ATOM      6  C   UNL     1      -2.764  13.120  22.549  0.00  0.00    +0.000 A 
ATOM      7  C   UNL     1      -3.491  12.295  23.406  0.00  0.00    +0.000 A 
ATOM      8  C   UNL     1      -4.567  12.842  24.055  0.00  0.00    +0.000 A 
ATOM      9  C   UNL     1      -4.887  14.187  23.749  0.00  0.00    +0.000 A 
ATOM     10  C   UNL     1      -4.267  14.947  22.680  0.00  0.00    +0.000 A 
ATOM     11  C   UNL     1      -3.185  14.421  21.995  0.00  0.00    +0.000 A 
ENDROOT
BRANCH   2  12
ATOM     12  C   UNL     1      -0.920  13.263  20.045  0.00  0.00    +0.000 A 
ATOM     13  C   UNL     1      -2.073  12.906  19.309  0.00  0.00    +0.000 A 
ATOM     14  C   UNL     1      -2.114  11.794  18.464  0.00  0.00    +0.000 A 
ATOM     15  C   UNL     1      -0.990  10.991  18.313  0.00  0.00    +0.000 A 
ATOM     16  C   UNL     1      -1.051   9.768  17.449  0.00  0.00    +0.000 C 
ATOM     17  C   UNL     1       0.182  11.347  18.996  0.00  0.00    +0.000 A 
ATOM     18  C   UNL     1       0.221  12.472  19.844  0.00  0.00    +0.000 A 
ENDBRANCH   2  12
BRANCH   3  19
ATOM     19  C   UNL     1      -0.832  15.352  23.534  0.00  0.00    +0.000 A 
ATOM     20  C   UNL     1      -0.454  16.713  23.439  0.00  0.00    +0.000 A 
ATOM     21  C   UNL     1      -0.470  17.586  24.579  0.00  0.00    +0.000 A 
ATOM     22  C   UNL     1      -0.796  17.107  25.846  0.00  0.00    +0.000 A 
ATOM     23  C   UNL     1      -0.801  17.947  27.093  0.00  0.00    +0.000 C 
ATOM     24  C   UNL     1      -1.184  15.779  25.944  0.00  0.00    +0.000 A 
ATOM     25  C   UNL     1      -1.314  14.981  24.796  0.00  0.00    +0.000 A 
ENDBRANCH   3  19
BRANCH   8  26
ATOM     26  N   UNL     1      -5.009  12.188  25.214  0.00  0.00    +0.000 N 
ATOM     27  H   UNL     1      -5.728  12.700  25.735  0.00  0.00    +0.000 HD
ATOM     28  H   UNL     1      -4.299  11.810  25.833  0.00  0.00    +0.000 HD
ENDBRANCH   8  26
BRANCH   1  29
ATOM     29  C   UNL     1      -2.181  16.468  20.473  0.00  0.00    +0.000 C 
BRANCH  29  33
ATOM     30  C   UNL     1       1.163  17.525  17.827  0.00  0.00    +0.000 A 
ATOM     31  C   UNL     1       1.365  17.155  19.178  0.00  0.00    +0.000 A 
ATOM     32  C   UNL     1       0.306  16.960  20.087  0.00  0.00    +0.000 A 
ATOM     33  C   UNL     1      -1.014  17.142  19.697  0.00  0.00    +0.000 A 
ATOM     34  C   UNL     1      -1.201  17.615  18.351  0.00  0.00    +0.000 A 
ATOM     35  C   UNL     1      -0.130  17.801  17.431  0.00  0.00    +0.000 A 
BRANCH  30  37
ATOM     36  C   UNL     1       3.338  16.623  17.291  0.00  0.00    +0.000 C 
ATOM     37  O   UNL     1       2.306  17.591  17.084  0.00  0.00    +0.000 OA
ENDBRANCH  30  37
ENDBRANCH  29  33
ENDBRANCH   1  29
TORSDOF 6
ENDMDL
MODEL 8
REMARK VINA RESULT:      -7.0      3.335      7.462
REMARK  Name = 
REMARK  9 active torsions:
REMARK  status: ('A' for Active; 'I' for Inactive)
REMARK    1  A    between atoms: C_1  and  O_2
REMARK    2  A    between atoms: O_2  and  C_3
REMARK    3  A    between atoms: C_6  and  C_7
REMARK    4  A    between atoms: C_7  and  N_8
REMARK    5  A    between atoms: C_9  and  C_10
REMARK    6  A    between atoms: C_13  and  C_14
REMARK    7  A    between atoms: C_17  and  C_18
REMARK    8  A    between atoms: C_21  and  C_22
REMARK    9  A    between atoms: C_29  and  N_30
REMARK                            x       y       z     vdW  Elec       q    Type
REMARK                         _______ _______ _______ _____ _____    ______ ____
ROOT
ATOM      1  N   UNL     1      -2.241  14.882  20.926  0.00  0.00    +0.000 N 
ATOM      2  C   UNL     1      -1.430  13.740  21.305  0.00  0.00    +0.000 A 
ATOM      3  C   UNL     1      -1.344  13.560  22.683  0.00  0.00    +0.000 A 
ATOM      4  C   UNL     1      -2.570  12.721  22.851  0.00  0.00    +0.000 A 
ATOM      5  O   UNL     1      -2.614  11.650  23.447  0.00  0.00    +0.000 OA
ATOM      6  C   UNL     1      -3.782  13.527  22.357  0.00  0.00    +0.000 A 
ATOM      7  C   UNL     1      -4.944  13.194  23.050  0.00  0.00    +0.000 A 
ATOM      8  C   UNL     1      -5.757  14.219  23.459  0.00  0.00    +0.000 A 
ATOM      9  C   UNL     1      -5.377  15.530  23.084  0.00  0.00    +0.000 A 
ATOM     10  C   UNL     1      -4.299  15.831  22.160  0.00  0.00    +0.000 A 
ATOM     11  C   UNL     1      -3.465  14.818  21.717  0.00  0.00    +0.000 A 
ENDROOT
BRANCH   2  12
ATOM     12  C   UNL     1      -1.650  12.597  20.287  0.00  0.00    +0.000 A 
ATOM     13  C   UNL     1      -0.654  11.605  20.132  0.00  0.00    +0.000 A 
ATOM     14  C   UNL     1      -0.692  10.652  19.112  0.00  0.00    +0.000 A 
ATOM     15  C   UNL     1      -1.740  10.646  18.200  0.00  0.00    +0.000 A 
ATOM     16  C   UNL     1      -1.751   9.658  17.073  0.00  0.00    +0.000 C 
ATOM     17  C   UNL     1      -2.765  11.589  18.355  0.00  0.00    +0.000 A 
ATOM     18  C   UNL     1      -2.727  12.548  19.389  0.00  0.00    +0.000 A 
ENDBRANCH   2  12
BRANCH   3  19
ATOM     19  C   UNL     1      -1.268  14.771  23.702  0.00  0.00    +0.000 A 
ATOM     20  C   UNL     1      -0.364  15.858  23.626  0.00  0.00    +0.000 A 
ATOM     21  C   UNL     1      -0.171  16.763  24.724  0.00  0.00    +0.000 A 
ATOM     22  C   UNL     1      -0.822  16.566  25.940  0.00  0.00    +0.000 A 
ATOM     23  C   UNL     1      -0.647  17.446  27.147  0.00  0.00    +0.000 C 
ATOM     24  C   UNL     1      -1.722  15.513  26.017  0.00  0.00    +0.000 A 
ATOM     25  C   UNL     1      -2.015  14.733  24.886  0.00  0.00    +0.000 A 
ENDBRANCH   3  19
BRANCH   8  26
ATOM     26  N   UNL     1      -6.648  13.943  24.507  0.00  0.00    +0.000 N 
ATOM     27  H   UNL     1      -7.634  14.078  24.264  0.00  0.00    +0.000 HD
ATOM     28  H   UNL     1      -6.431  14.338  25.416  0.00  0.00    +0.000 HD
ENDBRANCH   8  26
BRANCH   1  29
ATOM     29  C   UNL     1      -1.390  16.055  20.420  0.00  0.00    +0.000 C 
BRANCH  29  33
ATOM     30  C   UNL     1       2.658  16.892  18.932  0.00  0.00    +0.000 A 
ATOM     31  C   UNL     1       1.937  15.740  18.536  0.00  0.00    +0.000 A 
ATOM     32  C   UNL     1       0.704  15.370  19.110  0.00  0.00    +0.000 A 
ATOM     33  C   UNL     1       0.135  16.122  20.128  0.00  0.00    +0.000 A 
ATOM     34  C   UNL     1       0.925  17.233  20.592  0.00  0.00    +0.000 A 
ATOM     35  C   UNL     1       2.165  17.611  20.002  0.00  0.00    +0.000 A 
BRANCH  30  37
ATOM     36  C   UNL     1       5.057  16.713  18.725  0.00  0.00    +0.000 C 
ATOM     37  O   UNL     1       3.790  17.126  18.207  0.00  0.00    +0.000 OA
ENDBRANCH  30  37
ENDBRANCH  29  33
ENDBRANCH   1  29
TORSDOF 6
ENDMDL
MODEL 9
REMARK VINA RESULT:      -6.8      3.185      7.030
REMARK  Name = 
REMARK  9 active torsions:
REMARK  status: ('A' for Active; 'I' for Inactive)
REMARK    1  A    between atoms: C_1  and  O_2
REMARK    2  A    between atoms: O_2  and  C_3
REMARK    3  A    between atoms: C_6  and  C_7
REMARK    4  A    between atoms: C_7  and  N_8
REMARK    5  A    between atoms: C_9  and  C_10
REMARK    6  A    between atoms: C_13  and  C_14
REMARK    7  A    between atoms: C_17  and  C_18
REMARK    8  A    between atoms: C_21  and  C_22
REMARK    9  A    between atoms: C_29  and  N_30
REMARK                            x       y       z     vdW  Elec       q    Type
REMARK                         _______ _______ _______ _____ _____    ______ ____
ROOT
ATOM      1  N   UNL     1      -1.724  14.440  21.516  0.00  0.00    +0.000 N 
ATOM      2  C   UNL     1      -1.531  13.571  22.662  0.00  0.00    +0.000 A 
ATOM      3  C   UNL     1      -2.489  13.751  23.657  0.00  0.00    +0.000 A 
ATOM      4  C   UNL     1      -3.509  12.795  23.127  0.00  0.00    +0.000 A 
ATOM      5  O   UNL     1      -4.052  11.911  23.781  0.00  0.00    +0.000 OA
ATOM      6  C   UNL     1      -3.916  13.250  21.717  0.00  0.00    +0.000 A 
ATOM      7  C   UNL     1      -5.238  12.916  21.425  0.00  0.00    +0.000 A 
ATOM      8  C   UNL     1      -6.014  13.867  20.814  0.00  0.00    +0.000 A 
ATOM      9  C   UNL     1      -5.385  15.088  20.474  0.00  0.00    +0.000 A 
ATOM     10  C   UNL     1      -3.956  15.322  20.567  0.00  0.00    +0.000 A 
ATOM     11  C   UNL     1      -3.140  14.378  21.167  0.00  0.00    +0.000 A 
ENDROOT
BRANCH   2  12
ATOM     12  C   UNL     1      -1.025  12.192  22.178  0.00  0.00    +0.000 A 
ATOM     13  C   UNL     1      -0.875  11.141  23.113  0.00  0.00    +0.000 A 
ATOM     14  C   UNL     1      -0.252   9.933  22.795  0.00  0.00    +0.000 A 
ATOM     15  C   UNL     1       0.245   9.719  21.515  0.00  0.00    +0.000 A 
ATOM     16  C   UNL     1       0.962   8.443  21.190  0.00  0.00    +0.000 C 
ATOM     17  C   UNL     1       0.071  10.725  20.555  0.00  0.00    +0.000 A 
ATOM     18  C   UNL     1      -0.563  11.943  20.877  0.00  0.00    +0.000 A 
ENDBRANCH   2  12
BRANCH   3  19
ATOM     19  C   UNL     1      -3.091  15.172  24.019  0.00  0.00    +0.000 A 
ATOM     20  C   UNL     1      -2.356  16.279  24.508  0.00  0.00    +0.000 A 
ATOM     21  C   UNL     1      -3.003  17.432  25.069  0.00  0.00    +0.000 A 
ATOM     22  C   UNL     1      -4.387  17.477  25.216  0.00  0.00    +0.000 A 
ATOM     23  C   UNL     1      -5.137  18.630  25.825  0.00  0.00    +0.000 C 
ATOM     24  C   UNL     1      -5.116  16.404  24.724  0.00  0.00    +0.000 A 
ATOM     25  C   UNL     1      -4.479  15.357  24.039  0.00  0.00    +0.000 A 
ENDBRANCH   3  19
BRANCH   8  26
ATOM     26  N   UNL     1      -7.404  13.719  20.927  0.00  0.00    +0.000 N 
ATOM     27  H   UNL     1      -7.696  13.045  21.642  0.00  0.00    +0.000 HD
ATOM     28  H   UNL     1      -7.930  13.600  20.068  0.00  0.00    +0.000 HD
ENDBRANCH   8  26
BRANCH   1  29
ATOM     29  C   UNL     1      -0.691  15.573  21.467  0.00  0.00    +0.000 C 
BRANCH  29  33
ATOM     30  C   UNL     1       2.626  15.384  18.592  0.00  0.00    +0.000 A 
ATOM     31  C   UNL     1       2.491  14.446  19.643  0.00  0.00    +0.000 A 
ATOM     32  C   UNL     1       1.529  14.570  20.665  0.00  0.00    +0.000 A 
ATOM     33  C   UNL     1       0.660  15.652  20.701  0.00  0.00    +0.000 A 
ATOM     34  C   UNL     1       0.873  16.650  19.686  0.00  0.00    +0.000 A 
ATOM     35  C   UNL     1       1.839  16.517  18.648  0.00  0.00    +0.000 A 
BRANCH  30  37
ATOM     36  C   UNL     1       4.882  14.695  18.074  0.00  0.00    +0.000 C 
ATOM     37  O   UNL     1       3.562  15.052  17.656  0.00  0.00    +0.000 OA
ENDBRANCH  30  37
ENDBRANCH  29  33
ENDBRANCH   1  29
TORSDOF 6
ENDMDL
