MODEL 1
REMARK VINA RESULT:      -8.7      0.000      0.000
REMARK  Name = 
REMARK  11 active torsions:
REMARK  status: ('A' for Active; 'I' for Inactive)
REMARK    1  A    between atoms: C_1  and  C_2
REMARK    2  A    between atoms: C_2  and  C_3
REMARK    3  A    between atoms: C_3  and  C_4
REMARK    4  A    between atoms: C_3  and  C_5
REMARK    5  A    between atoms: C_5  and  N_6
REMARK    6  A    between atoms: C_5  and  C_15
REMARK    7  A    between atoms: N_6  and  C_7
REMARK    8  A    between atoms: C_7  and  C_8
REMARK    9  A    between atoms: C_11  and  C_12
REMARK   10  A    between atoms: C_17  and  C_18
REMARK   11  A    between atoms: C_24  and  N_25
REMARK                            x       y       z     vdW  Elec       q    Type
REMARK                         _______ _______ _______ _____ _____    ______ ____
ROOT
ATOM      1  C   UNL     1       5.290   6.003  17.301  0.00  0.00    +0.000 A 
ATOM      2  N   UNL     1       4.711   4.896  17.726  0.00  0.00    +0.000 NA
ATOM      3  C   UNL     1       3.545   5.334  18.338  0.00  0.00    +0.000 A 
ATOM      4  C   UNL     1       3.423   6.711  18.196  0.00  0.00    +0.000 A 
ATOM      5  O   UNL     1       4.561   7.148  17.554  0.00  0.00    +0.000 OA
ENDROOT
BRANCH   3   6
ATOM      6  C   UNL     1       2.637   4.431  19.038  0.00  0.00    +0.000 A 
ATOM      7  C   UNL     1       1.717   3.616  18.361  0.00  0.00    +0.000 A 
ATOM      8  C   UNL     1       0.842   2.776  19.061  0.00  0.00    +0.000 A 
ATOM      9  C   UNL     1       0.867   2.753  20.451  0.00  0.00    +0.000 A 
ATOM     10  C   UNL     1       1.767   3.559  21.141  0.00  0.00    +0.000 A 
ATOM     11  C   UNL     1       2.641   4.397  20.438  0.00  0.00    +0.000 A 
ENDBRANCH   3   6
BRANCH   4  12
ATOM     12  N   UNL     1       2.460   7.626  18.540  0.00  0.00    +0.000 N 
ATOM     13  C   UNL     1       2.249   7.909  19.963  0.00  0.00    +0.000 C 
ATOM     14  C   UNL     1       0.856   8.519  20.161  0.00  0.00    +0.000 C 
ATOM     15  C   UNL     1       0.661   9.773  19.312  0.00  0.00    +0.000 C 
ATOM     16  C   UNL     1       0.983   9.485  17.847  0.00  0.00    +0.000 C 
ATOM     17  C   UNL     1       2.352   8.817  17.676  0.00  0.00    +0.000 C 
ENDBRANCH   4  12
BRANCH   1  18
ATOM     18  C   UNL     1       6.608   6.159  16.530  0.00  0.00    +0.000 C 
BRANCH  18  19
ATOM     19  C   UNL     1       7.709   6.856  17.420  0.00  0.00    +0.000 C 
ATOM     20  C   UNL     1       7.720   6.319  18.873  0.00  0.00    +0.000 C 
BRANCH  19  22
ATOM     21  C   UNL     1       8.603   9.144  18.437  0.00  0.00    +0.000 C 
ATOM     22  C   UNL     1       7.598   8.403  17.570  0.00  0.00    +0.000 C 
ENDBRANCH  19  22
ENDBRANCH  18  19
BRANCH  18  23
ATOM     23  N   UNL     1       7.116   4.837  16.021  0.00  0.00    +0.000 NA
ATOM     24  H   UNL     1       6.364   4.156  16.142  0.00  0.00    +0.000 HD
BRANCH  23  25
ATOM     25  C   UNL     1       7.443   4.904  14.590  0.00  0.00    +0.000 C 
BRANCH  25  26
ATOM     26  C   UNL     1       6.548   4.130  13.631  0.00  0.00    +0.000 A 
ATOM     27  C   UNL     1       5.183   3.996  13.950  0.00  0.00    +0.000 A 
ATOM     28  C   UNL     1       4.243   3.591  12.995  0.00  0.00    +0.000 A 
ATOM     29  C   UNL     1       4.641   3.290  11.691  0.00  0.00    +0.000 A 
ATOM     30  C   UNL     1       3.616   3.024  10.626  0.00  0.00    +0.000 C 
ATOM     31  C   UNL     1       6.010   3.339  11.385  0.00  0.00    +0.000 A 
ATOM     32  C   UNL     1       6.954   3.750  12.346  0.00  0.00    +0.000 A 
ENDBRANCH  25  26
ENDBRANCH  23  25
ENDBRANCH  18  23
ENDBRANCH   1  18
TORSDOF 8
ENDMDL
MODEL 2
REMARK VINA RESULT:      -8.6      0.799      3.584
REMARK  Name = 
REMARK  11 active torsions:
REMARK  status: ('A' for Active; 'I' for Inactive)
REMARK    1  A    between atoms: C_1  and  C_2
REMARK    2  A    between atoms: C_2  and  C_3
REMARK    3  A    between atoms: C_3  and  C_4
REMARK    4  A    between atoms: C_3  and  C_5
REMARK    5  A    between atoms: C_5  and  N_6
REMARK    6  A    between atoms: C_5  and  C_15
REMARK    7  A    between atoms: N_6  and  C_7
REMARK    8  A    between atoms: C_7  and  C_8
REMARK    9  A    between atoms: C_11  and  C_12
REMARK   10  A    between atoms: C_17  and  C_18
REMARK   11  A    between atoms: C_24  and  N_25
REMARK                            x       y       z     vdW  Elec       q    Type
REMARK                         _______ _______ _______ _____ _____    ______ ____
ROOT
ATOM      1  C   UNL     1       5.139   6.492  17.231  0.00  0.00    +0.000 A 
ATOM      2  N   UNL     1       4.503   7.595  17.577  0.00  0.00    +0.000 NA
ATOM      3  C   UNL     1       3.342   7.142  18.189  0.00  0.00    +0.000 A 
ATOM      4  C   UNL     1       3.352   5.753  18.257  0.00  0.00    +0.000 A 
ATOM      5  O   UNL     1       4.496   5.331  17.613  0.00  0.00    +0.000 OA
ENDROOT
BRANCH   3   6
ATOM      6  C   UNL     1       2.290   8.043  18.646  0.00  0.00    +0.000 A 
ATOM      7  C   UNL     1       1.841   8.063  19.975  0.00  0.00    +0.000 A 
ATOM      8  C   UNL     1       0.813   8.924  20.380  0.00  0.00    +0.000 A 
ATOM      9  C   UNL     1       0.210   9.767  19.453  0.00  0.00    +0.000 A 
ATOM     10  C   UNL     1       0.636   9.757  18.129  0.00  0.00    +0.000 A 
ATOM     11  C   UNL     1       1.665   8.896  17.727  0.00  0.00    +0.000 A 
ENDBRANCH   3   6
BRANCH   4  12
ATOM     12  N   UNL     1       2.513   4.817  18.804  0.00  0.00    +0.000 N 
ATOM     13  C   UNL     1       2.239   3.598  18.037  0.00  0.00    +0.000 C 
ATOM     14  C   UNL     1       0.941   2.957  18.543  0.00  0.00    +0.000 C 
ATOM     15  C   UNL     1       0.998   2.667  20.041  0.00  0.00    +0.000 C 
ATOM     16  C   UNL     1       1.384   3.925  20.817  0.00  0.00    +0.000 C 
ATOM     17  C   UNL     1       2.648   4.587  20.255  0.00  0.00    +0.000 C 
ENDBRANCH   4  12
BRANCH   1  18
ATOM     18  C   UNL     1       6.497   6.351  16.530  0.00  0.00    +0.000 C 
BRANCH  18  19
ATOM     19  C   UNL     1       7.658   6.953  17.413  0.00  0.00    +0.000 C 
ATOM     20  C   UNL     1       7.723   6.310  18.821  0.00  0.00    +0.000 C 
BRANCH  19  22
ATOM     21  C   UNL     1       8.713   9.152  18.470  0.00  0.00    +0.000 C 
ATOM     22  C   UNL     1       7.598   8.486  17.680  0.00  0.00    +0.000 C 
ENDBRANCH  19  22
ENDBRANCH  18  19
BRANCH  18  23
ATOM     23  N   UNL     1       6.800   4.918  16.185  0.00  0.00    +0.000 NA
ATOM     24  H   UNL     1       5.918   4.403  16.228  0.00  0.00    +0.000 HD
BRANCH  23  25
ATOM     25  C   UNL     1       7.333   4.796  14.822  0.00  0.00    +0.000 C 
BRANCH  25  26
ATOM     26  C   UNL     1       6.468   4.078  13.794  0.00  0.00    +0.000 A 
ATOM     27  C   UNL     1       5.083   3.991  14.028  0.00  0.00    +0.000 A 
ATOM     28  C   UNL     1       4.187   3.645  13.010  0.00  0.00    +0.000 A 
ATOM     29  C   UNL     1       4.651   3.354  11.726  0.00  0.00    +0.000 A 
ATOM     30  C   UNL     1       3.682   3.151  10.595  0.00  0.00    +0.000 C 
ATOM     31  C   UNL     1       6.036   3.354  11.503  0.00  0.00    +0.000 A 
ATOM     32  C   UNL     1       6.936   3.708  12.527  0.00  0.00    +0.000 A 
ENDBRANCH  25  26
ENDBRANCH  23  25
ENDBRANCH  18  23
ENDBRANCH   1  18
TORSDOF 8
ENDMDL
MODEL 3
REMARK VINA RESULT:      -8.4      1.271      3.868
REMARK  Name = 
REMARK  11 active torsions:
REMARK  status: ('A' for Active; 'I' for Inactive)
REMARK    1  A    between atoms: C_1  and  C_2
REMARK    2  A    between atoms: C_2  and  C_3
REMARK    3  A    between atoms: C_3  and  C_4
REMARK    4  A    between atoms: C_3  and  C_5
REMARK    5  A    between atoms: C_5  and  N_6
REMARK    6  A    between atoms: C_5  and  C_15
REMARK    7  A    between atoms: N_6  and  C_7
REMARK    8  A    between atoms: C_7  and  C_8
REMARK    9  A    between atoms: C_11  and  C_12
REMARK   10  A    between atoms: C_17  and  C_18
REMARK   11  A    between atoms: C_24  and  N_25
REMARK                            x       y       z     vdW  Elec       q    Type
REMARK                         _______ _______ _______ _____ _____    ______ ____
ROOT
ATOM      1  C   UNL     1       4.701   6.324  16.885  0.00  0.00    +0.000 A 
ATOM      2  N   UNL     1       4.148   7.450  17.291  0.00  0.00    +0.000 NA
ATOM      3  C   UNL     1       3.132   7.043  18.145  0.00  0.00    +0.000 A 
ATOM      4  C   UNL     1       3.154   5.660  18.283  0.00  0.00    +0.000 A 
ATOM      5  O   UNL     1       4.146   5.192  17.449  0.00  0.00    +0.000 OA
ENDROOT
BRANCH   3   6
ATOM      6  C   UNL     1       2.193   7.980  18.753  0.00  0.00    +0.000 A 
ATOM      7  C   UNL     1       1.841   7.917  20.110  0.00  0.00    +0.000 A 
ATOM      8  C   UNL     1       0.919   8.816  20.661  0.00  0.00    +0.000 A 
ATOM      9  C   UNL     1       0.325   9.781  19.855  0.00  0.00    +0.000 A 
ATOM     10  C   UNL     1       0.656   9.855  18.505  0.00  0.00    +0.000 A 
ATOM     11  C   UNL     1       1.579   8.955  17.958  0.00  0.00    +0.000 A 
ENDBRANCH   3   6
BRANCH   4  12
ATOM     12  N   UNL     1       2.439   4.764  19.036  0.00  0.00    +0.000 N 
ATOM     13  C   UNL     1       1.883   3.584  18.368  0.00  0.00    +0.000 C 
ATOM     14  C   UNL     1       0.737   3.012  19.211  0.00  0.00    +0.000 C 
ATOM     15  C   UNL     1       1.190   2.680  20.631  0.00  0.00    +0.000 C 
ATOM     16  C   UNL     1       1.859   3.892  21.278  0.00  0.00    +0.000 C 
ATOM     17  C   UNL     1       2.958   4.489  20.390  0.00  0.00    +0.000 C 
ENDBRANCH   4  12
BRANCH   1  18
ATOM     18  C   UNL     1       5.892   6.129  15.935  0.00  0.00    +0.000 C 
BRANCH  18  19
ATOM     19  C   UNL     1       7.242   5.986  16.740  0.00  0.00    +0.000 C 
ATOM     20  C   UNL     1       7.433   4.565  17.325  0.00  0.00    +0.000 C 
BRANCH  19  22
ATOM     21  C   UNL     1       7.955   8.350  17.725  0.00  0.00    +0.000 C 
ATOM     22  C   UNL     1       7.426   6.943  17.955  0.00  0.00    +0.000 C 
ENDBRANCH  19  22
ENDBRANCH  18  19
BRANCH  18  23
ATOM     23  N   UNL     1       5.698   4.940  15.034  0.00  0.00    +0.000 NA
ATOM     24  H   UNL     1       4.700   4.877  14.825  0.00  0.00    +0.000 HD
BRANCH  23  25
ATOM     25  C   UNL     1       6.420   5.107  13.765  0.00  0.00    +0.000 C 
BRANCH  25  26
ATOM     26  C   UNL     1       6.257   4.011  12.720  0.00  0.00    +0.000 A 
ATOM     27  C   UNL     1       7.410   3.351  12.255  0.00  0.00    +0.000 A 
ATOM     28  C   UNL     1       7.332   2.142  11.555  0.00  0.00    +0.000 A 
ATOM     29  C   UNL     1       6.092   1.561  11.280  0.00  0.00    +0.000 A 
ATOM     30  C   UNL     1       6.014   0.184  10.683  0.00  0.00    +0.000 C 
ATOM     31  C   UNL     1       4.934   2.252  11.664  0.00  0.00    +0.000 A 
ATOM     32  C   UNL     1       5.014   3.466  12.373  0.00  0.00    +0.000 A 
ENDBRANCH  25  26
ENDBRANCH  23  25
ENDBRANCH  18  23
ENDBRANCH   1  18
TORSDOF 8
ENDMDL
MODEL 4
REMARK VINA RESULT:      -8.2      0.770      1.316
REMARK  Name = 
REMARK  11 active torsions:
REMARK  status: ('A' for Active; 'I' for Inactive)
REMARK    1  A    between atoms: C_1  and  C_2
REMARK    2  A    between atoms: C_2  and  C_3
REMARK    3  A    between atoms: C_3  and  C_4
REMARK    4  A    between atoms: C_3  and  C_5
REMARK    5  A    between atoms: C_5  and  N_6
REMARK    6  A    between atoms: C_5  and  C_15
REMARK    7  A    between atoms: N_6  and  C_7
REMARK    8  A    between atoms: C_7  and  C_8
REMARK    9  A    between atoms: C_11  and  C_12
REMARK   10  A    between atoms: C_17  and  C_18
REMARK   11  A    between atoms: C_24  and  N_25
REMARK                            x       y       z     vdW  Elec       q    Type
REMARK                         _______ _______ _______ _____ _____    ______ ____
ROOT
ATOM      1  C   UNL     1       4.926   6.475  17.343  0.00  0.00    +0.000 A 
ATOM      2  N   UNL     1       4.467   5.340  17.834  0.00  0.00    +0.000 NA
ATOM      3  C   UNL     1       3.328   5.709  18.538  0.00  0.00    +0.000 A 
ATOM      4  C   UNL     1       3.096   7.070  18.384  0.00  0.00    +0.000 A 
ATOM      5  O   UNL     1       4.141   7.572  17.638  0.00  0.00    +0.000 OA
ENDROOT
BRANCH   3   6
ATOM      6  C   UNL     1       2.551   4.761  19.329  0.00  0.00    +0.000 A 
ATOM      7  C   UNL     1       1.511   3.997  18.778  0.00  0.00    +0.000 A 
ATOM      8  C   UNL     1       0.767   3.111  19.568  0.00  0.00    +0.000 A 
ATOM      9  C   UNL     1       1.045   2.990  20.925  0.00  0.00    +0.000 A 
ATOM     10  C   UNL     1       2.069   3.744  21.491  0.00  0.00    +0.000 A 
ATOM     11  C   UNL     1       2.812   4.628  20.699  0.00  0.00    +0.000 A 
ENDBRANCH   3   6
BRANCH   4  12
ATOM     12  N   UNL     1       2.103   7.922  18.795  0.00  0.00    +0.000 N 
ATOM     13  C   UNL     1       1.938   8.153  20.233  0.00  0.00    +0.000 C 
ATOM     14  C   UNL     1       0.525   8.682  20.507  0.00  0.00    +0.000 C 
ATOM     15  C   UNL     1       0.230   9.949  19.707  0.00  0.00    +0.000 C 
ATOM     16  C   UNL     1       0.504   9.721  18.221  0.00  0.00    +0.000 C 
ATOM     17  C   UNL     1       1.898   9.131  17.974  0.00  0.00    +0.000 C 
ENDBRANCH   4  12
BRANCH   1  18
ATOM     18  C   UNL     1       6.159   6.705  16.457  0.00  0.00    +0.000 C 
BRANCH  18  19
ATOM     19  C   UNL     1       7.404   7.148  17.320  0.00  0.00    +0.000 C 
ATOM     20  C   UNL     1       7.578   6.282  18.593  0.00  0.00    +0.000 C 
BRANCH  19  22
ATOM     21  C   UNL     1       8.687   9.234  18.354  0.00  0.00    +0.000 C 
ATOM     22  C   UNL     1       7.397   8.617  17.838  0.00  0.00    +0.000 C 
ENDBRANCH  19  22
ENDBRANCH  18  19
BRANCH  18  23
ATOM     23  N   UNL     1       6.500   5.484  15.647  0.00  0.00    +0.000 NA
ATOM     24  H   UNL     1       6.680   4.724  16.305  0.00  0.00    +0.000 HD
BRANCH  23  25
ATOM     25  C   UNL     1       5.379   5.084  14.784  0.00  0.00    +0.000 C 
BRANCH  25  26
ATOM     26  C   UNL     1       5.720   4.356  13.491  0.00  0.00    +0.000 A 
ATOM     27  C   UNL     1       7.057   4.357  13.052  0.00  0.00    +0.000 A 
ATOM     28  C   UNL     1       7.510   3.465  12.074  0.00  0.00    +0.000 A 
ATOM     29  C   UNL     1       6.632   2.551  11.487  0.00  0.00    +0.000 A 
ATOM     30  C   UNL     1       7.152   1.483  10.567  0.00  0.00    +0.000 C 
ATOM     31  C   UNL     1       5.280   2.597  11.855  0.00  0.00    +0.000 A 
ATOM     32  C   UNL     1       4.826   3.492  12.843  0.00  0.00    +0.000 A 
ENDBRANCH  25  26
ENDBRANCH  23  25
ENDBRANCH  18  23
ENDBRANCH   1  18
TORSDOF 8
ENDMDL
MODEL 5
REMARK VINA RESULT:      -8.0      1.083      3.747
REMARK  Name = 
REMARK  11 active torsions:
REMARK  status: ('A' for Active; 'I' for Inactive)
REMARK    1  A    between atoms: C_1  and  C_2
REMARK    2  A    between atoms: C_2  and  C_3
REMARK    3  A    between atoms: C_3  and  C_4
REMARK    4  A    between atoms: C_3  and  C_5
REMARK    5  A    between atoms: C_5  and  N_6
REMARK    6  A    between atoms: C_5  and  C_15
REMARK    7  A    between atoms: N_6  and  C_7
REMARK    8  A    between atoms: C_7  and  C_8
REMARK    9  A    between atoms: C_11  and  C_12
REMARK   10  A    between atoms: C_17  and  C_18
REMARK   11  A    between atoms: C_24  and  N_25
REMARK                            x       y       z     vdW  Elec       q    Type
REMARK                         _______ _______ _______ _____ _____    ______ ____
ROOT
ATOM      1  C   UNL     1       5.018   6.407  17.343  0.00  0.00    +0.000 A 
ATOM      2  N   UNL     1       4.365   7.526  17.592  0.00  0.00    +0.000 NA
ATOM      3  C   UNL     1       3.266   7.121  18.337  0.00  0.00    +0.000 A 
ATOM      4  C   UNL     1       3.333   5.754  18.577  0.00  0.00    +0.000 A 
ATOM      5  O   UNL     1       4.446   5.286  17.912  0.00  0.00    +0.000 OA
ENDROOT
BRANCH   3   6
ATOM      6  C   UNL     1       2.213   8.043  18.751  0.00  0.00    +0.000 A 
ATOM      7  C   UNL     1       1.614   8.947  17.862  0.00  0.00    +0.000 A 
ATOM      8  C   UNL     1       0.621   9.836  18.293  0.00  0.00    +0.000 A 
ATOM      9  C   UNL     1       0.227   9.841  19.627  0.00  0.00    +0.000 A 
ATOM     10  C   UNL     1       0.814   8.956  20.526  0.00  0.00    +0.000 A 
ATOM     11  C   UNL     1       1.806   8.068  20.091  0.00  0.00    +0.000 A 
ENDBRANCH   3   6
BRANCH   4  12
ATOM     12  N   UNL     1       2.567   4.871  19.295  0.00  0.00    +0.000 N 
ATOM     13  C   UNL     1       1.825   3.840  18.563  0.00  0.00    +0.000 C 
ATOM     14  C   UNL     1       0.679   3.318  19.437  0.00  0.00    +0.000 C 
ATOM     15  C   UNL     1       1.184   2.788  20.777  0.00  0.00    +0.000 C 
ATOM     16  C   UNL     1       2.040   3.840  21.481  0.00  0.00    +0.000 C 
ATOM     17  C   UNL     1       3.140   4.397  20.569  0.00  0.00    +0.000 C 
ENDBRANCH   4  12
BRANCH   1  18
ATOM     18  C   UNL     1       6.331   6.216  16.570  0.00  0.00    +0.000 C 
BRANCH  18  19
ATOM     19  C   UNL     1       7.573   6.248  17.543  0.00  0.00    +0.000 C 
ATOM     20  C   UNL     1       7.508   5.135  18.619  0.00  0.00    +0.000 C 
BRANCH  19  22
ATOM     21  C   UNL     1       7.991   8.872  17.600  0.00  0.00    +0.000 C 
ATOM     22  C   UNL     1       7.786   7.565  18.348  0.00  0.00    +0.000 C 
ENDBRANCH  19  22
ENDBRANCH  18  19
BRANCH  18  23
ATOM     23  N   UNL     1       6.329   4.938  15.775  0.00  0.00    +0.000 NA
ATOM     24  H   UNL     1       6.081   4.183  16.416  0.00  0.00    +0.000 HD
BRANCH  23  25
ATOM     25  C   UNL     1       5.324   4.975  14.704  0.00  0.00    +0.000 C 
BRANCH  25  26
ATOM     26  C   UNL     1       5.658   4.247  13.408  0.00  0.00    +0.000 A 
ATOM     27  C   UNL     1       7.007   4.159  13.017  0.00  0.00    +0.000 A 
ATOM     28  C   UNL     1       7.429   3.253  12.037  0.00  0.00    +0.000 A 
ATOM     29  C   UNL     1       6.510   2.415  11.402  0.00  0.00    +0.000 A 
ATOM     30  C   UNL     1       6.984   1.328  10.479  0.00  0.00    +0.000 C 
ATOM     31  C   UNL     1       5.152   2.553  11.724  0.00  0.00    +0.000 A 
ATOM     32  C   UNL     1       4.729   3.462  12.713  0.00  0.00    +0.000 A 
ENDBRANCH  25  26
ENDBRANCH  23  25
ENDBRANCH  18  23
ENDBRANCH   1  18
TORSDOF 8
ENDMDL
MODEL 6
REMARK VINA RESULT:      -8.0      1.589      6.295
REMARK  Name = 
REMARK  11 active torsions:
REMARK  status: ('A' for Active; 'I' for Inactive)
REMARK    1  A    between atoms: C_1  and  C_2
REMARK    2  A    between atoms: C_2  and  C_3
REMARK    3  A    between atoms: C_3  and  C_4
REMARK    4  A    between atoms: C_3  and  C_5
REMARK    5  A    between atoms: C_5  and  N_6
REMARK    6  A    between atoms: C_5  and  C_15
REMARK    7  A    between atoms: N_6  and  C_7
REMARK    8  A    between atoms: C_7  and  C_8
REMARK    9  A    between atoms: C_11  and  C_12
REMARK   10  A    between atoms: C_17  and  C_18
REMARK   11  A    between atoms: C_24  and  N_25
REMARK                            x       y       z     vdW  Elec       q    Type
REMARK                         _______ _______ _______ _____ _____    ______ ____
ROOT
ATOM      1  C   UNL     1       5.296   5.928  17.280  0.00  0.00    +0.000 A 
ATOM      2  N   UNL     1       4.659   7.069  17.458  0.00  0.00    +0.000 NA
ATOM      3  C   UNL     1       3.576   6.734  18.260  0.00  0.00    +0.000 A 
ATOM      4  C   UNL     1       3.638   5.389  18.603  0.00  0.00    +0.000 A 
ATOM      5  O   UNL     1       4.730   4.860  17.948  0.00  0.00    +0.000 OA
ENDROOT
BRANCH   3   6
ATOM      6  C   UNL     1       2.542   7.696  18.627  0.00  0.00    +0.000 A 
ATOM      7  C   UNL     1       2.012   8.616  17.711  0.00  0.00    +0.000 A 
ATOM      8  C   UNL     1       1.036   9.543  18.098  0.00  0.00    +0.000 A 
ATOM      9  C   UNL     1       0.589   9.570  19.415  0.00  0.00    +0.000 A 
ATOM     10  C   UNL     1       1.108   8.670  20.340  0.00  0.00    +0.000 A 
ATOM     11  C   UNL     1       2.083   7.744  19.950  0.00  0.00    +0.000 A 
ENDBRANCH   3   6
BRANCH   4  12
ATOM     12  N   UNL     1       2.885   4.572  19.407  0.00  0.00    +0.000 N 
ATOM     13  C   UNL     1       1.504   4.287  19.006  0.00  0.00    +0.000 C 
ATOM     14  C   UNL     1       0.703   3.820  20.228  0.00  0.00    +0.000 C 
ATOM     15  C   UNL     1       1.346   2.608  20.897  0.00  0.00    +0.000 C 
ATOM     16  C   UNL     1       2.814   2.887  21.216  0.00  0.00    +0.000 C 
ATOM     17  C   UNL     1       3.581   3.414  19.998  0.00  0.00    +0.000 C 
ENDBRANCH   4  12
BRANCH   1  18
ATOM     18  C   UNL     1       6.587   5.664  16.491  0.00  0.00    +0.000 C 
BRANCH  18  19
ATOM     19  C   UNL     1       6.269   5.280  14.994  0.00  0.00    +0.000 C 
ATOM     20  C   UNL     1       5.479   3.952  14.880  0.00  0.00    +0.000 C 
BRANCH  19  22
ATOM     21  C   UNL     1       7.275   4.748  12.591  0.00  0.00    +0.000 C 
ATOM     22  C   UNL     1       7.498   5.091  14.055  0.00  0.00    +0.000 C 
ENDBRANCH  19  22
ENDBRANCH  18  19
BRANCH  18  23
ATOM     23  N   UNL     1       7.518   6.846  16.535  0.00  0.00    +0.000 NA
ATOM     24  H   UNL     1       7.024   7.637  16.118  0.00  0.00    +0.000 HD
BRANCH  23  25
ATOM     25  C   UNL     1       7.866   7.202  17.917  0.00  0.00    +0.000 C 
BRANCH  25  26
ATOM     26  C   UNL     1       8.111   8.675  18.218  0.00  0.00    +0.000 A 
ATOM     27  C   UNL     1       9.027   9.009  19.233  0.00  0.00    +0.000 A 
ATOM     28  C   UNL     1       9.546  10.302  19.357  0.00  0.00    +0.000 A 
ATOM     29  C   UNL     1       9.151  11.312  18.477  0.00  0.00    +0.000 A 
ATOM     30  C   UNL     1       9.834  12.651  18.500  0.00  0.00    +0.000 C 
ATOM     31  C   UNL     1       8.176  11.012  17.514  0.00  0.00    +0.000 A 
ATOM     32  C   UNL     1       7.657   9.709  17.388  0.00  0.00    +0.000 A 
ENDBRANCH  25  26
ENDBRANCH  23  25
ENDBRANCH  18  23
ENDBRANCH   1  18
TORSDOF 8
ENDMDL
MODEL 7
REMARK VINA RESULT:      -8.0      1.624      5.764
REMARK  Name = 
REMARK  11 active torsions:
REMARK  status: ('A' for Active; 'I' for Inactive)
REMARK    1  A    between atoms: C_1  and  C_2
REMARK    2  A    between atoms: C_2  and  C_3
REMARK    3  A    between atoms: C_3  and  C_4
REMARK    4  A    between atoms: C_3  and  C_5
REMARK    5  A    between atoms: C_5  and  N_6
REMARK    6  A    between atoms: C_5  and  C_15
REMARK    7  A    between atoms: N_6  and  C_7
REMARK    8  A    between atoms: C_7  and  C_8
REMARK    9  A    between atoms: C_11  and  C_12
REMARK   10  A    between atoms: C_17  and  C_18
REMARK   11  A    between atoms: C_24  and  N_25
REMARK                            x       y       z     vdW  Elec       q    Type
REMARK                         _______ _______ _______ _____ _____    ______ ____
ROOT
ATOM      1  C   UNL     1       5.237   6.387  17.884  0.00  0.00    +0.000 A 
ATOM      2  N   UNL     1       4.706   5.258  18.311  0.00  0.00    +0.000 NA
ATOM      3  C   UNL     1       3.470   5.634  18.821  0.00  0.00    +0.000 A 
ATOM      4  C   UNL     1       3.265   6.993  18.615  0.00  0.00    +0.000 A 
ATOM      5  O   UNL     1       4.415   7.487  18.037  0.00  0.00    +0.000 OA
ENDROOT
BRANCH   3   6
ATOM      6  C   UNL     1       2.577   4.694  19.491  0.00  0.00    +0.000 A 
ATOM      7  C   UNL     1       2.679   4.407  20.860  0.00  0.00    +0.000 A 
ATOM      8  C   UNL     1       1.822   3.483  21.472  0.00  0.00    +0.000 A 
ATOM      9  C   UNL     1       0.860   2.822  20.715  0.00  0.00    +0.000 A 
ATOM     10  C   UNL     1       0.748   3.089  19.353  0.00  0.00    +0.000 A 
ATOM     11  C   UNL     1       1.605   4.014  18.745  0.00  0.00    +0.000 A 
ENDBRANCH   3   6
BRANCH   4  12
ATOM     12  N   UNL     1       2.219   7.848  18.852  0.00  0.00    +0.000 N 
ATOM     13  C   UNL     1       1.889   8.171  20.243  0.00  0.00    +0.000 C 
ATOM     14  C   UNL     1       0.447   8.686  20.319  0.00  0.00    +0.000 C 
ATOM     15  C   UNL     1       0.225   9.888  19.405  0.00  0.00    +0.000 C 
ATOM     16  C   UNL     1       0.669   9.566  17.979  0.00  0.00    +0.000 C 
ATOM     17  C   UNL     1       2.090   8.993  17.930  0.00  0.00    +0.000 C 
ENDBRANCH   4  12
BRANCH   1  18
ATOM     18  C   UNL     1       6.594   6.609  17.202  0.00  0.00    +0.000 C 
BRANCH  18  19
ATOM     19  C   UNL     1       6.594   6.031  15.734  0.00  0.00    +0.000 C 
ATOM     20  C   UNL     1       5.239   6.246  15.014  0.00  0.00    +0.000 C 
BRANCH  19  22
ATOM     21  C   UNL     1       6.238   3.727  14.456  0.00  0.00    +0.000 C 
ATOM     22  C   UNL     1       6.879   4.506  15.593  0.00  0.00    +0.000 C 
ENDBRANCH  19  22
ENDBRANCH  18  19
BRANCH  18  23
ATOM     23  N   UNL     1       6.978   8.064  17.184  0.00  0.00    +0.000 NA
ATOM     24  H   UNL     1       6.235   8.580  17.660  0.00  0.00    +0.000 HD
BRANCH  23  25
ATOM     25  C   UNL     1       8.233   8.296  17.913  0.00  0.00    +0.000 C 
BRANCH  25  26
ATOM     26  C   UNL     1       8.528   9.722  18.359  0.00  0.00    +0.000 A 
ATOM     27  C   UNL     1       9.285   9.916  19.530  0.00  0.00    +0.000 A 
ATOM     28  C   UNL     1       9.868  11.152  19.832  0.00  0.00    +0.000 A 
ATOM     29  C   UNL     1       9.696  12.244  18.978  0.00  0.00    +0.000 A 
ATOM     30  C   UNL     1      10.458  13.517  19.211  0.00  0.00    +0.000 C 
ATOM     31  C   UNL     1       8.873  12.085  17.853  0.00  0.00    +0.000 A 
ATOM     32  C   UNL     1       8.292  10.840  17.548  0.00  0.00    +0.000 A 
ENDBRANCH  25  26
ENDBRANCH  23  25
ENDBRANCH  18  23
ENDBRANCH   1  18
TORSDOF 8
ENDMDL
MODEL 8
REMARK VINA RESULT:      -8.0      3.090      8.574
REMARK  Name = 
REMARK  11 active torsions:
REMARK  status: ('A' for Active; 'I' for Inactive)
REMARK    1  A    between atoms: C_1  and  C_2
REMARK    2  A    between atoms: C_2  and  C_3
REMARK    3  A    between atoms: C_3  and  C_4
REMARK    4  A    between atoms: C_3  and  C_5
REMARK    5  A    between atoms: C_5  and  N_6
REMARK    6  A    between atoms: C_5  and  C_15
REMARK    7  A    between atoms: N_6  and  C_7
REMARK    8  A    between atoms: C_7  and  C_8
REMARK    9  A    between atoms: C_11  and  C_12
REMARK   10  A    between atoms: C_17  and  C_18
REMARK   11  A    between atoms: C_24  and  N_25
REMARK                            x       y       z     vdW  Elec       q    Type
REMARK                         _______ _______ _______ _____ _____    ______ ____
ROOT
ATOM      1  C   UNL     1       2.247   8.465  18.089  0.00  0.00    +0.000 A 
ATOM      2  N   UNL     1       3.348   8.131  17.445  0.00  0.00    +0.000 NA
ATOM      3  C   UNL     1       3.595   6.824  17.844  0.00  0.00    +0.000 A 
ATOM      4  C   UNL     1       2.573   6.382  18.676  0.00  0.00    +0.000 A 
ATOM      5  O   UNL     1       1.718   7.448  18.859  0.00  0.00    +0.000 OA
ENDROOT
BRANCH   3   6
ATOM      6  C   UNL     1       4.787   6.089  17.438  0.00  0.00    +0.000 A 
ATOM      7  C   UNL     1       5.652   5.487  18.364  0.00  0.00    +0.000 A 
ATOM      8  C   UNL     1       6.802   4.807  17.945  0.00  0.00    +0.000 A 
ATOM      9  C   UNL     1       7.109   4.733  16.591  0.00  0.00    +0.000 A 
ATOM     10  C   UNL     1       6.268   5.329  15.657  0.00  0.00    +0.000 A 
ATOM     11  C   UNL     1       5.118   6.008  16.079  0.00  0.00    +0.000 A 
ENDBRANCH   3   6
BRANCH   4  12
ATOM     12  N   UNL     1       2.285   5.187  19.284  0.00  0.00    +0.000 N 
ATOM     13  C   UNL     1       1.787   5.211  20.662  0.00  0.00    +0.000 C 
ATOM     14  C   UNL     1       2.016   3.841  21.312  0.00  0.00    +0.000 C 
ATOM     15  C   UNL     1       1.366   2.717  20.509  0.00  0.00    +0.000 C 
ATOM     16  C   UNL     1       1.818   2.769  19.051  0.00  0.00    +0.000 C 
ATOM     17  C   UNL     1       1.641   4.163  18.439  0.00  0.00    +0.000 C 
ENDBRANCH   4  12
BRANCH   1  18
ATOM     18  C   UNL     1       1.472   9.790  18.038  0.00  0.00    +0.000 C 
BRANCH  18  19
ATOM     19  C   UNL     1       0.020   9.622  18.633  0.00  0.00    +0.000 C 
ATOM     20  C   UNL     1      -1.053  10.353  17.787  0.00  0.00    +0.000 C 
BRANCH  19  22
ATOM     21  C   UNL     1      -0.151   9.166  21.246  0.00  0.00    +0.000 C 
ATOM     22  C   UNL     1      -0.196  10.146  20.084  0.00  0.00    +0.000 C 
ENDBRANCH  19  22
ENDBRANCH  18  19
BRANCH  18  23
ATOM     23  N   UNL     1       2.202  10.890  18.759  0.00  0.00    +0.000 NA
ATOM     24  H   UNL     1       3.099  10.510  19.065  0.00  0.00    +0.000 HD
BRANCH  23  25
ATOM     25  C   UNL     1       2.469  12.028  17.868  0.00  0.00    +0.000 C 
BRANCH  25  26
ATOM     26  C   UNL     1       2.068  13.412  18.363  0.00  0.00    +0.000 A 
ATOM     27  C   UNL     1       2.957  14.483  18.153  0.00  0.00    +0.000 A 
ATOM     28  C   UNL     1       2.545  15.814  18.280  0.00  0.00    +0.000 A 
ATOM     29  C   UNL     1       1.231  16.119  18.639  0.00  0.00    +0.000 A 
ATOM     30  C   UNL     1       0.744  17.540  18.607  0.00  0.00    +0.000 C 
ATOM     31  C   UNL     1       0.359  15.060  18.933  0.00  0.00    +0.000 A 
ATOM     32  C   UNL     1       0.774  13.720  18.801  0.00  0.00    +0.000 A 
ENDBRANCH  25  26
ENDBRANCH  23  25
ENDBRANCH  18  23
ENDBRANCH   1  18
TORSDOF 8
ENDMDL
MODEL 9
REMARK VINA RESULT:      -7.9      2.949      8.529
REMARK  Name = 
REMARK  11 active torsions:
REMARK  status: ('A' for Active; 'I' for Inactive)
REMARK    1  A    between atoms: C_1  and  C_2
REMARK    2  A    between atoms: C_2  and  C_3
REMARK    3  A    between atoms: C_3  and  C_4
REMARK    4  A    between atoms: C_3  and  C_5
REMARK    5  A    between atoms: C_5  and  N_6
REMARK    6  A    between atoms: C_5  and  C_15
REMARK    7  A    between atoms: N_6  and  C_7
REMARK    8  A    between atoms: C_7  and  C_8
REMARK    9  A    between atoms: C_11  and  C_12
REMARK   10  A    between atoms: C_17  and  C_18
REMARK   11  A    between atoms: C_24  and  N_25
REMARK                            x       y       z     vdW  Elec       q    Type
REMARK                         _______ _______ _______ _____ _____    ______ ____
ROOT
ATOM      1  C   UNL     1       2.215   8.482  18.144  0.00  0.00    +0.000 A 
ATOM      2  N   UNL     1       3.319   8.180  17.489  0.00  0.00    +0.000 NA
ATOM      3  C   UNL     1       3.596   6.874  17.870  0.00  0.00    +0.000 A 
ATOM      4  C   UNL     1       2.589   6.400  18.702  0.00  0.00    +0.000 A 
ATOM      5  O   UNL     1       1.713   7.444  18.904  0.00  0.00    +0.000 OA
ENDROOT
BRANCH   3   6
ATOM      6  C   UNL     1       4.801   6.169  17.446  0.00  0.00    +0.000 A 
ATOM      7  C   UNL     1       5.150   6.022  16.096  0.00  0.00    +0.000 A 
ATOM      8  C   UNL     1       6.302   5.320  15.718  0.00  0.00    +0.000 A 
ATOM      9  C   UNL     1       7.113   4.743  16.690  0.00  0.00    +0.000 A 
ATOM     10  C   UNL     1       6.779   4.873  18.035  0.00  0.00    +0.000 A 
ATOM     11  C   UNL     1       5.628   5.576  18.409  0.00  0.00    +0.000 A 
ENDBRANCH   3   6
BRANCH   4  12
ATOM     12  N   UNL     1       2.331   5.190  19.296  0.00  0.00    +0.000 N 
ATOM     13  C   UNL     1       1.879   5.185  20.690  0.00  0.00    +0.000 C 
ATOM     14  C   UNL     1       2.139   3.805  21.306  0.00  0.00    +0.000 C 
ATOM     15  C   UNL     1       1.471   2.691  20.504  0.00  0.00    +0.000 C 
ATOM     16  C   UNL     1       1.875   2.773  19.032  0.00  0.00    +0.000 C 
ATOM     17  C   UNL     1       1.667   4.178  18.453  0.00  0.00    +0.000 C 
ENDBRANCH   4  12
BRANCH   1  18
ATOM     18  C   UNL     1       1.412   9.790  18.115  0.00  0.00    +0.000 C 
BRANCH  18  19
ATOM     19  C   UNL     1      -0.034   9.583  18.714  0.00  0.00    +0.000 C 
ATOM     20  C   UNL     1      -1.137  10.208  17.823  0.00  0.00    +0.000 C 
BRANCH  19  22
ATOM     21  C   UNL     1      -0.216   9.268  21.347  0.00  0.00    +0.000 C 
ATOM     22  C   UNL     1      -0.285  10.178  20.132  0.00  0.00    +0.000 C 
ENDBRANCH  19  22
ENDBRANCH  18  19
BRANCH  18  23
ATOM     23  N   UNL     1       2.121  10.896  18.848  0.00  0.00    +0.000 NA
ATOM     24  H   UNL     1       2.967  10.495  19.258  0.00  0.00    +0.000 HD
BRANCH  23  25
ATOM     25  C   UNL     1       2.524  11.973  17.934  0.00  0.00    +0.000 C 
BRANCH  25  26
ATOM     26  C   UNL     1       1.899  13.345  18.151  0.00  0.00    +0.000 A 
ATOM     27  C   UNL     1       0.523  13.417  18.441  0.00  0.00    +0.000 A 
ATOM     28  C   UNL     1      -0.058  14.578  18.963  0.00  0.00    +0.000 A 
ATOM     29  C   UNL     1       0.718  15.715  19.196  0.00  0.00    +0.000 A 
ATOM     30  C   UNL     1       0.134  16.900  19.913  0.00  0.00    +0.000 C 
ATOM     31  C   UNL     1       2.073  15.683  18.832  0.00  0.00    +0.000 A 
ATOM     32  C   UNL     1       2.657  14.512  18.311  0.00  0.00    +0.000 A 
ENDBRANCH  25  26
ENDBRANCH  23  25
ENDBRANCH  18  23
ENDBRANCH   1  18
TORSDOF 8
ENDMDL
