MODEL 1
REMARK VINA RESULT:      -7.2      0.000      0.000
REMARK  Name = 
REMARK  11 active torsions:
REMARK  status: ('A' for Active; 'I' for Inactive)
REMARK    1  A    between atoms: C_1  and  C_2
REMARK    2  A    between atoms: C_2  and  C_3
REMARK    3  A    between atoms: C_2  and  O_4
REMARK    4  A    between atoms: O_4  and  P_5
REMARK    5  A    between atoms: P_5  and  O_7
REMARK    6  A    between atoms: P_5  and  C_11
REMARK    7  A    between atoms: O_7  and  C_8
REMARK    8  A    between atoms: C_8  and  C_9
REMARK    9  A    between atoms: C_8  and  C_10
REMARK   10  A    between atoms: C_11  and  O_12
REMARK   11  A    between atoms: C_11  and  C_13
REMARK                            x       y       z     vdW  Elec       q    Type
REMARK                         _______ _______ _______ _____ _____    ______ ____
ROOT
ATOM      1  C   UNL     1       4.741   3.957  16.452  0.00  0.00    +0.000 C 
ENDROOT
BRANCH   1   2
ATOM      2  C   UNL     1       3.731   3.946  17.596  0.00  0.00    +0.000 A 
ATOM      3  C   UNL     1       2.382   4.320  17.398  0.00  0.00    +0.000 A 
ATOM      4  C   UNL     1       1.425   4.104  18.397  0.00  0.00    +0.000 A 
ATOM      5  C   UNL     1       1.836   3.525  19.577  0.00  0.00    +0.000 A 
ATOM      6  C   UNL     1       3.149   3.185  19.795  0.00  0.00    +0.000 A 
ATOM      7  C   UNL     1       4.117   3.387  18.832  0.00  0.00    +0.000 A 
ATOM      8  O   UNL     1       3.345   2.608  21.009  0.00  0.00    +0.000 OA
ATOM      9  C   UNL     1       1.999   2.603  21.525  0.00  0.00    +0.000 C 
ATOM     10  O   UNL     1       1.037   3.201  20.630  0.00  0.00    +0.000 OA
ENDBRANCH   1   2
BRANCH   1  11
ATOM     11  P   UNL     1       6.071   5.211  16.532  0.00  0.00    +0.000 P 
ATOM     12  O   UNL     1       5.137   6.249  15.883  0.00  0.00    +0.000 OA
BRANCH  11  13
ATOM     13  O   UNL     1       7.329   6.397  16.607  0.00  0.00    +0.000 OA
BRANCH  13  15
ATOM     14  C   UNL     1       8.021   6.308  18.942  0.00  0.00    +0.000 C 
ATOM     15  C   UNL     1       7.354   7.130  17.840  0.00  0.00    +0.000 C 
ATOM     16  C   UNL     1       8.107   8.436  17.633  0.00  0.00    +0.000 C 
ENDBRANCH  13  15
ENDBRANCH  11  13
BRANCH  11  17
ATOM     17  O   UNL     1       6.853   4.467  15.270  0.00  0.00    +0.000 OA
BRANCH  17  18
ATOM     18  C   UNL     1       6.673   4.866  13.920  0.00  0.00    +0.000 C 
ATOM     19  C   UNL     1       7.976   5.365  13.323  0.00  0.00    +0.000 C 
ATOM     20  C   UNL     1       6.151   3.651  13.158  0.00  0.00    +0.000 C 
ENDBRANCH  17  18
ENDBRANCH  11  17
ENDBRANCH   1  11
BRANCH   1  21
ATOM     21  O   UNL     1       5.344   2.650  16.343  0.00  0.00    +0.000 OA
ATOM     22  H   UNL     1       6.175   2.650  16.845  0.00  0.00    +0.000 HD
ENDBRANCH   1  21
TORSDOF 7
ENDMDL
MODEL 2
REMARK VINA RESULT:      -7.1      0.606      1.233
REMARK  Name = 
REMARK  11 active torsions:
REMARK  status: ('A' for Active; 'I' for Inactive)
REMARK    1  A    between atoms: C_1  and  C_2
REMARK    2  A    between atoms: C_2  and  C_3
REMARK    3  A    between atoms: C_2  and  O_4
REMARK    4  A    between atoms: O_4  and  P_5
REMARK    5  A    between atoms: P_5  and  O_7
REMARK    6  A    between atoms: P_5  and  C_11
REMARK    7  A    between atoms: O_7  and  C_8
REMARK    8  A    between atoms: C_8  and  C_9
REMARK    9  A    between atoms: C_8  and  C_10
REMARK   10  A    between atoms: C_11  and  O_12
REMARK   11  A    between atoms: C_11  and  C_13
REMARK                            x       y       z     vdW  Elec       q    Type
REMARK                         _______ _______ _______ _____ _____    ______ ____
ROOT
ATOM      1  C   UNL     1       4.579   4.131  16.527  0.00  0.00    +0.000 C 
ENDROOT
BRANCH   1   2
ATOM      2  C   UNL     1       3.538   4.009  17.636  0.00  0.00    +0.000 A 
ATOM      3  C   UNL     1       2.153   4.118  17.368  0.00  0.00    +0.000 A 
ATOM      4  C   UNL     1       1.207   3.796  18.348  0.00  0.00    +0.000 A 
ATOM      5  C   UNL     1       1.662   3.378  19.579  0.00  0.00    +0.000 A 
ATOM      6  C   UNL     1       3.003   3.297  19.863  0.00  0.00    +0.000 A 
ATOM      7  C   UNL     1       3.962   3.610  18.920  0.00  0.00    +0.000 A 
ATOM      8  O   UNL     1       3.246   2.845  21.120  0.00  0.00    +0.000 OA
ATOM      9  C   UNL     1       1.900   2.628  21.592  0.00  0.00    +0.000 C 
ATOM     10  O   UNL     1       0.887   2.982  20.626  0.00  0.00    +0.000 OA
ENDBRANCH   1   2
BRANCH   1  11
ATOM     11  P   UNL     1       5.596   5.652  16.507  0.00  0.00    +0.000 P 
ATOM     12  O   UNL     1       4.334   6.503  16.739  0.00  0.00    +0.000 OA
BRANCH  11  13
ATOM     13  O   UNL     1       6.558   7.090  16.488  0.00  0.00    +0.000 OA
BRANCH  13  15
ATOM     14  C   UNL     1       8.019   8.432  17.903  0.00  0.00    +0.000 C 
ATOM     15  C   UNL     1       7.685   7.039  17.375  0.00  0.00    +0.000 C 
ATOM     16  C   UNL     1       7.370   6.102  18.532  0.00  0.00    +0.000 C 
ENDBRANCH  13  15
ENDBRANCH  11  13
BRANCH  11  17
ATOM     17  O   UNL     1       5.753   5.529  14.859  0.00  0.00    +0.000 OA
BRANCH  17  18
ATOM     18  C   UNL     1       6.670   4.638  14.245  0.00  0.00    +0.000 C 
ATOM     19  C   UNL     1       5.973   3.762  13.220  0.00  0.00    +0.000 C 
ATOM     20  C   UNL     1       7.755   5.489  13.589  0.00  0.00    +0.000 C 
ENDBRANCH  17  18
ENDBRANCH  11  17
ENDBRANCH   1  11
BRANCH   1  21
ATOM     21  O   UNL     1       5.459   2.987  16.580  0.00  0.00    +0.000 OA
ATOM     22  H   UNL     1       5.031   2.247  16.122  0.00  0.00    +0.000 HD
ENDBRANCH   1  21
TORSDOF 7
ENDMDL
MODEL 3
REMARK VINA RESULT:      -7.1      0.819      1.120
REMARK  Name = 
REMARK  11 active torsions:
REMARK  status: ('A' for Active; 'I' for Inactive)
REMARK    1  A    between atoms: C_1  and  C_2
REMARK    2  A    between atoms: C_2  and  C_3
REMARK    3  A    between atoms: C_2  and  O_4
REMARK    4  A    between atoms: O_4  and  P_5
REMARK    5  A    between atoms: P_5  and  O_7
REMARK    6  A    between atoms: P_5  and  C_11
REMARK    7  A    between atoms: O_7  and  C_8
REMARK    8  A    between atoms: C_8  and  C_9
REMARK    9  A    between atoms: C_8  and  C_10
REMARK   10  A    between atoms: C_11  and  O_12
REMARK   11  A    between atoms: C_11  and  C_13
REMARK                            x       y       z     vdW  Elec       q    Type
REMARK                         _______ _______ _______ _____ _____    ______ ____
ROOT
ATOM      1  C   UNL     1       4.902   4.293  16.439  0.00  0.00    +0.000 C 
ENDROOT
BRANCH   1   2
ATOM      2  C   UNL     1       3.955   4.414  17.630  0.00  0.00    +0.000 A 
ATOM      3  C   UNL     1       3.203   5.588  17.863  0.00  0.00    +0.000 A 
ATOM      4  C   UNL     1       2.188   5.609  18.828  0.00  0.00    +0.000 A 
ATOM      5  C   UNL     1       1.950   4.459  19.546  0.00  0.00    +0.000 A 
ATOM      6  C   UNL     1       2.693   3.320  19.352  0.00  0.00    +0.000 A 
ATOM      7  C   UNL     1       3.702   3.268  18.411  0.00  0.00    +0.000 A 
ATOM      8  O   UNL     1       2.289   2.291  20.140  0.00  0.00    +0.000 OA
ATOM      9  C   UNL     1       1.188   2.904  20.840  0.00  0.00    +0.000 C 
ATOM     10  O   UNL     1       0.978   4.287  20.483  0.00  0.00    +0.000 OA
ENDBRANCH   1   2
BRANCH   1  11
ATOM     11  P   UNL     1       6.283   5.490  16.353  0.00  0.00    +0.000 P 
ATOM     12  O   UNL     1       5.364   6.505  15.651  0.00  0.00    +0.000 OA
BRANCH  11  13
ATOM     13  O   UNL     1       7.589   6.622  16.271  0.00  0.00    +0.000 OA
BRANCH  13  15
ATOM     14  C   UNL     1       7.691   8.575  17.726  0.00  0.00    +0.000 C 
ATOM     15  C   UNL     1       8.022   7.093  17.556  0.00  0.00    +0.000 C 
ATOM     16  C   UNL     1       7.341   6.277  18.645  0.00  0.00    +0.000 C 
ENDBRANCH  13  15
ENDBRANCH  11  13
BRANCH  11  17
ATOM     17  O   UNL     1       6.979   4.604  15.134  0.00  0.00    +0.000 OA
BRANCH  17  18
ATOM     18  C   UNL     1       6.753   4.885  13.762  0.00  0.00    +0.000 C 
ATOM     19  C   UNL     1       8.031   5.341  13.083  0.00  0.00    +0.000 C 
ATOM     20  C   UNL     1       6.220   3.606  13.123  0.00  0.00    +0.000 C 
ENDBRANCH  17  18
ENDBRANCH  11  17
ENDBRANCH   1  11
BRANCH   1  21
ATOM     21  O   UNL     1       5.446   2.956  16.404  0.00  0.00    +0.000 OA
ATOM     22  H   UNL     1       5.331   2.553  17.279  0.00  0.00    +0.000 HD
ENDBRANCH   1  21
TORSDOF 7
ENDMDL
MODEL 4
REMARK VINA RESULT:      -7.1      1.685      3.625
REMARK  Name = 
REMARK  11 active torsions:
REMARK  status: ('A' for Active; 'I' for Inactive)
REMARK    1  A    between atoms: C_1  and  C_2
REMARK    2  A    between atoms: C_2  and  C_3
REMARK    3  A    between atoms: C_2  and  O_4
REMARK    4  A    between atoms: O_4  and  P_5
REMARK    5  A    between atoms: P_5  and  O_7
REMARK    6  A    between atoms: P_5  and  C_11
REMARK    7  A    between atoms: O_7  and  C_8
REMARK    8  A    between atoms: C_8  and  C_9
REMARK    9  A    between atoms: C_8  and  C_10
REMARK   10  A    between atoms: C_11  and  O_12
REMARK   11  A    between atoms: C_11  and  C_13
REMARK                            x       y       z     vdW  Elec       q    Type
REMARK                         _______ _______ _______ _____ _____    ______ ____
ROOT
ATOM      1  C   UNL     1       6.553   4.529  18.957  0.00  0.00    +0.000 C 
ENDROOT
BRANCH   1   2
ATOM      2  C   UNL     1       5.060   4.381  19.234  0.00  0.00    +0.000 A 
ATOM      3  C   UNL     1       4.241   5.502  19.500  0.00  0.00    +0.000 A 
ATOM      4  C   UNL     1       2.847   5.377  19.542  0.00  0.00    +0.000 A 
ATOM      5  C   UNL     1       2.299   4.133  19.325  0.00  0.00    +0.000 A 
ATOM      6  C   UNL     1       3.084   3.029  19.095  0.00  0.00    +0.000 A 
ATOM      7  C   UNL     1       4.461   3.118  19.051  0.00  0.00    +0.000 A 
ATOM      8  O   UNL     1       2.354   1.903  18.884  0.00  0.00    +0.000 OA
ATOM      9  C   UNL     1       1.015   2.428  18.983  0.00  0.00    +0.000 C 
ATOM     10  O   UNL     1       0.970   3.840  19.282  0.00  0.00    +0.000 OA
ENDBRANCH   1   2
BRANCH   1  11
ATOM     11  P   UNL     1       7.040   4.978  17.251  0.00  0.00    +0.000 P 
ATOM     12  O   UNL     1       8.225   3.998  17.328  0.00  0.00    +0.000 OA
BRANCH  11  13
ATOM     13  O   UNL     1       7.500   5.403  15.638  0.00  0.00    +0.000 OA
BRANCH  13  15
ATOM     14  C   UNL     1       6.947   4.261  13.557  0.00  0.00    +0.000 C 
ATOM     15  C   UNL     1       6.463   5.189  14.670  0.00  0.00    +0.000 C 
ATOM     16  C   UNL     1       5.249   4.587  15.361  0.00  0.00    +0.000 C 
ENDBRANCH  13  15
ENDBRANCH  11  13
BRANCH  11  17
ATOM     17  O   UNL     1       7.628   6.430  17.798  0.00  0.00    +0.000 OA
BRANCH  17  18
ATOM     18  C   UNL     1       7.281   7.668  17.198  0.00  0.00    +0.000 C 
ATOM     19  C   UNL     1       5.783   7.904  17.267  0.00  0.00    +0.000 C 
ATOM     20  C   UNL     1       8.042   8.760  17.946  0.00  0.00    +0.000 C 
ENDBRANCH  17  18
ENDBRANCH  11  17
ENDBRANCH   1  11
BRANCH   1  21
ATOM     21  O   UNL     1       7.107   5.503  19.867  0.00  0.00    +0.000 OA
ATOM     22  H   UNL     1       6.791   6.383  19.607  0.00  0.00    +0.000 HD
ENDBRANCH   1  21
TORSDOF 7
ENDMDL
MODEL 5
REMARK VINA RESULT:      -6.9      2.348      6.581
REMARK  Name = 
REMARK  11 active torsions:
REMARK  status: ('A' for Active; 'I' for Inactive)
REMARK    1  A    between atoms: C_1  and  C_2
REMARK    2  A    between atoms: C_2  and  C_3
REMARK    3  A    between atoms: C_2  and  O_4
REMARK    4  A    between atoms: O_4  and  P_5
REMARK    5  A    between atoms: P_5  and  O_7
REMARK    6  A    between atoms: P_5  and  C_11
REMARK    7  A    between atoms: O_7  and  C_8
REMARK    8  A    between atoms: C_8  and  C_9
REMARK    9  A    between atoms: C_8  and  C_10
REMARK   10  A    between atoms: C_11  and  O_12
REMARK   11  A    between atoms: C_11  and  C_13
REMARK                            x       y       z     vdW  Elec       q    Type
REMARK                         _______ _______ _______ _____ _____    ______ ____
ROOT
ATOM      1  C   UNL     1       4.918   4.180  19.255  0.00  0.00    +0.000 C 
ENDROOT
BRANCH   1   2
ATOM      2  C   UNL     1       5.539   4.724  17.972  0.00  0.00    +0.000 A 
ATOM      3  C   UNL     1       6.407   5.841  17.984  0.00  0.00    +0.000 A 
ATOM      4  C   UNL     1       7.132   6.198  16.840  0.00  0.00    +0.000 A 
ATOM      5  C   UNL     1       6.971   5.435  15.705  0.00  0.00    +0.000 A 
ATOM      6  C   UNL     1       6.108   4.367  15.670  0.00  0.00    +0.000 A 
ATOM      7  C   UNL     1       5.377   3.991  16.779  0.00  0.00    +0.000 A 
ATOM      8  O   UNL     1       6.109   3.734  14.468  0.00  0.00    +0.000 OA
ATOM      9  C   UNL     1       7.089   4.513  13.754  0.00  0.00    +0.000 C 
ATOM     10  O   UNL     1       7.628   5.608  14.525  0.00  0.00    +0.000 OA
ENDBRANCH   1   2
BRANCH   1  11
ATOM     11  P   UNL     1       3.104   4.345  19.434  0.00  0.00    +0.000 P 
ATOM     12  O   UNL     1       2.934   4.148  17.917  0.00  0.00    +0.000 OA
BRANCH  11  13
ATOM     13  O   UNL     1       1.390   4.501  19.603  0.00  0.00    +0.000 OA
BRANCH  13  15
ATOM     14  C   UNL     1       0.627   2.245  19.084  0.00  0.00    +0.000 C 
ATOM     15  C   UNL     1       0.758   3.334  20.148  0.00  0.00    +0.000 C 
ATOM     16  C   UNL     1       1.578   2.821  21.322  0.00  0.00    +0.000 C 
ENDBRANCH  13  15
ENDBRANCH  11  13
BRANCH  11  17
ATOM     17  O   UNL     1       3.272   5.982  19.654  0.00  0.00    +0.000 OA
BRANCH  17  18
ATOM     18  C   UNL     1       2.366   6.922  19.099  0.00  0.00    +0.000 C 
ATOM     19  C   UNL     1       1.902   7.914  20.151  0.00  0.00    +0.000 C 
ATOM     20  C   UNL     1       3.094   7.632  17.961  0.00  0.00    +0.000 C 
ENDBRANCH  17  18
ENDBRANCH  11  17
ENDBRANCH   1  11
BRANCH   1  21
ATOM     21  O   UNL     1       5.271   2.787  19.395  0.00  0.00    +0.000 OA
ATOM     22  H   UNL     1       5.991   2.587  18.776  0.00  0.00    +0.000 HD
ENDBRANCH   1  21
TORSDOF 7
ENDMDL
MODEL 6
REMARK VINA RESULT:      -6.9      0.951      1.489
REMARK  Name = 
REMARK  11 active torsions:
REMARK  status: ('A' for Active; 'I' for Inactive)
REMARK    1  A    between atoms: C_1  and  C_2
REMARK    2  A    between atoms: C_2  and  C_3
REMARK    3  A    between atoms: C_2  and  O_4
REMARK    4  A    between atoms: O_4  and  P_5
REMARK    5  A    between atoms: P_5  and  O_7
REMARK    6  A    between atoms: P_5  and  C_11
REMARK    7  A    between atoms: O_7  and  C_8
REMARK    8  A    between atoms: C_8  and  C_9
REMARK    9  A    between atoms: C_8  and  C_10
REMARK   10  A    between atoms: C_11  and  O_12
REMARK   11  A    between atoms: C_11  and  C_13
REMARK                            x       y       z     vdW  Elec       q    Type
REMARK                         _______ _______ _______ _____ _____    ______ ____
ROOT
ATOM      1  C   UNL     1       5.253   3.982  16.166  0.00  0.00    +0.000 C 
ENDROOT
BRANCH   1   2
ATOM      2  C   UNL     1       4.371   3.700  17.380  0.00  0.00    +0.000 A 
ATOM      3  C   UNL     1       4.748   4.107  18.681  0.00  0.00    +0.000 A 
ATOM      4  C   UNL     1       3.842   4.033  19.745  0.00  0.00    +0.000 A 
ATOM      5  C   UNL     1       2.579   3.546  19.491  0.00  0.00    +0.000 A 
ATOM      6  C   UNL     1       2.209   3.119  18.239  0.00  0.00    +0.000 A 
ATOM      7  C   UNL     1       3.080   3.176  17.169  0.00  0.00    +0.000 A 
ATOM      8  O   UNL     1       0.919   2.696  18.191  0.00  0.00    +0.000 OA
ATOM      9  C   UNL     1       0.509   2.928  19.554  0.00  0.00    +0.000 C 
ATOM     10  O   UNL     1       1.562   3.450  20.391  0.00  0.00    +0.000 OA
ENDBRANCH   1   2
BRANCH   1  11
ATOM     11  P   UNL     1       6.426   5.380  16.300  0.00  0.00    +0.000 P 
ATOM     12  O   UNL     1       5.386   6.317  15.659  0.00  0.00    +0.000 OA
BRANCH  11  13
ATOM     13  O   UNL     1       7.535   6.702  16.425  0.00  0.00    +0.000 OA
BRANCH  13  15
ATOM     14  C   UNL     1       8.028   6.528  18.806  0.00  0.00    +0.000 C 
ATOM     15  C   UNL     1       7.464   7.393  17.681  0.00  0.00    +0.000 C 
ATOM     16  C   UNL     1       8.244   8.696  17.581  0.00  0.00    +0.000 C 
ENDBRANCH  13  15
ENDBRANCH  11  13
BRANCH  11  17
ATOM     17  O   UNL     1       7.308   4.764  15.036  0.00  0.00    +0.000 OA
BRANCH  17  18
ATOM     18  C   UNL     1       7.056   5.120  13.685  0.00  0.00    +0.000 C 
ATOM     19  C   UNL     1       8.316   5.634  13.014  0.00  0.00    +0.000 C 
ATOM     20  C   UNL     1       6.532   3.870  12.982  0.00  0.00    +0.000 C 
ENDBRANCH  17  18
ENDBRANCH  11  17
ENDBRANCH   1  11
BRANCH   1  21
ATOM     21  O   UNL     1       5.994   2.787  15.835  0.00  0.00    +0.000 OA
ATOM     22  H   UNL     1       6.289   2.853  14.914  0.00  0.00    +0.000 HD
ENDBRANCH   1  21
TORSDOF 7
ENDMDL
MODEL 7
REMARK VINA RESULT:      -6.9      1.237      3.806
REMARK  Name = 
REMARK  11 active torsions:
REMARK  status: ('A' for Active; 'I' for Inactive)
REMARK    1  A    between atoms: C_1  and  C_2
REMARK    2  A    between atoms: C_2  and  C_3
REMARK    3  A    between atoms: C_2  and  O_4
REMARK    4  A    between atoms: O_4  and  P_5
REMARK    5  A    between atoms: P_5  and  O_7
REMARK    6  A    between atoms: P_5  and  C_11
REMARK    7  A    between atoms: O_7  and  C_8
REMARK    8  A    between atoms: C_8  and  C_9
REMARK    9  A    between atoms: C_8  and  C_10
REMARK   10  A    between atoms: C_11  and  O_12
REMARK   11  A    between atoms: C_11  and  C_13
REMARK                            x       y       z     vdW  Elec       q    Type
REMARK                         _______ _______ _______ _____ _____    ______ ____
ROOT
ATOM      1  C   UNL     1       5.267   5.857  17.260  0.00  0.00    +0.000 C 
ENDROOT
BRANCH   1   2
ATOM      2  C   UNL     1       4.471   4.731  17.913  0.00  0.00    +0.000 A 
ATOM      3  C   UNL     1       4.891   4.131  19.123  0.00  0.00    +0.000 A 
ATOM      4  C   UNL     1       4.049   3.254  19.817  0.00  0.00    +0.000 A 
ATOM      5  C   UNL     1       2.807   2.988  19.286  0.00  0.00    +0.000 A 
ATOM      6  C   UNL     1       2.398   3.540  18.096  0.00  0.00    +0.000 A 
ATOM      7  C   UNL     1       3.205   4.405  17.385  0.00  0.00    +0.000 A 
ATOM      8  O   UNL     1       1.136   3.171  17.755  0.00  0.00    +0.000 OA
ATOM      9  C   UNL     1       0.785   2.340  18.880  0.00  0.00    +0.000 C 
ATOM     10  O   UNL     1       1.847   2.202  19.847  0.00  0.00    +0.000 OA
ENDBRANCH   1   2
BRANCH   1  11
ATOM     11  P   UNL     1       6.479   5.379  15.974  0.00  0.00    +0.000 P 
ATOM     12  O   UNL     1       6.778   4.076  16.736  0.00  0.00    +0.000 OA
BRANCH  11  13
ATOM     13  O   UNL     1       7.624   4.927  14.758  0.00  0.00    +0.000 OA
BRANCH  13  15
ATOM     14  C   UNL     1       5.512   4.237  13.756  0.00  0.00    +0.000 C 
ATOM     15  C   UNL     1       7.034   4.253  13.637  0.00  0.00    +0.000 C 
ATOM     16  C   UNL     1       7.451   4.957  12.353  0.00  0.00    +0.000 C 
ENDBRANCH  13  15
ENDBRANCH  11  13
BRANCH  11  17
ATOM     17  O   UNL     1       7.553   6.497  16.566  0.00  0.00    +0.000 OA
BRANCH  17  18
ATOM     18  C   UNL     1       7.404   7.096  17.844  0.00  0.00    +0.000 C 
ATOM     19  C   UNL     1       8.129   6.292  18.908  0.00  0.00    +0.000 C 
ATOM     20  C   UNL     1       7.969   8.510  17.747  0.00  0.00    +0.000 C 
ENDBRANCH  17  18
ENDBRANCH  11  17
ENDBRANCH   1  11
BRANCH   1  21
ATOM     21  O   UNL     1       4.349   6.818  16.695  0.00  0.00    +0.000 OA
ATOM     22  H   UNL     1       4.718   7.706  16.815  0.00  0.00    +0.000 HD
ENDBRANCH   1  21
TORSDOF 7
ENDMDL
MODEL 8
REMARK VINA RESULT:      -6.9      1.039      1.392
REMARK  Name = 
REMARK  11 active torsions:
REMARK  status: ('A' for Active; 'I' for Inactive)
REMARK    1  A    between atoms: C_1  and  C_2
REMARK    2  A    between atoms: C_2  and  C_3
REMARK    3  A    between atoms: C_2  and  O_4
REMARK    4  A    between atoms: O_4  and  P_5
REMARK    5  A    between atoms: P_5  and  O_7
REMARK    6  A    between atoms: P_5  and  C_11
REMARK    7  A    between atoms: O_7  and  C_8
REMARK    8  A    between atoms: C_8  and  C_9
REMARK    9  A    between atoms: C_8  and  C_10
REMARK   10  A    between atoms: C_11  and  O_12
REMARK   11  A    between atoms: C_11  and  C_13
REMARK                            x       y       z     vdW  Elec       q    Type
REMARK                         _______ _______ _______ _____ _____    ______ ____
ROOT
ATOM      1  C   UNL     1       5.016   3.872  16.039  0.00  0.00    +0.000 C 
ENDROOT
BRANCH   1   2
ATOM      2  C   UNL     1       3.976   3.725  17.146  0.00  0.00    +0.000 A 
ATOM      3  C   UNL     1       3.638   2.461  17.683  0.00  0.00    +0.000 A 
ATOM      4  C   UNL     1       2.846   2.361  18.834  0.00  0.00    +0.000 A 
ATOM      5  C   UNL     1       2.401   3.524  19.420  0.00  0.00    +0.000 A 
ATOM      6  C   UNL     1       2.696   4.758  18.892  0.00  0.00    +0.000 A 
ATOM      7  C   UNL     1       3.471   4.891  17.757  0.00  0.00    +0.000 A 
ATOM      8  O   UNL     1       2.184   5.778  19.627  0.00  0.00    +0.000 OA
ATOM      9  C   UNL     1       1.550   5.047  20.696  0.00  0.00    +0.000 C 
ATOM     10  O   UNL     1       1.666   3.615  20.563  0.00  0.00    +0.000 OA
ENDBRANCH   1   2
BRANCH   1  11
ATOM     11  P   UNL     1       6.271   5.187  16.248  0.00  0.00    +0.000 P 
ATOM     12  O   UNL     1       5.311   6.209  15.613  0.00  0.00    +0.000 OA
BRANCH  11  13
ATOM     13  O   UNL     1       7.457   6.431  16.446  0.00  0.00    +0.000 OA
BRANCH  13  15
ATOM     14  C   UNL     1       7.871   6.273  18.843  0.00  0.00    +0.000 C 
ATOM     15  C   UNL     1       7.350   7.133  17.693  0.00  0.00    +0.000 C 
ATOM     16  C   UNL     1       8.143   8.429  17.608  0.00  0.00    +0.000 C 
ENDBRANCH  13  15
ENDBRANCH  11  13
BRANCH  11  17
ATOM     17  O   UNL     1       7.147   4.557  14.987  0.00  0.00    +0.000 OA
BRANCH  17  18
ATOM     18  C   UNL     1       6.943   4.958  13.641  0.00  0.00    +0.000 C 
ATOM     19  C   UNL     1       8.222   5.513  13.041  0.00  0.00    +0.000 C 
ATOM     20  C   UNL     1       6.467   3.728  12.873  0.00  0.00    +0.000 C 
ENDBRANCH  17  18
ENDBRANCH  11  17
ENDBRANCH   1  11
BRANCH   1  21
ATOM     21  O   UNL     1       5.695   2.610  15.861  0.00  0.00    +0.000 OA
ATOM     22  H   UNL     1       5.062   1.893  16.022  0.00  0.00    +0.000 HD
ENDBRANCH   1  21
TORSDOF 7
ENDMDL
MODEL 9
REMARK VINA RESULT:      -6.8      1.072      3.514
REMARK  Name = 
REMARK  11 active torsions:
REMARK  status: ('A' for Active; 'I' for Inactive)
REMARK    1  A    between atoms: C_1  and  C_2
REMARK    2  A    between atoms: C_2  and  C_3
REMARK    3  A    between atoms: C_2  and  O_4
REMARK    4  A    between atoms: O_4  and  P_5
REMARK    5  A    between atoms: P_5  and  O_7
REMARK    6  A    between atoms: P_5  and  C_11
REMARK    7  A    between atoms: O_7  and  C_8
REMARK    8  A    between atoms: C_8  and  C_9
REMARK    9  A    between atoms: C_8  and  C_10
REMARK   10  A    between atoms: C_11  and  O_12
REMARK   11  A    between atoms: C_11  and  C_13
REMARK                            x       y       z     vdW  Elec       q    Type
REMARK                         _______ _______ _______ _____ _____    ______ ____
ROOT
ATOM      1  C   UNL     1       4.661   5.985  17.577  0.00  0.00    +0.000 C 
ENDROOT
BRANCH   1   2
ATOM      2  C   UNL     1       3.498   5.273  18.263  0.00  0.00    +0.000 A 
ATOM      3  C   UNL     1       2.452   4.677  17.521  0.00  0.00    +0.000 A 
ATOM      4  C   UNL     1       1.510   3.851  18.147  0.00  0.00    +0.000 A 
ATOM      5  C   UNL     1       1.629   3.642  19.503  0.00  0.00    +0.000 A 
ATOM      6  C   UNL     1       2.622   4.239  20.241  0.00  0.00    +0.000 A 
ATOM      7  C   UNL     1       3.563   5.061  19.655  0.00  0.00    +0.000 A 
ATOM      8  O   UNL     1       2.580   3.890  21.553  0.00  0.00    +0.000 OA
ATOM      9  C   UNL     1       1.458   2.984  21.555  0.00  0.00    +0.000 C 
ATOM     10  O   UNL     1       0.835   2.836  20.261  0.00  0.00    +0.000 OA
ENDBRANCH   1   2
BRANCH   1  11
ATOM     11  P   UNL     1       5.617   5.020  16.350  0.00  0.00    +0.000 P 
ATOM     12  O   UNL     1       5.550   3.784  17.266  0.00  0.00    +0.000 OA
BRANCH  11  13
ATOM     13  O   UNL     1       6.520   4.108  15.191  0.00  0.00    +0.000 OA
BRANCH  13  15
ATOM     14  C   UNL     1       7.756   5.184  13.386  0.00  0.00    +0.000 C 
ATOM     15  C   UNL     1       6.416   4.617  13.853  0.00  0.00    +0.000 C 
ATOM     16  C   UNL     1       5.970   3.497  12.924  0.00  0.00    +0.000 C 
ENDBRANCH  13  15
ENDBRANCH  11  13
BRANCH  11  17
ATOM     17  O   UNL     1       7.000   5.825  16.790  0.00  0.00    +0.000 OA
BRANCH  17  18
ATOM     18  C   UNL     1       7.108   6.545  18.008  0.00  0.00    +0.000 C 
ATOM     19  C   UNL     1       7.908   5.762  19.033  0.00  0.00    +0.000 C 
ATOM     20  C   UNL     1       7.785   7.875  17.685  0.00  0.00    +0.000 C 
ENDBRANCH  17  18
ENDBRANCH  11  17
ENDBRANCH   1  11
BRANCH   1  21
ATOM     21  O   UNL     1       4.169   7.184  16.940  0.00  0.00    +0.000 OA
ATOM     22  H   UNL     1       4.462   7.950  17.457  0.00  0.00    +0.000 HD
ENDBRANCH   1  21
TORSDOF 7
ENDMDL
