MODEL 1
REMARK VINA RESULT:      -7.6      0.000      0.000
REMARK  Name = 
REMARK  3 active torsions:
REMARK  status: ('A' for Active; 'I' for Inactive)
REMARK    1  A    between atoms: C_1  and  N_2
REMARK    2  A    between atoms: C_9  and  N_10
REMARK    3  A    between atoms: N_10  and  C_11
REMARK                            x       y       z     vdW  Elec       q    Type
REMARK                         _______ _______ _______ _____ _____    ______ ____
ROOT
ATOM      1  C   UNL     1       5.588   3.849  13.751  0.00  0.00    +0.000 C 
ATOM      2  N   UNL     1       5.988   4.635  14.902  0.00  0.00    +0.000 N 
ATOM      3  C   UNL     1       7.161   5.364  14.858  0.00  0.00    +0.000 C 
ATOM      4  O   UNL     1       7.916   5.396  13.888  0.00  0.00    +0.000 OA
ATOM      5  N   UNL     1       7.478   6.084  15.976  0.00  0.00    +0.000 N 
ATOM      6  C   UNL     1       6.644   6.379  17.017  0.00  0.00    +0.000 C 
ATOM      7  O   UNL     1       6.916   7.244  17.842  0.00  0.00    +0.000 OA
ATOM      8  C   UNL     1       5.390   5.609  17.019  0.00  0.00    +0.000 C 
ATOM      9  C   UNL     1       4.386   5.958  17.842  0.00  0.00    +0.000 C 
ATOM     10  C   UNL     1       5.177   4.545  16.017  0.00  0.00    +0.000 C 
ATOM     11  O   UNL     1       4.305   3.688  16.152  0.00  0.00    +0.000 OA
ATOM     12  H   UNL     1       8.314   6.640  15.913  0.00  0.00    +0.000 HD
ENDROOT
BRANCH   9  13
ATOM     13  N   UNL     1       3.122   5.417  17.877  0.00  0.00    +0.000 N 
ATOM     14  H   UNL     1       2.549   5.577  17.044  0.00  0.00    +0.000 HD
BRANCH  13  15
ATOM     15  C   UNL     1       2.515   4.649  18.880  0.00  0.00    +0.000 A 
ATOM     16  C   UNL     1       1.571   3.682  18.502  0.00  0.00    +0.000 A 
ATOM     17  C   UNL     1       0.887   2.927  19.458  0.00  0.00    +0.000 A 
ATOM     18  C   UNL     1       1.139   3.133  20.810  0.00  0.00    +0.000 A 
ATOM     19  C   UNL     1       2.060   4.099  21.204  0.00  0.00    +0.000 A 
ATOM     20  C   UNL     1       2.731   4.862  20.244  0.00  0.00    +0.000 A 
ENDBRANCH  13  15
ENDBRANCH   9  13
TORSDOF 2
ENDMDL
MODEL 2
REMARK VINA RESULT:      -7.6      0.139      1.141
REMARK  Name = 
REMARK  3 active torsions:
REMARK  status: ('A' for Active; 'I' for Inactive)
REMARK    1  A    between atoms: C_1  and  N_2
REMARK    2  A    between atoms: C_9  and  N_10
REMARK    3  A    between atoms: N_10  and  C_11
REMARK                            x       y       z     vdW  Elec       q    Type
REMARK                         _______ _______ _______ _____ _____    ______ ____
ROOT
ATOM      1  C   UNL     1       5.562   3.860  13.814  0.00  0.00    +0.000 C 
ATOM      2  N   UNL     1       5.946   4.664  14.958  0.00  0.00    +0.000 N 
ATOM      3  C   UNL     1       7.133   5.369  14.931  0.00  0.00    +0.000 C 
ATOM      4  O   UNL     1       7.914   5.366  13.981  0.00  0.00    +0.000 OA
ATOM      5  N   UNL     1       7.433   6.108  16.041  0.00  0.00    +0.000 N 
ATOM      6  C   UNL     1       6.577   6.441  17.052  0.00  0.00    +0.000 C 
ATOM      7  O   UNL     1       6.843   7.320  17.865  0.00  0.00    +0.000 OA
ATOM      8  C   UNL     1       5.309   5.695  17.036  0.00  0.00    +0.000 C 
ATOM      9  C   UNL     1       4.290   6.081  17.823  0.00  0.00    +0.000 C 
ATOM     10  C   UNL     1       5.103   4.613  16.052  0.00  0.00    +0.000 C 
ATOM     11  O   UNL     1       4.211   3.775  16.182  0.00  0.00    +0.000 OA
ATOM     12  H   UNL     1       8.281   6.647  15.988  0.00  0.00    +0.000 HD
ENDROOT
BRANCH   9  13
ATOM     13  N   UNL     1       3.016   5.564  17.835  0.00  0.00    +0.000 N 
ATOM     14  H   UNL     1       2.460   5.738  16.993  0.00  0.00    +0.000 HD
BRANCH  13  15
ATOM     15  C   UNL     1       2.377   4.805  18.825  0.00  0.00    +0.000 A 
ATOM     16  C   UNL     1       2.702   5.047  20.168  0.00  0.00    +0.000 A 
ATOM     17  C   UNL     1       2.144   4.283  21.196  0.00  0.00    +0.000 A 
ATOM     18  C   UNL     1       1.252   3.260  20.891  0.00  0.00    +0.000 A 
ATOM     19  C   UNL     1       0.930   2.995  19.563  0.00  0.00    +0.000 A 
ATOM     20  C   UNL     1       1.502   3.753  18.537  0.00  0.00    +0.000 A 
ENDBRANCH  13  15
ENDBRANCH   9  13
TORSDOF 2
ENDMDL
MODEL 3
REMARK VINA RESULT:      -7.5      2.658      3.265
REMARK  Name = 
REMARK  3 active torsions:
REMARK  status: ('A' for Active; 'I' for Inactive)
REMARK    1  A    between atoms: C_1  and  N_2
REMARK    2  A    between atoms: C_9  and  N_10
REMARK    3  A    between atoms: N_10  and  C_11
REMARK                            x       y       z     vdW  Elec       q    Type
REMARK                         _______ _______ _______ _____ _____    ______ ____
ROOT
ATOM      1  C   UNL     1       5.187   4.645  14.960  0.00  0.00    +0.000 C 
ATOM      2  N   UNL     1       5.652   4.647  16.333  0.00  0.00    +0.000 N 
ATOM      3  C   UNL     1       7.006   4.567  16.596  0.00  0.00    +0.000 C 
ATOM      4  O   UNL     1       7.873   4.491  15.728  0.00  0.00    +0.000 OA
ATOM      5  N   UNL     1       7.376   4.576  17.912  0.00  0.00    +0.000 N 
ATOM      6  C   UNL     1       6.591   4.922  18.976  0.00  0.00    +0.000 C 
ATOM      7  O   UNL     1       7.065   5.162  20.081  0.00  0.00    +0.000 OA
ATOM      8  C   UNL     1       5.159   5.029  18.656  0.00  0.00    +0.000 C 
ATOM      9  C   UNL     1       4.311   5.583  19.540  0.00  0.00    +0.000 C 
ATOM     10  C   UNL     1       4.675   4.661  17.310  0.00  0.00    +0.000 C 
ATOM     11  O   UNL     1       3.485   4.446  17.082  0.00  0.00    +0.000 OA
ATOM     12  H   UNL     1       8.367   4.558  18.086  0.00  0.00    +0.000 HD
ENDROOT
BRANCH   9  13
ATOM     13  N   UNL     1       2.978   5.858  19.342  0.00  0.00    +0.000 N 
ATOM     14  H   UNL     1       2.362   5.043  19.282  0.00  0.00    +0.000 HD
BRANCH  13  15
ATOM     15  C   UNL     1       2.335   7.100  19.242  0.00  0.00    +0.000 A 
ATOM     16  C   UNL     1       2.372   7.775  18.013  0.00  0.00    +0.000 A 
ATOM     17  C   UNL     1       1.802   9.042  17.867  0.00  0.00    +0.000 A 
ATOM     18  C   UNL     1       1.186   9.652  18.955  0.00  0.00    +0.000 A 
ATOM     19  C   UNL     1       1.154   9.004  20.187  0.00  0.00    +0.000 A 
ATOM     20  C   UNL     1       1.739   7.743  20.331  0.00  0.00    +0.000 A 
ENDBRANCH  13  15
ENDBRANCH   9  13
TORSDOF 2
ENDMDL
MODEL 4
REMARK VINA RESULT:      -7.4      1.954      2.606
REMARK  Name = 
REMARK  3 active torsions:
REMARK  status: ('A' for Active; 'I' for Inactive)
REMARK    1  A    between atoms: C_1  and  N_2
REMARK    2  A    between atoms: C_9  and  N_10
REMARK    3  A    between atoms: N_10  and  C_11
REMARK                            x       y       z     vdW  Elec       q    Type
REMARK                         _______ _______ _______ _____ _____    ______ ____
ROOT
ATOM      1  C   UNL     1       5.284   6.653  15.579  0.00  0.00    +0.000 C 
ATOM      2  N   UNL     1       6.001   6.220  16.762  0.00  0.00    +0.000 N 
ATOM      3  C   UNL     1       6.939   7.055  17.338  0.00  0.00    +0.000 C 
ATOM      4  O   UNL     1       7.222   8.172  16.909  0.00  0.00    +0.000 OA
ATOM      5  N   UNL     1       7.576   6.586  18.452  0.00  0.00    +0.000 N 
ATOM      6  C   UNL     1       7.205   5.512  19.210  0.00  0.00    +0.000 C 
ATOM      7  O   UNL     1       7.663   5.318  20.331  0.00  0.00    +0.000 OA
ATOM      8  C   UNL     1       6.183   4.659  18.583  0.00  0.00    +0.000 C 
ATOM      9  C   UNL     1       5.561   3.710  19.305  0.00  0.00    +0.000 C 
ATOM     10  C   UNL     1       5.735   4.938  17.204  0.00  0.00    +0.000 C 
ATOM     11  O   UNL     1       5.124   4.105  16.536  0.00  0.00    +0.000 OA
ATOM     12  H   UNL     1       8.227   7.222  18.882  0.00  0.00    +0.000 HD
ENDROOT
BRANCH   9  13
ATOM     13  N   UNL     1       4.511   2.920  18.899  0.00  0.00    +0.000 N 
ATOM     14  H   UNL     1       4.762   2.120  18.311  0.00  0.00    +0.000 HD
BRANCH  13  15
ATOM     15  C   UNL     1       3.147   3.034  19.200  0.00  0.00    +0.000 A 
ATOM     16  C   UNL     1       2.772   3.774  20.332  0.00  0.00    +0.000 A 
ATOM     17  C   UNL     1       1.433   3.874  20.718  0.00  0.00    +0.000 A 
ATOM     18  C   UNL     1       0.449   3.231  19.975  0.00  0.00    +0.000 A 
ATOM     19  C   UNL     1       0.805   2.480  18.857  0.00  0.00    +0.000 A 
ATOM     20  C   UNL     1       2.147   2.371  18.484  0.00  0.00    +0.000 A 
ENDBRANCH  13  15
ENDBRANCH   9  13
TORSDOF 2
ENDMDL
MODEL 5
REMARK VINA RESULT:      -7.4      1.942      2.336
REMARK  Name = 
REMARK  3 active torsions:
REMARK  status: ('A' for Active; 'I' for Inactive)
REMARK    1  A    between atoms: C_1  and  N_2
REMARK    2  A    between atoms: C_9  and  N_10
REMARK    3  A    between atoms: N_10  and  C_11
REMARK                            x       y       z     vdW  Elec       q    Type
REMARK                         _______ _______ _______ _____ _____    ______ ____
ROOT
ATOM      1  C   UNL     1       5.343   6.640  15.532  0.00  0.00    +0.000 C 
ATOM      2  N   UNL     1       6.043   6.211  16.727  0.00  0.00    +0.000 N 
ATOM      3  C   UNL     1       6.989   7.038  17.300  0.00  0.00    +0.000 C 
ATOM      4  O   UNL     1       7.293   8.145  16.859  0.00  0.00    +0.000 OA
ATOM      5  N   UNL     1       7.610   6.573  18.425  0.00  0.00    +0.000 N 
ATOM      6  C   UNL     1       7.215   5.515  19.194  0.00  0.00    +0.000 C 
ATOM      7  O   UNL     1       7.661   5.329  20.321  0.00  0.00    +0.000 OA
ATOM      8  C   UNL     1       6.185   4.671  18.570  0.00  0.00    +0.000 C 
ATOM      9  C   UNL     1       5.542   3.741  19.298  0.00  0.00    +0.000 C 
ATOM     10  C   UNL     1       5.753   4.939  17.183  0.00  0.00    +0.000 C 
ATOM     11  O   UNL     1       5.135   4.106  16.520  0.00  0.00    +0.000 OA
ATOM     12  H   UNL     1       8.267   7.205  18.852  0.00  0.00    +0.000 HD
ENDROOT
BRANCH   9  13
ATOM     13  N   UNL     1       4.484   2.962  18.893  0.00  0.00    +0.000 N 
ATOM     14  H   UNL     1       4.707   2.236  18.207  0.00  0.00    +0.000 HD
BRANCH  13  15
ATOM     15  C   UNL     1       3.146   3.000  19.308  0.00  0.00    +0.000 A 
ATOM     16  C   UNL     1       2.173   2.417  18.482  0.00  0.00    +0.000 A 
ATOM     17  C   UNL     1       0.816   2.476  18.810  0.00  0.00    +0.000 A 
ATOM     18  C   UNL     1       0.415   3.123  19.975  0.00  0.00    +0.000 A 
ATOM     19  C   UNL     1       1.365   3.720  20.799  0.00  0.00    +0.000 A 
ATOM     20  C   UNL     1       2.719   3.672  20.457  0.00  0.00    +0.000 A 
ENDBRANCH  13  15
ENDBRANCH   9  13
TORSDOF 2
ENDMDL
MODEL 6
REMARK VINA RESULT:      -7.3      1.446      1.706
REMARK  Name = 
REMARK  3 active torsions:
REMARK  status: ('A' for Active; 'I' for Inactive)
REMARK    1  A    between atoms: C_1  and  N_2
REMARK    2  A    between atoms: C_9  and  N_10
REMARK    3  A    between atoms: N_10  and  C_11
REMARK                            x       y       z     vdW  Elec       q    Type
REMARK                         _______ _______ _______ _____ _____    ______ ____
ROOT
ATOM      1  C   UNL     1       5.052   4.726  14.546  0.00  0.00    +0.000 C 
ATOM      2  N   UNL     1       5.835   4.666  15.765  0.00  0.00    +0.000 N 
ATOM      3  C   UNL     1       7.214   4.690  15.694  0.00  0.00    +0.000 C 
ATOM      4  O   UNL     1       7.848   4.758  14.643  0.00  0.00    +0.000 OA
ATOM      5  N   UNL     1       7.891   4.634  16.880  0.00  0.00    +0.000 N 
ATOM      6  C   UNL     1       7.365   4.827  18.126  0.00  0.00    +0.000 C 
ATOM      7  O   UNL     1       8.075   5.025  19.107  0.00  0.00    +0.000 OA
ATOM      8  C   UNL     1       5.895   4.827  18.164  0.00  0.00    +0.000 C 
ATOM      9  C   UNL     1       5.249   5.235  19.271  0.00  0.00    +0.000 C 
ATOM     10  C   UNL     1       5.126   4.520  16.941  0.00  0.00    +0.000 C 
ATOM     11  O   UNL     1       3.934   4.215  16.980  0.00  0.00    +0.000 OA
ATOM     12  H   UNL     1       8.893   4.692  16.813  0.00  0.00    +0.000 HD
ENDROOT
BRANCH   9  13
ATOM     13  N   UNL     1       3.892   5.402  19.420  0.00  0.00    +0.000 N 
ATOM     14  H   UNL     1       3.507   6.262  19.019  0.00  0.00    +0.000 HD
BRANCH  13  15
ATOM     15  C   UNL     1       2.954   4.550  20.017  0.00  0.00    +0.000 A 
ATOM     16  C   UNL     1       3.416   3.552  20.889  0.00  0.00    +0.000 A 
ATOM     17  C   UNL     1       2.537   2.634  21.467  0.00  0.00    +0.000 A 
ATOM     18  C   UNL     1       1.178   2.701  21.177  0.00  0.00    +0.000 A 
ATOM     19  C   UNL     1       0.703   3.674  20.302  0.00  0.00    +0.000 A 
ATOM     20  C   UNL     1       1.590   4.581  19.715  0.00  0.00    +0.000 A 
ENDBRANCH  13  15
ENDBRANCH   9  13
TORSDOF 2
ENDMDL
MODEL 7
REMARK VINA RESULT:      -7.2      1.799      2.830
REMARK  Name = 
REMARK  3 active torsions:
REMARK  status: ('A' for Active; 'I' for Inactive)
REMARK    1  A    between atoms: C_1  and  N_2
REMARK    2  A    between atoms: C_9  and  N_10
REMARK    3  A    between atoms: N_10  and  C_11
REMARK                            x       y       z     vdW  Elec       q    Type
REMARK                         _______ _______ _______ _____ _____    ______ ____
ROOT
ATOM      1  C   UNL     1       7.732   6.131  19.107  0.00  0.00    +0.000 C 
ATOM      2  N   UNL     1       6.864   5.809  17.992  0.00  0.00    +0.000 N 
ATOM      3  C   UNL     1       7.120   6.352  16.748  0.00  0.00    +0.000 C 
ATOM      4  O   UNL     1       8.055   7.112  16.508  0.00  0.00    +0.000 OA
ATOM      5  N   UNL     1       6.264   6.006  15.740  0.00  0.00    +0.000 N 
ATOM      6  C   UNL     1       5.356   4.985  15.758  0.00  0.00    +0.000 C 
ATOM      7  O   UNL     1       4.822   4.573  14.734  0.00  0.00    +0.000 OA
ATOM      8  C   UNL     1       5.128   4.408  17.091  0.00  0.00    +0.000 C 
ATOM      9  C   UNL     1       4.444   3.257  17.220  0.00  0.00    +0.000 C 
ATOM     10  C   UNL     1       5.772   5.012  18.276  0.00  0.00    +0.000 C 
ATOM     11  O   UNL     1       5.390   4.768  19.420  0.00  0.00    +0.000 OA
ATOM     12  H   UNL     1       6.487   6.378  14.832  0.00  0.00    +0.000 HD
ENDROOT
BRANCH   9  13
ATOM     13  N   UNL     1       4.252   2.537  18.376  0.00  0.00    +0.000 N 
ATOM     14  H   UNL     1       4.988   1.863  18.605  0.00  0.00    +0.000 HD
BRANCH  13  15
ATOM     15  C   UNL     1       3.205   2.614  19.304  0.00  0.00    +0.000 A 
ATOM     16  C   UNL     1       1.906   2.851  18.829  0.00  0.00    +0.000 A 
ATOM     17  C   UNL     1       0.831   2.999  19.708  0.00  0.00    +0.000 A 
ATOM     18  C   UNL     1       1.043   2.913  21.081  0.00  0.00    +0.000 A 
ATOM     19  C   UNL     1       2.328   2.695  21.571  0.00  0.00    +0.000 A 
ATOM     20  C   UNL     1       3.402   2.562  20.687  0.00  0.00    +0.000 A 
ENDBRANCH  13  15
ENDBRANCH   9  13
TORSDOF 2
ENDMDL
MODEL 8
REMARK VINA RESULT:      -7.1      1.780      2.975
REMARK  Name = 
REMARK  3 active torsions:
REMARK  status: ('A' for Active; 'I' for Inactive)
REMARK    1  A    between atoms: C_1  and  N_2
REMARK    2  A    between atoms: C_9  and  N_10
REMARK    3  A    between atoms: N_10  and  C_11
REMARK                            x       y       z     vdW  Elec       q    Type
REMARK                         _______ _______ _______ _____ _____    ______ ____
ROOT
ATOM      1  C   UNL     1       7.691   6.142  19.077  0.00  0.00    +0.000 C 
ATOM      2  N   UNL     1       6.850   5.810  17.944  0.00  0.00    +0.000 N 
ATOM      3  C   UNL     1       7.148   6.324  16.697  0.00  0.00    +0.000 C 
ATOM      4  O   UNL     1       8.101   7.066  16.468  0.00  0.00    +0.000 OA
ATOM      5  N   UNL     1       6.315   5.969  15.672  0.00  0.00    +0.000 N 
ATOM      6  C   UNL     1       5.392   4.962  15.686  0.00  0.00    +0.000 C 
ATOM      7  O   UNL     1       4.881   4.536  14.655  0.00  0.00    +0.000 OA
ATOM      8  C   UNL     1       5.119   4.415  17.023  0.00  0.00    +0.000 C 
ATOM      9  C   UNL     1       4.416   3.276  17.155  0.00  0.00    +0.000 C 
ATOM     10  C   UNL     1       5.739   5.034  18.213  0.00  0.00    +0.000 C 
ATOM     11  O   UNL     1       5.322   4.818  19.351  0.00  0.00    +0.000 OA
ATOM     12  H   UNL     1       6.569   6.320  14.764  0.00  0.00    +0.000 HD
ENDROOT
BRANCH   9  13
ATOM     13  N   UNL     1       4.181   2.583  18.319  0.00  0.00    +0.000 N 
ATOM     14  H   UNL     1       4.875   1.868  18.555  0.00  0.00    +0.000 HD
BRANCH  13  15
ATOM     15  C   UNL     1       3.142   2.735  19.247  0.00  0.00    +0.000 A 
ATOM     16  C   UNL     1       3.428   2.549  20.608  0.00  0.00    +0.000 A 
ATOM     17  C   UNL     1       2.423   2.627  21.575  0.00  0.00    +0.000 A 
ATOM     18  C   UNL     1       1.113   2.891  21.191  0.00  0.00    +0.000 A 
ATOM     19  C   UNL     1       0.807   3.062  19.843  0.00  0.00    +0.000 A 
ATOM     20  C   UNL     1       1.814   2.968  18.878  0.00  0.00    +0.000 A 
ENDBRANCH  13  15
ENDBRANCH   9  13
TORSDOF 2
ENDMDL
MODEL 9
REMARK VINA RESULT:      -6.9      3.258      4.306
REMARK  Name = 
REMARK  3 active torsions:
REMARK  status: ('A' for Active; 'I' for Inactive)
REMARK    1  A    between atoms: C_1  and  N_2
REMARK    2  A    between atoms: C_9  and  N_10
REMARK    3  A    between atoms: N_10  and  C_11
REMARK                            x       y       z     vdW  Elec       q    Type
REMARK                         _______ _______ _______ _____ _____    ______ ____
ROOT
ATOM      1  C   UNL     1       7.243   6.799  17.046  0.00  0.00    +0.000 C 
ATOM      2  N   UNL     1       6.322   5.856  17.649  0.00  0.00    +0.000 N 
ATOM      3  C   UNL     1       6.805   4.685  18.200  0.00  0.00    +0.000 C 
ATOM      4  O   UNL     1       7.993   4.372  18.218  0.00  0.00    +0.000 OA
ATOM      5  N   UNL     1       5.883   3.842  18.754  0.00  0.00    +0.000 N 
ATOM      6  C   UNL     1       4.586   4.143  19.062  0.00  0.00    +0.000 C 
ATOM      7  O   UNL     1       3.910   3.428  19.794  0.00  0.00    +0.000 OA
ATOM      8  C   UNL     1       4.111   5.411  18.486  0.00  0.00    +0.000 C 
ATOM      9  C   UNL     1       2.945   5.942  18.895  0.00  0.00    +0.000 C 
ATOM     10  C   UNL     1       4.980   6.174  17.567  0.00  0.00    +0.000 C 
ATOM     11  O   UNL     1       4.536   7.060  16.837  0.00  0.00    +0.000 OA
ATOM     12  H   UNL     1       6.255   3.013  19.186  0.00  0.00    +0.000 HD
ENDROOT
BRANCH   9  13
ATOM     13  N   UNL     1       2.427   7.166  18.541  0.00  0.00    +0.000 N 
ATOM     14  H   UNL     1       2.470   7.392  17.544  0.00  0.00    +0.000 HD
BRANCH  13  15
ATOM     15  C   UNL     1       1.820   8.137  19.348  0.00  0.00    +0.000 A 
ATOM     16  C   UNL     1       1.621   7.850  20.707  0.00  0.00    +0.000 A 
ATOM     17  C   UNL     1       0.967   8.753  21.548  0.00  0.00    +0.000 A 
ATOM     18  C   UNL     1       0.500   9.960  21.038  0.00  0.00    +0.000 A 
ATOM     19  C   UNL     1       0.674  10.255  19.688  0.00  0.00    +0.000 A 
ATOM     20  C   UNL     1       1.316   9.341  18.847  0.00  0.00    +0.000 A 
ENDBRANCH  13  15
ENDBRANCH   9  13
TORSDOF 2
ENDMDL
