MODEL 1
REMARK VINA RESULT:      -7.5      0.000      0.000
REMARK  Name = 
REMARK  9 active torsions:
REMARK  status: ('A' for Active; 'I' for Inactive)
REMARK    1  A    between atoms: C_1  and  C_2
REMARK    2  A    between atoms: C_2  and  O_3
REMARK    3  A    between atoms: O_3  and  C_4
REMARK    4  A    between atoms: C_9  and  C_10
REMARK    5  A    between atoms: C_10  and  N_11
REMARK    6  A    between atoms: N_11  and  C_12
REMARK    7  A    between atoms: N_16  and  C_17
REMARK    8  A    between atoms: C_17  and  C_18
REMARK    9  A    between atoms: C_21  and  C_22
REMARK                            x       y       z     vdW  Elec       q    Type
REMARK                         _______ _______ _______ _____ _____    ______ ____
ROOT
ATOM      1  C   UNL     1       1.387   4.323  19.668  0.00  0.00    +0.000 C 
ATOM      2  C   UNL     1       1.497   3.015  20.479  0.00  0.00    +0.000 C 
ATOM      3  C   UNL     1       2.943   2.566  20.665  0.00  0.00    +0.000 C 
ATOM      4  C   UNL     1       3.663   2.464  19.324  0.00  0.00    +0.000 C 
ATOM      5  N   UNL     1       3.650   3.753  18.609  0.00  0.00    +0.000 NA
ATOM      6  C   UNL     1       2.254   4.197  18.379  0.00  0.00    +0.000 C 
ENDROOT
BRANCH   1   7
ATOM      7  N   UNL     1       1.716   5.450  20.564  0.00  0.00    +0.000 NA
ATOM      8  H   UNL     1       2.129   5.061  21.413  0.00  0.00    +0.000 HD
BRANCH   7   9
ATOM      9  C   UNL     1       2.679   6.422  20.017  0.00  0.00    +0.000 C 
BRANCH   9  15
ATOM     10  C   UNL     1       1.338   8.583  20.274  0.00  0.00    +0.000 A 
ATOM     11  C   UNL     1       0.847   9.784  19.740  0.00  0.00    +0.000 A 
ATOM     12  C   UNL     1       0.995  10.068  18.384  0.00  0.00    +0.000 A 
ATOM     13  C   UNL     1       1.652   9.165  17.556  0.00  0.00    +0.000 A 
ATOM     14  C   UNL     1       2.204   7.999  18.095  0.00  0.00    +0.000 A 
ATOM     15  C   UNL     1       2.082   7.704  19.465  0.00  0.00    +0.000 A 
BRANCH  10  16
ATOM     16  O   UNL     1       1.125   8.208  21.577  0.00  0.00    +0.000 OA
BRANCH  16  18
ATOM     17  C   UNL     1      -0.225   9.454  23.116  0.00  0.00    +0.000 C 
ATOM     18  C   UNL     1       1.165   9.270  22.535  0.00  0.00    +0.000 C 
ENDBRANCH  16  18
ENDBRANCH  10  16
ENDBRANCH   9  15
ENDBRANCH   7   9
ENDBRANCH   1   7
BRANCH   5  19
ATOM     19  C   UNL     1       4.337   3.635  17.291  0.00  0.00    +0.000 C 
BRANCH  19  20
ATOM     20  C   UNL     1       5.600   4.443  17.219  0.00  0.00    +0.000 A 
ATOM     21  N   UNL     1       6.441   4.405  16.174  0.00  0.00    +0.000 NA
ATOM     22  O   UNL     1       7.415   5.347  16.511  0.00  0.00    +0.000 OA
ATOM     23  C   UNL     1       7.070   5.841  17.735  0.00  0.00    +0.000 A 
ATOM     24  C   UNL     1       7.912   6.919  18.285  0.00  0.00    +0.000 C 
ATOM     25  N   UNL     1       5.986   5.295  18.233  0.00  0.00    +0.000 NA
ENDBRANCH  19  20
ENDBRANCH   5  19
TORSDOF 7
ENDMDL
MODEL 2
REMARK VINA RESULT:      -7.1      1.706      2.895
REMARK  Name = 
REMARK  9 active torsions:
REMARK  status: ('A' for Active; 'I' for Inactive)
REMARK    1  A    between atoms: C_1  and  C_2
REMARK    2  A    between atoms: C_2  and  O_3
REMARK    3  A    between atoms: O_3  and  C_4
REMARK    4  A    between atoms: C_9  and  C_10
REMARK    5  A    between atoms: C_10  and  N_11
REMARK    6  A    between atoms: N_11  and  C_12
REMARK    7  A    between atoms: N_16  and  C_17
REMARK    8  A    between atoms: C_17  and  C_18
REMARK    9  A    between atoms: C_21  and  C_22
REMARK                            x       y       z     vdW  Elec       q    Type
REMARK                         _______ _______ _______ _____ _____    ______ ____
ROOT
ATOM      1  C   UNL     1       2.615   5.922  18.219  0.00  0.00    +0.000 C 
ATOM      2  C   UNL     1       1.896   4.632  18.665  0.00  0.00    +0.000 C 
ATOM      3  C   UNL     1       2.754   3.780  19.595  0.00  0.00    +0.000 C 
ATOM      4  C   UNL     1       4.114   3.485  18.969  0.00  0.00    +0.000 C 
ATOM      5  N   UNL     1       4.839   4.728  18.652  0.00  0.00    +0.000 NA
ATOM      6  C   UNL     1       4.045   5.562  17.718  0.00  0.00    +0.000 C 
ENDROOT
BRANCH   1   7
ATOM      7  N   UNL     1       2.542   6.898  19.326  0.00  0.00    +0.000 NA
ATOM      8  H   UNL     1       3.496   7.087  19.636  0.00  0.00    +0.000 HD
BRANCH   7   9
ATOM      9  C   UNL     1       1.933   8.194  18.978  0.00  0.00    +0.000 C 
BRANCH   9  15
ATOM     10  C   UNL     1       0.246   9.915  19.828  0.00  0.00    +0.000 A 
ATOM     11  C   UNL     1      -0.483  10.492  20.879  0.00  0.00    +0.000 A 
ATOM     12  C   UNL     1      -0.228  10.128  22.200  0.00  0.00    +0.000 A 
ATOM     13  C   UNL     1       0.741   9.171  22.478  0.00  0.00    +0.000 A 
ATOM     14  C   UNL     1       1.422   8.543  21.431  0.00  0.00    +0.000 A 
ATOM     15  C   UNL     1       1.166   8.883  20.091  0.00  0.00    +0.000 A 
BRANCH  10  16
ATOM     16  O   UNL     1       0.109  10.315  18.522  0.00  0.00    +0.000 OA
BRANCH  16  18
ATOM     17  C   UNL     1      -1.826   9.919  17.165  0.00  0.00    +0.000 C 
ATOM     18  C   UNL     1      -1.174  10.846  18.174  0.00  0.00    +0.000 C 
ENDBRANCH  16  18
ENDBRANCH  10  16
ENDBRANCH   9  15
ENDBRANCH   7   9
ENDBRANCH   1   7
BRANCH   5  19
ATOM     19  C   UNL     1       6.157   4.427  18.021  0.00  0.00    +0.000 C 
BRANCH  19  20
ATOM     20  C   UNL     1       6.904   5.663  17.615  0.00  0.00    +0.000 A 
ATOM     21  N   UNL     1       7.285   5.912  16.352  0.00  0.00    +0.000 NA
ATOM     22  O   UNL     1       7.872   7.177  16.438  0.00  0.00    +0.000 OA
ATOM     23  C   UNL     1       7.801   7.550  17.748  0.00  0.00    +0.000 A 
ATOM     24  C   UNL     1       8.293   8.896  18.089  0.00  0.00    +0.000 C 
ATOM     25  N   UNL     1       7.250   6.644  18.521  0.00  0.00    +0.000 NA
ENDBRANCH  19  20
ENDBRANCH   5  19
TORSDOF 7
ENDMDL
MODEL 3
REMARK VINA RESULT:      -7.0      1.231      1.520
REMARK  Name = 
REMARK  9 active torsions:
REMARK  status: ('A' for Active; 'I' for Inactive)
REMARK    1  A    between atoms: C_1  and  C_2
REMARK    2  A    between atoms: C_2  and  O_3
REMARK    3  A    between atoms: O_3  and  C_4
REMARK    4  A    between atoms: C_9  and  C_10
REMARK    5  A    between atoms: C_10  and  N_11
REMARK    6  A    between atoms: N_11  and  C_12
REMARK    7  A    between atoms: N_16  and  C_17
REMARK    8  A    between atoms: C_17  and  C_18
REMARK    9  A    between atoms: C_21  and  C_22
REMARK                            x       y       z     vdW  Elec       q    Type
REMARK                         _______ _______ _______ _____ _____    ______ ____
ROOT
ATOM      1  C   UNL     1       1.243   4.252  19.832  0.00  0.00    +0.000 C 
ATOM      2  C   UNL     1       0.932   3.151  20.867  0.00  0.00    +0.000 C 
ATOM      3  C   UNL     1       2.157   2.764  21.689  0.00  0.00    +0.000 C 
ATOM      4  C   UNL     1       3.325   2.380  20.786  0.00  0.00    +0.000 C 
ATOM      5  N   UNL     1       3.686   3.484  19.879  0.00  0.00    +0.000 NA
ATOM      6  C   UNL     1       2.524   3.858  19.038  0.00  0.00    +0.000 C 
ENDROOT
BRANCH   1   7
ATOM      7  N   UNL     1       1.289   5.549  20.537  0.00  0.00    +0.000 NA
ATOM      8  H   UNL     1       1.400   5.356  21.534  0.00  0.00    +0.000 HD
BRANCH   7   9
ATOM      9  C   UNL     1       2.397   6.436  20.140  0.00  0.00    +0.000 C 
BRANCH   9  15
ATOM     10  C   UNL     1       1.288   8.732  20.308  0.00  0.00    +0.000 A 
ATOM     11  C   UNL     1       0.977   9.980  19.745  0.00  0.00    +0.000 A 
ATOM     12  C   UNL     1       1.264  10.245  18.408  0.00  0.00    +0.000 A 
ATOM     13  C   UNL     1       1.882   9.273  17.628  0.00  0.00    +0.000 A 
ATOM     14  C   UNL     1       2.256   8.054  18.200  0.00  0.00    +0.000 A 
ATOM     15  C   UNL     1       1.992   7.775  19.553  0.00  0.00    +0.000 A 
BRANCH  10  16
ATOM     16  O   UNL     1       0.930   8.384  21.586  0.00  0.00    +0.000 OA
BRANCH  16  18
ATOM     17  C   UNL     1      -0.246   9.594  23.287  0.00  0.00    +0.000 C 
ATOM     18  C   UNL     1      -0.374   8.809  21.995  0.00  0.00    +0.000 C 
ENDBRANCH  16  18
ENDBRANCH  10  16
ENDBRANCH   9  15
ENDBRANCH   7   9
ENDBRANCH   1   7
BRANCH   5  19
ATOM     19  C   UNL     1       4.815   3.090  18.988  0.00  0.00    +0.000 C 
BRANCH  19  20
ATOM     20  C   UNL     1       5.138   4.135  17.961  0.00  0.00    +0.000 A 
ATOM     21  N   UNL     1       5.486   5.393  18.272  0.00  0.00    +0.000 NA
ATOM     22  O   UNL     1       5.753   5.970  17.029  0.00  0.00    +0.000 OA
ATOM     23  C   UNL     1       5.519   5.004  16.095  0.00  0.00    +0.000 A 
ATOM     24  C   UNL     1       5.804   5.347  14.690  0.00  0.00    +0.000 C 
ATOM     25  N   UNL     1       5.104   3.870  16.607  0.00  0.00    +0.000 NA
ENDBRANCH  19  20
ENDBRANCH   5  19
TORSDOF 7
ENDMDL
MODEL 4
REMARK VINA RESULT:      -6.9      1.686      2.866
REMARK  Name = 
REMARK  9 active torsions:
REMARK  status: ('A' for Active; 'I' for Inactive)
REMARK    1  A    between atoms: C_1  and  C_2
REMARK    2  A    between atoms: C_2  and  O_3
REMARK    3  A    between atoms: O_3  and  C_4
REMARK    4  A    between atoms: C_9  and  C_10
REMARK    5  A    between atoms: C_10  and  N_11
REMARK    6  A    between atoms: N_11  and  C_12
REMARK    7  A    between atoms: N_16  and  C_17
REMARK    8  A    between atoms: C_17  and  C_18
REMARK    9  A    between atoms: C_21  and  C_22
REMARK                            x       y       z     vdW  Elec       q    Type
REMARK                         _______ _______ _______ _____ _____    ______ ____
ROOT
ATOM      1  C   UNL     1       2.560   5.888  18.105  0.00  0.00    +0.000 C 
ATOM      2  C   UNL     1       1.817   4.596  18.505  0.00  0.00    +0.000 C 
ATOM      3  C   UNL     1       2.651   3.705  19.420  0.00  0.00    +0.000 C 
ATOM      4  C   UNL     1       4.014   3.407  18.801  0.00  0.00    +0.000 C 
ATOM      5  N   UNL     1       4.761   4.648  18.529  0.00  0.00    +0.000 NA
ATOM      6  C   UNL     1       3.991   5.520  17.610  0.00  0.00    +0.000 C 
ENDROOT
BRANCH   1   7
ATOM      7  N   UNL     1       2.488   6.832  19.238  0.00  0.00    +0.000 NA
ATOM      8  H   UNL     1       3.431   6.936  19.615  0.00  0.00    +0.000 HD
BRANCH   7   9
ATOM      9  C   UNL     1       2.004   8.182  18.897  0.00  0.00    +0.000 C 
BRANCH   9  15
ATOM     10  C   UNL     1       0.842  10.251  19.844  0.00  0.00    +0.000 A 
ATOM     11  C   UNL     1       0.139  10.889  20.878  0.00  0.00    +0.000 A 
ATOM     12  C   UNL     1      -0.027  10.263  22.111  0.00  0.00    +0.000 A 
ATOM     13  C   UNL     1       0.488   8.988  22.314  0.00  0.00    +0.000 A 
ATOM     14  C   UNL     1       1.128   8.320  21.267  0.00  0.00    +0.000 A 
ATOM     15  C   UNL     1       1.290   8.928  20.009  0.00  0.00    +0.000 A 
BRANCH  10  16
ATOM     16  O   UNL     1       1.126  10.866  18.650  0.00  0.00    +0.000 OA
BRANCH  16  18
ATOM     17  C   UNL     1       2.505  12.780  18.231  0.00  0.00    +0.000 C 
ATOM     18  C   UNL     1       1.140  12.296  18.684  0.00  0.00    +0.000 C 
ENDBRANCH  16  18
ENDBRANCH  10  16
ENDBRANCH   9  15
ENDBRANCH   7   9
ENDBRANCH   1   7
BRANCH   5  19
ATOM     19  C   UNL     1       6.081   4.345  17.905  0.00  0.00    +0.000 C 
BRANCH  19  20
ATOM     20  C   UNL     1       6.847   5.580  17.534  0.00  0.00    +0.000 A 
ATOM     21  N   UNL     1       7.263   5.842  16.285  0.00  0.00    +0.000 NA
ATOM     22  O   UNL     1       7.857   7.101  16.402  0.00  0.00    +0.000 OA
ATOM     23  C   UNL     1       7.753   7.459  17.714  0.00  0.00    +0.000 A 
ATOM     24  C   UNL     1       8.245   8.798  18.085  0.00  0.00    +0.000 C 
ATOM     25  N   UNL     1       7.176   6.548  18.461  0.00  0.00    +0.000 NA
ENDBRANCH  19  20
ENDBRANCH   5  19
TORSDOF 7
ENDMDL
MODEL 5
REMARK VINA RESULT:      -6.9      1.394      2.712
REMARK  Name = 
REMARK  9 active torsions:
REMARK  status: ('A' for Active; 'I' for Inactive)
REMARK    1  A    between atoms: C_1  and  C_2
REMARK    2  A    between atoms: C_2  and  O_3
REMARK    3  A    between atoms: O_3  and  C_4
REMARK    4  A    between atoms: C_9  and  C_10
REMARK    5  A    between atoms: C_10  and  N_11
REMARK    6  A    between atoms: N_11  and  C_12
REMARK    7  A    between atoms: N_16  and  C_17
REMARK    8  A    between atoms: C_17  and  C_18
REMARK    9  A    between atoms: C_21  and  C_22
REMARK                            x       y       z     vdW  Elec       q    Type
REMARK                         _______ _______ _______ _____ _____    ______ ____
ROOT
ATOM      1  C   UNL     1       1.462   5.674  19.797  0.00  0.00    +0.000 C 
ATOM      2  C   UNL     1       1.326   4.415  20.679  0.00  0.00    +0.000 C 
ATOM      3  C   UNL     1       2.669   3.738  20.937  0.00  0.00    +0.000 C 
ATOM      4  C   UNL     1       3.392   3.438  19.627  0.00  0.00    +0.000 C 
ATOM      5  N   UNL     1       3.617   4.668  18.846  0.00  0.00    +0.000 NA
ATOM      6  C   UNL     1       2.325   5.329  18.546  0.00  0.00    +0.000 C 
ENDROOT
BRANCH   1   7
ATOM      7  N   UNL     1       1.958   6.779  20.643  0.00  0.00    +0.000 NA
ATOM      8  H   UNL     1       2.971   6.676  20.725  0.00  0.00    +0.000 HD
BRANCH   7   9
ATOM      9  C   UNL     1       1.699   8.131  20.119  0.00  0.00    +0.000 C 
BRANCH   9  15
ATOM     10  C   UNL     1       0.346  10.256  20.547  0.00  0.00    +0.000 A 
ATOM     11  C   UNL     1      -0.453  11.044  21.391  0.00  0.00    +0.000 A 
ATOM     12  C   UNL     1      -0.638  10.688  22.725  0.00  0.00    +0.000 A 
ATOM     13  C   UNL     1      -0.045   9.533  23.221  0.00  0.00    +0.000 A 
ATOM     14  C   UNL     1       0.694   8.708  22.369  0.00  0.00    +0.000 A 
ATOM     15  C   UNL     1       0.877   9.040  21.015  0.00  0.00    +0.000 A 
BRANCH  10  16
ATOM     16  O   UNL     1       0.647  10.619  19.258  0.00  0.00    +0.000 OA
BRANCH  16  18
ATOM     17  C   UNL     1      -1.171  10.048  17.805  0.00  0.00    +0.000 C 
ATOM     18  C   UNL     1      -0.438  11.175  18.508  0.00  0.00    +0.000 C 
ENDBRANCH  16  18
ENDBRANCH  10  16
ENDBRANCH   9  15
ENDBRANCH   7   9
ENDBRANCH   1   7
BRANCH   5  19
ATOM     19  C   UNL     1       4.306   4.359  17.559  0.00  0.00    +0.000 C 
BRANCH  19  20
ATOM     20  C   UNL     1       5.614   5.078  17.413  0.00  0.00    +0.000 A 
ATOM     21  N   UNL     1       6.695   4.531  16.833  0.00  0.00    +0.000 NA
ATOM     22  O   UNL     1       7.632   5.566  16.860  0.00  0.00    +0.000 OA
ATOM     23  C   UNL     1       7.024   6.624  17.471  0.00  0.00    +0.000 A 
ATOM     24  C   UNL     1       7.791   7.880  17.557  0.00  0.00    +0.000 C 
ATOM     25  N   UNL     1       5.799   6.368  17.864  0.00  0.00    +0.000 NA
ENDBRANCH  19  20
ENDBRANCH   5  19
TORSDOF 7
ENDMDL
MODEL 6
REMARK VINA RESULT:      -6.9      3.116      5.670
REMARK  Name = 
REMARK  9 active torsions:
REMARK  status: ('A' for Active; 'I' for Inactive)
REMARK    1  A    between atoms: C_1  and  C_2
REMARK    2  A    between atoms: C_2  and  O_3
REMARK    3  A    between atoms: O_3  and  C_4
REMARK    4  A    between atoms: C_9  and  C_10
REMARK    5  A    between atoms: C_10  and  N_11
REMARK    6  A    between atoms: N_11  and  C_12
REMARK    7  A    between atoms: N_16  and  C_17
REMARK    8  A    between atoms: C_17  and  C_18
REMARK    9  A    between atoms: C_21  and  C_22
REMARK                            x       y       z     vdW  Elec       q    Type
REMARK                         _______ _______ _______ _____ _____    ______ ____
ROOT
ATOM      1  C   UNL     1       6.764   4.954  17.616  0.00  0.00    +0.000 C 
ATOM      2  C   UNL     1       5.810   6.167  17.592  0.00  0.00    +0.000 C 
ATOM      3  C   UNL     1       4.795   6.086  16.457  0.00  0.00    +0.000 C 
ATOM      4  C   UNL     1       5.490   5.884  15.113  0.00  0.00    +0.000 C 
ATOM      5  N   UNL     1       6.308   4.659  15.113  0.00  0.00    +0.000 NA
ATOM      6  C   UNL     1       7.332   4.724  16.183  0.00  0.00    +0.000 C 
ENDROOT
BRANCH   1   7
ATOM      7  N   UNL     1       6.045   3.814  18.220  0.00  0.00    +0.000 NA
ATOM      8  H   UNL     1       6.738   3.212  18.668  0.00  0.00    +0.000 HD
BRANCH   7   9
ATOM      9  C   UNL     1       5.053   4.174  19.248  0.00  0.00    +0.000 C 
BRANCH   9  15
ATOM     10  C   UNL     1       2.511   4.409  19.129  0.00  0.00    +0.000 A 
ATOM     11  C   UNL     1       1.245   3.853  18.889  0.00  0.00    +0.000 A 
ATOM     12  C   UNL     1       1.102   2.483  18.681  0.00  0.00    +0.000 A 
ATOM     13  C   UNL     1       2.224   1.662  18.689  0.00  0.00    +0.000 A 
ATOM     14  C   UNL     1       3.494   2.219  18.859  0.00  0.00    +0.000 A 
ATOM     15  C   UNL     1       3.661   3.602  19.052  0.00  0.00    +0.000 A 
BRANCH  10  16
ATOM     16  O   UNL     1       2.692   5.732  19.445  0.00  0.00    +0.000 OA
BRANCH  16  18
ATOM     17  C   UNL     1       1.811   7.751  20.389  0.00  0.00    +0.000 C 
ATOM     18  C   UNL     1       1.846   6.237  20.483  0.00  0.00    +0.000 C 
ENDBRANCH  16  18
ENDBRANCH  10  16
ENDBRANCH   9  15
ENDBRANCH   7   9
ENDBRANCH   1   7
BRANCH   5  19
ATOM     19  C   UNL     1       6.999   4.483  13.802  0.00  0.00    +0.000 C 
BRANCH  19  20
ATOM     20  C   UNL     1       6.181   3.707  12.812  0.00  0.00    +0.000 A 
ATOM     21  N   UNL     1       6.574   2.535  12.290  0.00  0.00    +0.000 NA
ATOM     22  O   UNL     1       5.491   2.160  11.492  0.00  0.00    +0.000 OA
ATOM     23  C   UNL     1       4.565   3.155  11.602  0.00  0.00    +0.000 A 
ATOM     24  C   UNL     1       3.283   2.958  10.903  0.00  0.00    +0.000 C 
ATOM     25  N   UNL     1       4.951   4.147  12.369  0.00  0.00    +0.000 NA
ENDBRANCH  19  20
ENDBRANCH   5  19
TORSDOF 7
ENDMDL
MODEL 7
REMARK VINA RESULT:      -6.9      3.199      5.634
REMARK  Name = 
REMARK  9 active torsions:
REMARK  status: ('A' for Active; 'I' for Inactive)
REMARK    1  A    between atoms: C_1  and  C_2
REMARK    2  A    between atoms: C_2  and  O_3
REMARK    3  A    between atoms: O_3  and  C_4
REMARK    4  A    between atoms: C_9  and  C_10
REMARK    5  A    between atoms: C_10  and  N_11
REMARK    6  A    between atoms: N_11  and  C_12
REMARK    7  A    between atoms: N_16  and  C_17
REMARK    8  A    between atoms: C_17  and  C_18
REMARK    9  A    between atoms: C_21  and  C_22
REMARK                            x       y       z     vdW  Elec       q    Type
REMARK                         _______ _______ _______ _____ _____    ______ ____
ROOT
ATOM      1  C   UNL     1       4.881   3.724  16.936  0.00  0.00    +0.000 C 
ATOM      2  C   UNL     1       5.565   4.841  17.752  0.00  0.00    +0.000 C 
ATOM      3  C   UNL     1       5.895   6.063  16.901  0.00  0.00    +0.000 C 
ATOM      4  C   UNL     1       6.716   5.672  15.675  0.00  0.00    +0.000 C 
ATOM      5  N   UNL     1       6.001   4.688  14.844  0.00  0.00    +0.000 NA
ATOM      6  C   UNL     1       5.699   3.471  15.634  0.00  0.00    +0.000 C 
ENDROOT
BRANCH   1   7
ATOM      7  N   UNL     1       3.462   4.090  16.751  0.00  0.00    +0.000 NA
ATOM      8  H   UNL     1       3.261   4.053  15.751  0.00  0.00    +0.000 HD
BRANCH   7   9
ATOM      9  C   UNL     1       2.496   3.203  17.423  0.00  0.00    +0.000 C 
BRANCH   9  15
ATOM     10  C   UNL     1       2.083   4.711  19.443  0.00  0.00    +0.000 A 
ATOM     11  C   UNL     1       1.870   4.873  20.821  0.00  0.00    +0.000 A 
ATOM     12  C   UNL     1       1.995   3.789  21.688  0.00  0.00    +0.000 A 
ATOM     13  C   UNL     1       2.312   2.533  21.183  0.00  0.00    +0.000 A 
ATOM     14  C   UNL     1       2.457   2.352  19.805  0.00  0.00    +0.000 A 
ATOM     15  C   UNL     1       2.317   3.429  18.913  0.00  0.00    +0.000 A 
BRANCH  10  16
ATOM     16  O   UNL     1       2.078   5.764  18.563  0.00  0.00    +0.000 OA
BRANCH  16  18
ATOM     17  C   UNL     1       2.129   8.160  18.531  0.00  0.00    +0.000 C 
ATOM     18  C   UNL     1       2.855   6.898  18.959  0.00  0.00    +0.000 C 
ENDBRANCH  16  18
ENDBRANCH  10  16
ENDBRANCH   9  15
ENDBRANCH   7   9
ENDBRANCH   1   7
BRANCH   5  19
ATOM     19  C   UNL     1       6.821   4.298  13.661  0.00  0.00    +0.000 C 
BRANCH  19  20
ATOM     20  C   UNL     1       6.029   3.564  12.619  0.00  0.00    +0.000 A 
ATOM     21  N   UNL     1       6.403   2.382  12.106  0.00  0.00    +0.000 NA
ATOM     22  O   UNL     1       5.352   2.058  11.246  0.00  0.00    +0.000 OA
ATOM     23  C   UNL     1       4.461   3.089  11.316  0.00  0.00    +0.000 A 
ATOM     24  C   UNL     1       3.213   2.951  10.545  0.00  0.00    +0.000 C 
ATOM     25  N   UNL     1       4.844   4.057  12.114  0.00  0.00    +0.000 NA
ENDBRANCH  19  20
ENDBRANCH   5  19
TORSDOF 7
ENDMDL
MODEL 8
REMARK VINA RESULT:      -6.8      1.981      3.310
REMARK  Name = 
REMARK  9 active torsions:
REMARK  status: ('A' for Active; 'I' for Inactive)
REMARK    1  A    between atoms: C_1  and  C_2
REMARK    2  A    between atoms: C_2  and  O_3
REMARK    3  A    between atoms: O_3  and  C_4
REMARK    4  A    between atoms: C_9  and  C_10
REMARK    5  A    between atoms: C_10  and  N_11
REMARK    6  A    between atoms: N_11  and  C_12
REMARK    7  A    between atoms: N_16  and  C_17
REMARK    8  A    between atoms: C_17  and  C_18
REMARK    9  A    between atoms: C_21  and  C_22
REMARK                            x       y       z     vdW  Elec       q    Type
REMARK                         _______ _______ _______ _____ _____    ______ ____
ROOT
ATOM      1  C   UNL     1       2.844   6.364  18.061  0.00  0.00    +0.000 C 
ATOM      2  C   UNL     1       2.110   5.016  18.223  0.00  0.00    +0.000 C 
ATOM      3  C   UNL     1       2.813   4.087  19.207  0.00  0.00    +0.000 C 
ATOM      4  C   UNL     1       4.279   3.893  18.827  0.00  0.00    +0.000 C 
ATOM      5  N   UNL     1       4.996   5.179  18.787  0.00  0.00    +0.000 NA
ATOM      6  C   UNL     1       4.357   6.093  17.809  0.00  0.00    +0.000 C 
ENDROOT
BRANCH   1   7
ATOM      7  N   UNL     1       2.521   7.209  19.228  0.00  0.00    +0.000 NA
ATOM      8  H   UNL     1       3.397   7.428  19.704  0.00  0.00    +0.000 HD
BRANCH   7   9
ATOM      9  C   UNL     1       1.866   8.490  18.910  0.00  0.00    +0.000 C 
BRANCH   9  15
ATOM     10  C   UNL     1       0.818  10.532  20.033  0.00  0.00    +0.000 A 
ATOM     11  C   UNL     1       0.095  11.105  21.091  0.00  0.00    +0.000 A 
ATOM     12  C   UNL     1      -0.221  10.354  22.221  0.00  0.00    +0.000 A 
ATOM     13  C   UNL     1       0.164   9.020  22.293  0.00  0.00    +0.000 A 
ATOM     14  C   UNL     1       0.824   8.425  21.215  0.00  0.00    +0.000 A 
ATOM     15  C   UNL     1       1.135   9.162  20.058  0.00  0.00    +0.000 A 
BRANCH  10  16
ATOM     16  O   UNL     1       1.247  11.256  18.949  0.00  0.00    +0.000 OA
BRANCH  16  18
ATOM     17  C   UNL     1       2.376  13.230  18.194  0.00  0.00    +0.000 C 
ATOM     18  C   UNL     1       1.344  12.669  19.154  0.00  0.00    +0.000 C 
ENDBRANCH  16  18
ENDBRANCH  10  16
ENDBRANCH   9  15
ENDBRANCH   7   9
ENDBRANCH   1   7
BRANCH   5  19
ATOM     19  C   UNL     1       6.421   4.980  18.395  0.00  0.00    +0.000 C 
BRANCH  19  20
ATOM     20  C   UNL     1       6.631   5.050  16.911  0.00  0.00    +0.000 A 
ATOM     21  N   UNL     1       7.390   5.984  16.317  0.00  0.00    +0.000 NA
ATOM     22  O   UNL     1       7.350   5.622  14.969  0.00  0.00    +0.000 OA
ATOM     23  C   UNL     1       6.555   4.517  14.888  0.00  0.00    +0.000 A 
ATOM     24  C   UNL     1       6.411   3.889  13.562  0.00  0.00    +0.000 C 
ATOM     25  N   UNL     1       6.057   4.144  16.043  0.00  0.00    +0.000 NA
ENDBRANCH  19  20
ENDBRANCH   5  19
TORSDOF 7
ENDMDL
MODEL 9
REMARK VINA RESULT:      -6.8      1.933      6.417
REMARK  Name = 
REMARK  9 active torsions:
REMARK  status: ('A' for Active; 'I' for Inactive)
REMARK    1  A    between atoms: C_1  and  C_2
REMARK    2  A    between atoms: C_2  and  O_3
REMARK    3  A    between atoms: O_3  and  C_4
REMARK    4  A    between atoms: C_9  and  C_10
REMARK    5  A    between atoms: C_10  and  N_11
REMARK    6  A    between atoms: N_11  and  C_12
REMARK    7  A    between atoms: N_16  and  C_17
REMARK    8  A    between atoms: C_17  and  C_18
REMARK    9  A    between atoms: C_21  and  C_22
REMARK                            x       y       z     vdW  Elec       q    Type
REMARK                         _______ _______ _______ _____ _____    ______ ____
ROOT
ATOM      1  C   UNL     1       3.212   2.245  19.120  0.00  0.00    +0.000 C 
ATOM      2  C   UNL     1       1.821   1.586  19.017  0.00  0.00    +0.000 C 
ATOM      3  C   UNL     1       0.712   2.605  18.772  0.00  0.00    +0.000 C 
ATOM      4  C   UNL     1       0.741   3.709  19.825  0.00  0.00    +0.000 C 
ATOM      5  N   UNL     1       2.038   4.406  19.835  0.00  0.00    +0.000 NA
ATOM      6  C   UNL     1       3.135   3.447  20.109  0.00  0.00    +0.000 C 
ENDROOT
BRANCH   1   7
ATOM      7  N   UNL     1       3.678   2.557  17.754  0.00  0.00    +0.000 NA
ATOM      8  H   UNL     1       2.973   2.214  17.100  0.00  0.00    +0.000 HD
BRANCH   7   9
ATOM      9  C   UNL     1       3.871   3.991  17.472  0.00  0.00    +0.000 C 
BRANCH   9  15
ATOM     10  C   UNL     1       6.301   4.416  16.806  0.00  0.00    +0.000 A 
ATOM     11  C   UNL     1       7.558   4.980  17.073  0.00  0.00    +0.000 A 
ATOM     12  C   UNL     1       7.821   5.566  18.309  0.00  0.00    +0.000 A 
ATOM     13  C   UNL     1       6.826   5.613  19.278  0.00  0.00    +0.000 A 
ATOM     14  C   UNL     1       5.551   5.115  18.993  0.00  0.00    +0.000 A 
ATOM     15  C   UNL     1       5.260   4.536  17.745  0.00  0.00    +0.000 A 
BRANCH  10  16
ATOM     16  O   UNL     1       6.025   3.733  15.648  0.00  0.00    +0.000 OA
BRANCH  16  18
ATOM     17  C   UNL     1       6.059   3.604  13.255  0.00  0.00    +0.000 C 
ATOM     18  C   UNL     1       6.000   4.527  14.458  0.00  0.00    +0.000 C 
ENDBRANCH  16  18
ENDBRANCH  10  16
ENDBRANCH   9  15
ENDBRANCH   7   9
ENDBRANCH   1   7
BRANCH   5  19
ATOM     19  C   UNL     1       2.061   5.469  20.882  0.00  0.00    +0.000 C 
BRANCH  19  20
ATOM     20  C   UNL     1       1.819   6.840  20.324  0.00  0.00    +0.000 A 
ATOM     21  N   UNL     1       1.241   7.829  21.024  0.00  0.00    +0.000 NA
ATOM     22  O   UNL     1       1.287   8.913  20.145  0.00  0.00    +0.000 OA
ATOM     23  C   UNL     1       1.871   8.460  18.999  0.00  0.00    +0.000 A 
ATOM     24  C   UNL     1       2.104   9.446  17.929  0.00  0.00    +0.000 C 
ATOM     25  N   UNL     1       2.183   7.187  19.039  0.00  0.00    +0.000 NA
ENDBRANCH  19  20
ENDBRANCH   5  19
TORSDOF 7
ENDMDL
