MODEL 1
REMARK VINA RESULT:     -10.4      0.000      0.000
REMARK  Name = 
REMARK  3 active torsions:
REMARK  status: ('A' for Active; 'I' for Inactive)
REMARK    1  A    between atoms: C_1  and  C_2
REMARK    2  A    between atoms: C_2  and  C_3
REMARK    3  A    between atoms: C_21  and  C_22
REMARK                            x       y       z     vdW  Elec       q    Type
REMARK                         _______ _______ _______ _____ _____    ______ ____
ROOT
ATOM      1  C   UNL     1       1.166   2.865  21.083  0.00  0.00    +0.000 C 
ATOM      2  C   UNL     1       1.984   3.679  20.063  0.00  0.00    +0.000 C 
ATOM      3  C   UNL     1       1.389   3.415  18.665  0.00  0.00    +0.000 C 
ATOM      4  C   UNL     1       3.455   3.255  20.128  0.00  0.00    +0.000 C 
ATOM      5  C   UNL     1       4.386   4.201  19.395  0.00  0.00    +0.000 C 
ATOM      6  O   UNL     1       5.566   3.892  19.229  0.00  0.00    +0.000 OA
ATOM      7  C   UNL     1       3.892   5.549  18.977  0.00  0.00    +0.000 C 
ATOM      8  C   UNL     1       2.788   6.049  19.578  0.00  0.00    +0.000 C 
ATOM      9  C   UNL     1       1.905   5.173  20.433  0.00  0.00    +0.000 C 
ATOM     10  C   UNL     1       2.374   7.456  19.264  0.00  0.00    +0.000 A 
ATOM     11  C   UNL     1       2.893   7.988  18.062  0.00  0.00    +0.000 A 
ATOM     12  C   UNL     1       2.397   9.197  17.576  0.00  0.00    +0.000 A 
ATOM     13  C   UNL     1       1.419   9.897  18.274  0.00  0.00    +0.000 A 
ATOM     14  C   UNL     1       0.955   9.462  19.497  0.00  0.00    +0.000 A 
ATOM     15  N   UNL     1       0.057  10.251  20.114  0.00  0.00    +0.000 NA
ATOM     16  C   UNL     1      -0.377   9.899  21.337  0.00  0.00    +0.000 A 
ATOM     17  C   UNL     1       0.072   8.785  22.003  0.00  0.00    +0.000 A 
ATOM     18  C   UNL     1       0.999   7.973  21.352  0.00  0.00    +0.000 A 
ATOM     19  C   UNL     1       1.452   8.252  20.038  0.00  0.00    +0.000 A 
ATOM     20  N   UNL     1       3.974   7.425  17.400  0.00  0.00    +0.000 N 
ATOM     21  C   UNL     1       4.710   6.273  17.931  0.00  0.00    +0.000 C 
ATOM     22  H   UNL     1       3.981   7.514  16.390  0.00  0.00    +0.000 HD
ENDROOT
BRANCH  21  23
ATOM     23  C   UNL     1       5.257   5.440  16.775  0.00  0.00    +0.000 A 
ATOM     24  C   UNL     1       4.560   4.559  15.967  0.00  0.00    +0.000 A 
ATOM     25  C   UNL     1       5.389   3.934  14.993  0.00  0.00    +0.000 A 
ATOM     26  C   UNL     1       6.698   4.352  15.089  0.00  0.00    +0.000 A 
ATOM     27  S   UNL     1       6.920   5.486  16.349  0.00  0.00    +0.000 S 
ENDBRANCH  21  23
TORSDOF 1
ENDMDL
