MODEL 1
REMARK VINA RESULT:      -7.5      0.000      0.000
REMARK  Name = 
REMARK  1 active torsions:
REMARK  status: ('A' for Active; 'I' for Inactive)
REMARK    1  A    between atoms: N_5  and  C_6
REMARK                            x       y       z     vdW  Elec       q    Type
REMARK                         _______ _______ _______ _____ _____    ______ ____
ROOT
ATOM      1  C   UNL     1       4.382   4.416  18.138  0.00  0.00    +0.000 C 
ATOM      2  C   UNL     1       3.746   3.581  16.995  0.00  0.00    +0.000 C 
ATOM      3  C   UNL     1       2.456   2.889  17.473  0.00  0.00    +0.000 C 
ATOM      4  C   UNL     1       2.786   1.955  18.647  0.00  0.00    +0.000 C 
ATOM      5  C   UNL     1       3.387   2.763  19.808  0.00  0.00    +0.000 C 
ATOM      6  C   UNL     1       2.381   3.831  20.264  0.00  0.00    +0.000 C 
ATOM      7  C   UNL     1       2.051   4.773  19.097  0.00  0.00    +0.000 C 
ATOM      8  C   UNL     1       1.452   3.955  17.940  0.00  0.00    +0.000 C 
ATOM      9  C   UNL     1       3.340   5.463  18.617  0.00  0.00    +0.000 C 
ATOM     10  C   UNL     1       4.672   3.453  19.328  0.00  0.00    +0.000 C 
ENDROOT
BRANCH   1  15
ATOM     11 CL   UNL     1       7.896   8.008  17.534  0.00  0.00    +0.000 Cl
ATOM     12  C   UNL     1       7.064   6.540  17.397  0.00  0.00    +0.000 A 
ATOM     13  N   UNL     1       7.492   5.484  16.642  0.00  0.00    +0.000 NA
ATOM     14  C   UNL     1       6.554   4.585  16.831  0.00  0.00    +0.000 A 
ATOM     15  N   UNL     1       5.599   5.084  17.667  0.00  0.00    +0.000 N 
ATOM     16  N   UNL     1       5.910   6.339  18.041  0.00  0.00    +0.000 NA
ENDBRANCH   1  15
TORSDOF 1
ENDMDL
MODEL 2
REMARK VINA RESULT:      -7.5      0.033      1.887
REMARK  Name = 
REMARK  1 active torsions:
REMARK  status: ('A' for Active; 'I' for Inactive)
REMARK    1  A    between atoms: N_5  and  C_6
REMARK                            x       y       z     vdW  Elec       q    Type
REMARK                         _______ _______ _______ _____ _____    ______ ____
ROOT
ATOM      1  C   UNL     1       4.375   4.451  18.128  0.00  0.00    +0.000 C 
ATOM      2  C   UNL     1       4.697   3.505  19.315  0.00  0.00    +0.000 C 
ATOM      3  C   UNL     1       3.425   2.792  19.809  0.00  0.00    +0.000 C 
ATOM      4  C   UNL     1       2.402   3.841  20.270  0.00  0.00    +0.000 C 
ATOM      5  C   UNL     1       2.039   4.771  19.103  0.00  0.00    +0.000 C 
ATOM      6  C   UNL     1       1.447   3.943  17.952  0.00  0.00    +0.000 C 
ATOM      7  C   UNL     1       2.467   2.895  17.480  0.00  0.00    +0.000 C 
ATOM      8  C   UNL     1       2.824   1.971  18.657  0.00  0.00    +0.000 C 
ATOM      9  C   UNL     1       3.739   3.607  16.989  0.00  0.00    +0.000 C 
ATOM     10  C   UNL     1       3.310   5.479  18.611  0.00  0.00    +0.000 C 
ENDROOT
BRANCH   1  15
ATOM     11 CL   UNL     1       7.904   8.026  17.503  0.00  0.00    +0.000 Cl
ATOM     12  C   UNL     1       7.066   6.560  17.376  0.00  0.00    +0.000 A 
ATOM     13  N   UNL     1       7.493   5.495  16.630  0.00  0.00    +0.000 NA
ATOM     14  C   UNL     1       6.551   4.602  16.824  0.00  0.00    +0.000 A 
ATOM     15  N   UNL     1       5.596   5.111  17.654  0.00  0.00    +0.000 N 
ATOM     16  N   UNL     1       5.911   6.368  18.019  0.00  0.00    +0.000 NA
ENDBRANCH   1  15
TORSDOF 1
ENDMDL
MODEL 3
REMARK VINA RESULT:      -7.5      3.171      5.108
REMARK  Name = 
REMARK  1 active torsions:
REMARK  status: ('A' for Active; 'I' for Inactive)
REMARK    1  A    between atoms: N_5  and  C_6
REMARK                            x       y       z     vdW  Elec       q    Type
REMARK                         _______ _______ _______ _____ _____    ______ ____
ROOT
ATOM      1  C   UNL     1       4.633   5.214  18.407  0.00  0.00    +0.000 C 
ATOM      2  C   UNL     1       4.350   6.506  17.596  0.00  0.00    +0.000 C 
ATOM      3  C   UNL     1       5.477   6.775  16.582  0.00  0.00    +0.000 C 
ATOM      4  C   UNL     1       6.807   6.939  17.333  0.00  0.00    +0.000 C 
ATOM      5  C   UNL     1       7.129   5.659  18.118  0.00  0.00    +0.000 C 
ATOM      6  C   UNL     1       7.226   4.472  17.147  0.00  0.00    +0.000 C 
ATOM      7  C   UNL     1       5.897   4.297  16.397  0.00  0.00    +0.000 C 
ATOM      8  C   UNL     1       5.585   5.585  15.616  0.00  0.00    +0.000 C 
ATOM      9  C   UNL     1       4.771   4.031  17.410  0.00  0.00    +0.000 C 
ATOM     10  C   UNL     1       6.003   5.392  19.127  0.00  0.00    +0.000 C 
ENDROOT
BRANCH   1  15
ATOM     11 CL   UNL     1       1.670   2.735  21.678  0.00  0.00    +0.000 Cl
ATOM     12  C   UNL     1       2.306   3.968  20.707  0.00  0.00    +0.000 A 
ATOM     13  N   UNL     1       1.785   5.230  20.630  0.00  0.00    +0.000 NA
ATOM     14  C   UNL     1       2.582   5.828  19.776  0.00  0.00    +0.000 A 
ATOM     15  N   UNL     1       3.546   4.958  19.357  0.00  0.00    +0.000 N 
ATOM     16  N   UNL     1       3.384   3.758  19.945  0.00  0.00    +0.000 NA
ENDBRANCH   1  15
TORSDOF 1
ENDMDL
MODEL 4
REMARK VINA RESULT:      -7.5      0.069      1.874
REMARK  Name = 
REMARK  1 active torsions:
REMARK  status: ('A' for Active; 'I' for Inactive)
REMARK    1  A    between atoms: N_5  and  C_6
REMARK                            x       y       z     vdW  Elec       q    Type
REMARK                         _______ _______ _______ _____ _____    ______ ____
ROOT
ATOM      1  C   UNL     1       4.389   4.458  18.083  0.00  0.00    +0.000 C 
ATOM      2  C   UNL     1       3.333   5.501  18.538  0.00  0.00    +0.000 C 
ATOM      3  C   UNL     1       2.060   4.805  19.050  0.00  0.00    +0.000 C 
ATOM      4  C   UNL     1       1.461   3.949  17.923  0.00  0.00    +0.000 C 
ATOM      5  C   UNL     1       2.474   2.885  17.477  0.00  0.00    +0.000 C 
ATOM      6  C   UNL     1       2.835   1.988  18.671  0.00  0.00    +0.000 C 
ATOM      7  C   UNL     1       3.441   2.835  19.800  0.00  0.00    +0.000 C 
ATOM      8  C   UNL     1       2.419   3.898  20.238  0.00  0.00    +0.000 C 
ATOM      9  C   UNL     1       4.713   3.533  19.288  0.00  0.00    +0.000 C 
ATOM     10  C   UNL     1       3.744   3.581  16.968  0.00  0.00    +0.000 C 
ENDROOT
BRANCH   1  15
ATOM     11 CL   UNL     1       7.908   8.052  17.512  0.00  0.00    +0.000 Cl
ATOM     12  C   UNL     1       7.070   6.588  17.356  0.00  0.00    +0.000 A 
ATOM     13  N   UNL     1       7.491   5.544  16.580  0.00  0.00    +0.000 NA
ATOM     14  C   UNL     1       6.551   4.644  16.761  0.00  0.00    +0.000 A 
ATOM     15  N   UNL     1       5.604   5.131  17.614  0.00  0.00    +0.000 N 
ATOM     16  N   UNL     1       5.921   6.379  18.006  0.00  0.00    +0.000 NA
ENDBRANCH   1  15
TORSDOF 1
ENDMDL
MODEL 5
REMARK VINA RESULT:      -7.5      3.165      5.121
REMARK  Name = 
REMARK  1 active torsions:
REMARK  status: ('A' for Active; 'I' for Inactive)
REMARK    1  A    between atoms: N_5  and  C_6
REMARK                            x       y       z     vdW  Elec       q    Type
REMARK                         _______ _______ _______ _____ _____    ______ ____
ROOT
ATOM      1  C   UNL     1       4.623   5.204  18.396  0.00  0.00    +0.000 C 
ATOM      2  C   UNL     1       4.758   4.033  17.387  0.00  0.00    +0.000 C 
ATOM      3  C   UNL     1       5.890   4.305  16.380  0.00  0.00    +0.000 C 
ATOM      4  C   UNL     1       5.582   5.596  15.606  0.00  0.00    +0.000 C 
ATOM      5  C   UNL     1       5.477   6.779  16.580  0.00  0.00    +0.000 C 
ATOM      6  C   UNL     1       6.802   6.937  17.342  0.00  0.00    +0.000 C 
ATOM      7  C   UNL     1       7.113   5.652  18.123  0.00  0.00    +0.000 C 
ATOM      8  C   UNL     1       7.215   4.474  17.140  0.00  0.00    +0.000 C 
ATOM      9  C   UNL     1       5.981   5.378  19.128  0.00  0.00    +0.000 C 
ATOM     10  C   UNL     1       4.348   6.505  17.585  0.00  0.00    +0.000 C 
ENDROOT
BRANCH   1  15
ATOM     11 CL   UNL     1       1.738   2.660  21.687  0.00  0.00    +0.000 Cl
ATOM     12  C   UNL     1       2.347   3.910  20.720  0.00  0.00    +0.000 A 
ATOM     13  N   UNL     1       1.812   5.168  20.667  0.00  0.00    +0.000 NA
ATOM     14  C   UNL     1       2.590   5.783  19.806  0.00  0.00    +0.000 A 
ATOM     15  N   UNL     1       3.554   4.927  19.361  0.00  0.00    +0.000 N 
ATOM     16  N   UNL     1       3.413   3.719  19.937  0.00  0.00    +0.000 NA
ENDBRANCH   1  15
TORSDOF 1
ENDMDL
MODEL 6
REMARK VINA RESULT:      -7.5      3.175      5.103
REMARK  Name = 
REMARK  1 active torsions:
REMARK  status: ('A' for Active; 'I' for Inactive)
REMARK    1  A    between atoms: N_5  and  C_6
REMARK                            x       y       z     vdW  Elec       q    Type
REMARK                         _______ _______ _______ _____ _____    ______ ____
ROOT
ATOM      1  C   UNL     1       4.615   5.218  18.392  0.00  0.00    +0.000 C 
ATOM      2  C   UNL     1       5.971   5.387  19.129  0.00  0.00    +0.000 C 
ATOM      3  C   UNL     1       7.108   5.662  18.129  0.00  0.00    +0.000 C 
ATOM      4  C   UNL     1       7.218   4.485  17.147  0.00  0.00    +0.000 C 
ATOM      5  C   UNL     1       5.898   4.318  16.379  0.00  0.00    +0.000 C 
ATOM      6  C   UNL     1       5.588   5.608  15.605  0.00  0.00    +0.000 C 
ATOM      7  C   UNL     1       5.470   6.789  16.580  0.00  0.00    +0.000 C 
ATOM      8  C   UNL     1       6.795   6.947  17.345  0.00  0.00    +0.000 C 
ATOM      9  C   UNL     1       4.335   6.513  17.581  0.00  0.00    +0.000 C 
ATOM     10  C   UNL     1       4.765   4.045  17.378  0.00  0.00    +0.000 C 
ENDROOT
BRANCH   1  15
ATOM     11 CL   UNL     1       1.662   2.770  21.694  0.00  0.00    +0.000 Cl
ATOM     12  C   UNL     1       2.302   3.997  20.718  0.00  0.00    +0.000 A 
ATOM     13  N   UNL     1       1.795   5.265  20.650  0.00  0.00    +0.000 NA
ATOM     14  C   UNL     1       2.590   5.855  19.787  0.00  0.00    +0.000 A 
ATOM     15  N   UNL     1       3.537   4.974  19.354  0.00  0.00    +0.000 N 
ATOM     16  N   UNL     1       3.367   3.775  19.942  0.00  0.00    +0.000 NA
ENDBRANCH   1  15
TORSDOF 1
ENDMDL
MODEL 7
REMARK VINA RESULT:      -7.4      1.867      2.257
REMARK  Name = 
REMARK  1 active torsions:
REMARK  status: ('A' for Active; 'I' for Inactive)
REMARK    1  A    between atoms: N_5  and  C_6
REMARK                            x       y       z     vdW  Elec       q    Type
REMARK                         _______ _______ _______ _____ _____    ______ ____
ROOT
ATOM      1  C   UNL     1       3.478   4.311  18.113  0.00  0.00    +0.000 C 
ATOM      2  C   UNL     1       3.856   2.811  18.239  0.00  0.00    +0.000 C 
ATOM      3  C   UNL     1       2.943   2.099  19.253  0.00  0.00    +0.000 C 
ATOM      4  C   UNL     1       3.093   2.769  20.628  0.00  0.00    +0.000 C 
ATOM      5  C   UNL     1       2.692   4.249  20.539  0.00  0.00    +0.000 C 
ATOM      6  C   UNL     1       1.234   4.358  20.068  0.00  0.00    +0.000 C 
ATOM      7  C   UNL     1       1.076   3.696  18.690  0.00  0.00    +0.000 C 
ATOM      8  C   UNL     1       1.482   2.216  18.791  0.00  0.00    +0.000 C 
ATOM      9  C   UNL     1       1.990   4.406  17.676  0.00  0.00    +0.000 C 
ATOM     10  C   UNL     1       3.603   4.956  19.525  0.00  0.00    +0.000 C 
ENDROOT
BRANCH   1  15
ATOM     11 CL   UNL     1       6.723   4.901  14.273  0.00  0.00    +0.000 Cl
ATOM     12  C   UNL     1       5.676   5.254  15.555  0.00  0.00    +0.000 A 
ATOM     13  N   UNL     1       5.397   6.519  15.992  0.00  0.00    +0.000 NA
ATOM     14  C   UNL     1       4.558   6.314  16.980  0.00  0.00    +0.000 A 
ATOM     15  N   UNL     1       4.342   4.975  17.131  0.00  0.00    +0.000 N 
ATOM     16  N   UNL     1       5.052   4.279  16.224  0.00  0.00    +0.000 NA
ENDBRANCH   1  15
TORSDOF 1
ENDMDL
MODEL 8
REMARK VINA RESULT:      -7.4      1.865      2.882
REMARK  Name = 
REMARK  1 active torsions:
REMARK  status: ('A' for Active; 'I' for Inactive)
REMARK    1  A    between atoms: N_5  and  C_6
REMARK                            x       y       z     vdW  Elec       q    Type
REMARK                         _______ _______ _______ _____ _____    ______ ____
ROOT
ATOM      1  C   UNL     1       3.460   4.313  18.085  0.00  0.00    +0.000 C 
ATOM      2  C   UNL     1       3.602   4.975  19.481  0.00  0.00    +0.000 C 
ATOM      3  C   UNL     1       2.703   4.271  20.515  0.00  0.00    +0.000 C 
ATOM      4  C   UNL     1       1.238   4.367  20.063  0.00  0.00    +0.000 C 
ATOM      5  C   UNL     1       1.064   3.689  18.696  0.00  0.00    +0.000 C 
ATOM      6  C   UNL     1       1.476   2.212  18.800  0.00  0.00    +0.000 C 
ATOM      7  C   UNL     1       2.943   2.107  19.246  0.00  0.00    +0.000 C 
ATOM      8  C   UNL     1       3.106   2.791  20.613  0.00  0.00    +0.000 C 
ATOM      9  C   UNL     1       3.841   2.812  18.214  0.00  0.00    +0.000 C 
ATOM     10  C   UNL     1       1.962   4.391  17.668  0.00  0.00    +0.000 C 
ENDROOT
BRANCH   1  15
ATOM     11 CL   UNL     1       6.723   4.913  14.261  0.00  0.00    +0.000 Cl
ATOM     12  C   UNL     1       5.675   5.262  15.544  0.00  0.00    +0.000 A 
ATOM     13  N   UNL     1       5.406   6.525  15.993  0.00  0.00    +0.000 NA
ATOM     14  C   UNL     1       4.562   6.317  16.977  0.00  0.00    +0.000 A 
ATOM     15  N   UNL     1       4.333   4.979  17.113  0.00  0.00    +0.000 N 
ATOM     16  N   UNL     1       5.040   4.286  16.200  0.00  0.00    +0.000 NA
ENDBRANCH   1  15
TORSDOF 1
ENDMDL
MODEL 9
REMARK VINA RESULT:      -7.4      1.865      2.183
REMARK  Name = 
REMARK  1 active torsions:
REMARK  status: ('A' for Active; 'I' for Inactive)
REMARK    1  A    between atoms: N_5  and  C_6
REMARK                            x       y       z     vdW  Elec       q    Type
REMARK                         _______ _______ _______ _____ _____    ______ ____
ROOT
ATOM      1  C   UNL     1       3.482   4.279  18.093  0.00  0.00    +0.000 C 
ATOM      2  C   UNL     1       1.995   4.381  17.659  0.00  0.00    +0.000 C 
ATOM      3  C   UNL     1       1.076   3.696  18.686  0.00  0.00    +0.000 C 
ATOM      4  C   UNL     1       1.461   2.213  18.802  0.00  0.00    +0.000 C 
ATOM      5  C   UNL     1       2.920   2.083  19.264  0.00  0.00    +0.000 C 
ATOM      6  C   UNL     1       3.090   2.769  20.628  0.00  0.00    +0.000 C 
ATOM      7  C   UNL     1       2.712   4.254  20.520  0.00  0.00    +0.000 C 
ATOM      8  C   UNL     1       1.251   4.372  20.055  0.00  0.00    +0.000 C 
ATOM      9  C   UNL     1       3.629   4.939  19.492  0.00  0.00    +0.000 C 
ATOM     10  C   UNL     1       3.835   2.770  18.239  0.00  0.00    +0.000 C 
ENDROOT
BRANCH   1  15
ATOM     11 CL   UNL     1       6.734   4.898  14.264  0.00  0.00    +0.000 Cl
ATOM     12  C   UNL     1       5.683   5.241  15.546  0.00  0.00    +0.000 A 
ATOM     13  N   UNL     1       5.401   6.504  15.990  0.00  0.00    +0.000 NA
ATOM     14  C   UNL     1       4.560   6.291  16.976  0.00  0.00    +0.000 A 
ATOM     15  N   UNL     1       4.346   4.951  17.118  0.00  0.00    +0.000 N 
ATOM     16  N   UNL     1       5.059   4.261  16.208  0.00  0.00    +0.000 NA
ENDBRANCH   1  15
TORSDOF 1
ENDMDL
