MODEL 1
REMARK VINA RESULT:      -7.2      0.000      0.000
REMARK  Name = 
REMARK  4 active torsions:
REMARK  status: ('A' for Active; 'I' for Inactive)
REMARK    1  A    between atoms: C_1  and  C_2
REMARK    2  A    between atoms: C_2  and  C_17
REMARK    3  A    between atoms: N_3  and  N_4
REMARK    4  A    between atoms: C_7  and  C_8
REMARK                            x       y       z     vdW  Elec       q    Type
REMARK                         _______ _______ _______ _____ _____    ______ ____
ROOT
ATOM      1  N   UNL     1       1.696   7.458  20.941  0.00  0.00    +0.000 N 
ATOM      2  C   UNL     1       2.220   6.423  20.226  0.00  0.00    +0.000 A 
ATOM      3  N   UNL     1       2.958   6.522  19.141  0.00  0.00    +0.000 NA
ATOM      4  C   UNL     1       3.302   5.271  18.661  0.00  0.00    +0.000 A 
ATOM      5  C   UNL     1       2.813   4.213  19.403  0.00  0.00    +0.000 A 
ATOM      6  S   UNL     1       1.935   4.801  20.748  0.00  0.00    +0.000 S 
ATOM      7  H   UNL     1       1.079   7.160  21.694  0.00  0.00    +0.000 HD
ENDROOT
BRANCH   4   8
ATOM      8  C   UNL     1       4.146   5.116  17.485  0.00  0.00    +0.000 A 
ATOM      9  C   UNL     1       4.528   3.830  17.079  0.00  0.00    +0.000 A 
ATOM     10  C   UNL     1       5.320   3.648  15.941  0.00  0.00    +0.000 A 
ATOM     11  C   UNL     1       5.745   4.756  15.210  0.00  0.00    +0.000 A 
ATOM     12  I   UNL     1       6.932   4.493  13.527  0.00  0.00    +0.000 I 
ATOM     13  C   UNL     1       5.382   6.043  15.607  0.00  0.00    +0.000 A 
ATOM     14  C   UNL     1       4.584   6.221  16.741  0.00  0.00    +0.000 A 
ENDBRANCH   4   8
BRANCH   1  17
ATOM     15  C   UNL     1      -0.434   8.929  22.074  0.00  0.00    +0.000 C 
ATOM     16  C   UNL     1       0.330   9.293  20.817  0.00  0.00    +0.000 C 
ATOM     17  N   UNL     1       1.334   8.622  20.327  0.00  0.00    +0.000 NA
BRANCH  16  18
ATOM     18  C   UNL     1      -0.111  10.545  20.119  0.00  0.00    +0.000 A 
ATOM     19  C   UNL     1      -1.109  10.501  19.151  0.00  0.00    +0.000 A 
ATOM     20  C   UNL     1      -1.488  11.691  18.537  0.00  0.00    +0.000 A 
ATOM     21  C   UNL     1      -0.865  12.878  18.905  0.00  0.00    +0.000 A 
ATOM     22  C   UNL     1       0.117  12.828  19.881  0.00  0.00    +0.000 A 
ATOM     23  N   UNL     1       0.508  11.693  20.498  0.00  0.00    +0.000 NA
ENDBRANCH  16  18
ENDBRANCH   1  17
TORSDOF 3
ENDMDL
MODEL 2
REMARK VINA RESULT:      -7.0      0.589      1.456
REMARK  Name = 
REMARK  4 active torsions:
REMARK  status: ('A' for Active; 'I' for Inactive)
REMARK    1  A    between atoms: C_1  and  C_2
REMARK    2  A    between atoms: C_2  and  C_17
REMARK    3  A    between atoms: N_3  and  N_4
REMARK    4  A    between atoms: C_7  and  C_8
REMARK                            x       y       z     vdW  Elec       q    Type
REMARK                         _______ _______ _______ _____ _____    ______ ____
ROOT
ATOM      1  N   UNL     1       1.591   7.511  20.927  0.00  0.00    +0.000 N 
ATOM      2  C   UNL     1       2.109   6.462  20.227  0.00  0.00    +0.000 A 
ATOM      3  N   UNL     1       2.864   6.542  19.153  0.00  0.00    +0.000 NA
ATOM      4  C   UNL     1       3.195   5.282  18.687  0.00  0.00    +0.000 A 
ATOM      5  C   UNL     1       2.677   4.237  19.428  0.00  0.00    +0.000 A 
ATOM      6  S   UNL     1       1.789   4.849  20.756  0.00  0.00    +0.000 S 
ATOM      7  H   UNL     1       0.958   7.229  21.673  0.00  0.00    +0.000 HD
ENDROOT
BRANCH   4   8
ATOM      8  C   UNL     1       4.053   5.105  17.525  0.00  0.00    +0.000 A 
ATOM      9  C   UNL     1       4.536   6.234  16.849  0.00  0.00    +0.000 A 
ATOM     10  C   UNL     1       5.380   6.096  15.742  0.00  0.00    +0.000 A 
ATOM     11  C   UNL     1       5.733   4.824  15.298  0.00  0.00    +0.000 A 
ATOM     12  I   UNL     1       6.975   4.612  13.646  0.00  0.00    +0.000 I 
ATOM     13  C   UNL     1       5.253   3.690  15.952  0.00  0.00    +0.000 A 
ATOM     14  C   UNL     1       4.416   3.831  17.063  0.00  0.00    +0.000 A 
ENDBRANCH   4   8
BRANCH   1  17
ATOM     15  C   UNL     1      -0.264   9.208  22.216  0.00  0.00    +0.000 C 
ATOM     16  C   UNL     1       0.377   9.453  20.865  0.00  0.00    +0.000 C 
ATOM     17  N   UNL     1       1.258   8.677  20.300  0.00  0.00    +0.000 NA
BRANCH  16  18
ATOM     18  C   UNL     1      -0.037  10.709  20.159  0.00  0.00    +0.000 A 
ATOM     19  C   UNL     1       0.706  11.876  20.300  0.00  0.00    +0.000 A 
ATOM     20  C   UNL     1       0.286  13.015  19.618  0.00  0.00    +0.000 A 
ATOM     21  C   UNL     1      -0.852  12.952  18.822  0.00  0.00    +0.000 A 
ATOM     22  C   UNL     1      -1.528  11.746  18.737  0.00  0.00    +0.000 A 
ATOM     23  N   UNL     1      -1.148  10.623  19.383  0.00  0.00    +0.000 NA
ENDBRANCH  16  18
ENDBRANCH   1  17
TORSDOF 3
ENDMDL
MODEL 3
REMARK VINA RESULT:      -7.0      0.572      1.024
REMARK  Name = 
REMARK  4 active torsions:
REMARK  status: ('A' for Active; 'I' for Inactive)
REMARK    1  A    between atoms: C_1  and  C_2
REMARK    2  A    between atoms: C_2  and  C_17
REMARK    3  A    between atoms: N_3  and  N_4
REMARK    4  A    between atoms: C_7  and  C_8
REMARK                            x       y       z     vdW  Elec       q    Type
REMARK                         _______ _______ _______ _____ _____    ______ ____
ROOT
ATOM      1  N   UNL     1       1.714   7.448  20.963  0.00  0.00    +0.000 N 
ATOM      2  C   UNL     1       2.200   6.417  20.215  0.00  0.00    +0.000 A 
ATOM      3  N   UNL     1       2.963   6.522  19.150  0.00  0.00    +0.000 NA
ATOM      4  C   UNL     1       3.254   5.276  18.624  0.00  0.00    +0.000 A 
ATOM      5  C   UNL     1       2.696   4.215  19.312  0.00  0.00    +0.000 A 
ATOM      6  S   UNL     1       1.822   4.792  20.665  0.00  0.00    +0.000 S 
ATOM      7  H   UNL     1       1.067   7.152  21.692  0.00  0.00    +0.000 HD
ENDROOT
BRANCH   4   8
ATOM      8  C   UNL     1       4.112   5.125  17.458  0.00  0.00    +0.000 A 
ATOM      9  C   UNL     1       4.480   3.839  17.037  0.00  0.00    +0.000 A 
ATOM     10  C   UNL     1       5.285   3.662  15.908  0.00  0.00    +0.000 A 
ATOM     11  C   UNL     1       5.739   4.775  15.202  0.00  0.00    +0.000 A 
ATOM     12  I   UNL     1       6.948   4.519  13.532  0.00  0.00    +0.000 I 
ATOM     13  C   UNL     1       5.392   6.061  15.614  0.00  0.00    +0.000 A 
ATOM     14  C   UNL     1       4.579   6.235  16.738  0.00  0.00    +0.000 A 
ENDBRANCH   4   8
BRANCH   1  17
ATOM     15  C   UNL     1      -0.439   8.925  22.041  0.00  0.00    +0.000 C 
ATOM     16  C   UNL     1       0.411   9.330  20.855  0.00  0.00    +0.000 C 
ATOM     17  N   UNL     1       1.425   8.654  20.392  0.00  0.00    +0.000 NA
BRANCH  16  18
ATOM     18  C   UNL     1       0.051  10.629  20.199  0.00  0.00    +0.000 A 
ATOM     19  C   UNL     1       0.876  11.741  20.334  0.00  0.00    +0.000 A 
ATOM     20  C   UNL     1       0.502  12.923  19.700  0.00  0.00    +0.000 A 
ATOM     21  C   UNL     1      -0.672  12.957  18.957  0.00  0.00    +0.000 A 
ATOM     22  C   UNL     1      -1.431  11.800  18.875  0.00  0.00    +0.000 A 
ATOM     23  N   UNL     1      -1.098  10.637  19.475  0.00  0.00    +0.000 NA
ENDBRANCH  16  18
ENDBRANCH   1  17
TORSDOF 3
ENDMDL
MODEL 4
REMARK VINA RESULT:      -6.9      0.640      1.240
REMARK  Name = 
REMARK  4 active torsions:
REMARK  status: ('A' for Active; 'I' for Inactive)
REMARK    1  A    between atoms: C_1  and  C_2
REMARK    2  A    between atoms: C_2  and  C_17
REMARK    3  A    between atoms: N_3  and  N_4
REMARK    4  A    between atoms: C_7  and  C_8
REMARK                            x       y       z     vdW  Elec       q    Type
REMARK                         _______ _______ _______ _____ _____    ______ ____
ROOT
ATOM      1  N   UNL     1       1.629   7.176  21.058  0.00  0.00    +0.000 N 
ATOM      2  C   UNL     1       2.147   6.179  20.287  0.00  0.00    +0.000 A 
ATOM      3  N   UNL     1       2.931   6.331  19.242  0.00  0.00    +0.000 NA
ATOM      4  C   UNL     1       3.252   5.108  18.682  0.00  0.00    +0.000 A 
ATOM      5  C   UNL     1       2.697   4.016  19.321  0.00  0.00    +0.000 A 
ATOM      6  S   UNL     1       1.785   4.534  20.672  0.00  0.00    +0.000 S 
ATOM      7  H   UNL     1       0.971   6.846  21.762  0.00  0.00    +0.000 HD
ENDROOT
BRANCH   4   8
ATOM      8  C   UNL     1       4.138   5.010  17.531  0.00  0.00    +0.000 A 
ATOM      9  C   UNL     1       4.448   6.167  16.802  0.00  0.00    +0.000 A 
ATOM     10  C   UNL     1       5.312   6.108  15.705  0.00  0.00    +0.000 A 
ATOM     11  C   UNL     1       5.861   4.886  15.322  0.00  0.00    +0.000 A 
ATOM     12  I   UNL     1       7.135   4.790  13.685  0.00  0.00    +0.000 I 
ATOM     13  C   UNL     1       5.555   3.724  16.030  0.00  0.00    +0.000 A 
ATOM     14  C   UNL     1       4.696   3.787  17.132  0.00  0.00    +0.000 A 
ENDBRANCH   4   8
BRANCH   1  17
ATOM     15  C   UNL     1       0.744   9.202  22.817  0.00  0.00    +0.000 C 
ATOM     16  C   UNL     1       0.889   9.330  21.315  0.00  0.00    +0.000 C 
ATOM     17  N   UNL     1       1.333   8.396  20.521  0.00  0.00    +0.000 NA
BRANCH  16  18
ATOM     18  C   UNL     1       0.510  10.656  20.727  0.00  0.00    +0.000 A 
ATOM     19  C   UNL     1      -0.030  10.734  19.448  0.00  0.00    +0.000 A 
ATOM     20  C   UNL     1      -0.374  11.987  18.949  0.00  0.00    +0.000 A 
ATOM     21  C   UNL     1      -0.170  13.114  19.738  0.00  0.00    +0.000 A 
ATOM     22  C   UNL     1       0.370  12.942  21.002  0.00  0.00    +0.000 A 
ATOM     23  N   UNL     1       0.713  11.742  21.517  0.00  0.00    +0.000 NA
ENDBRANCH  16  18
ENDBRANCH   1  17
TORSDOF 3
ENDMDL
MODEL 5
REMARK VINA RESULT:      -6.7      3.837      8.238
REMARK  Name = 
REMARK  4 active torsions:
REMARK  status: ('A' for Active; 'I' for Inactive)
REMARK    1  A    between atoms: C_1  and  C_2
REMARK    2  A    between atoms: C_2  and  C_17
REMARK    3  A    between atoms: N_3  and  N_4
REMARK    4  A    between atoms: C_7  and  C_8
REMARK                            x       y       z     vdW  Elec       q    Type
REMARK                         _______ _______ _______ _____ _____    ______ ____
ROOT
ATOM      1  N   UNL     1       4.650   2.898  17.183  0.00  0.00    +0.000 N 
ATOM      2  C   UNL     1       4.212   3.829  18.078  0.00  0.00    +0.000 A 
ATOM      3  N   UNL     1       3.633   4.973  17.788  0.00  0.00    +0.000 NA
ATOM      4  C   UNL     1       3.337   5.683  18.938  0.00  0.00    +0.000 A 
ATOM      5  C   UNL     1       3.703   5.056  20.114  0.00  0.00    +0.000 A 
ATOM      6  S   UNL     1       4.397   3.531  19.770  0.00  0.00    +0.000 S 
ATOM      7  H   UNL     1       5.153   2.125  17.614  0.00  0.00    +0.000 HD
ENDROOT
BRANCH   4   8
ATOM      8  C   UNL     1       2.661   6.971  18.882  0.00  0.00    +0.000 A 
ATOM      9  C   UNL     1       1.977   7.438  20.014  0.00  0.00    +0.000 A 
ATOM     10  C   UNL     1       1.336   8.680  19.997  0.00  0.00    +0.000 A 
ATOM     11  C   UNL     1       1.366   9.457  18.840  0.00  0.00    +0.000 A 
ATOM     12  I   UNL     1       0.404  11.298  18.805  0.00  0.00    +0.000 I 
ATOM     13  C   UNL     1       2.033   9.003  17.703  0.00  0.00    +0.000 A 
ATOM     14  C   UNL     1       2.680   7.764  17.725  0.00  0.00    +0.000 A 
ENDBRANCH   4   8
BRANCH   1  17
ATOM     15  C   UNL     1       7.133   4.240  17.067  0.00  0.00    +0.000 C 
ATOM     16  C   UNL     1       6.238   3.922  15.887  0.00  0.00    +0.000 C 
ATOM     17  N   UNL     1       5.111   3.270  15.953  0.00  0.00    +0.000 NA
BRANCH  16  18
ATOM     18  C   UNL     1       6.727   4.384  14.547  0.00  0.00    +0.000 A 
ATOM     19  C   UNL     1       6.238   3.807  13.379  0.00  0.00    +0.000 A 
ATOM     20  C   UNL     1       6.717   4.274  12.159  0.00  0.00    +0.000 A 
ATOM     21  C   UNL     1       7.660   5.296  12.143  0.00  0.00    +0.000 A 
ATOM     22  C   UNL     1       8.088   5.814  13.354  0.00  0.00    +0.000 A 
ATOM     23  N   UNL     1       7.644   5.386  14.555  0.00  0.00    +0.000 NA
ENDBRANCH  16  18
ENDBRANCH   1  17
TORSDOF 3
ENDMDL
MODEL 6
REMARK VINA RESULT:      -6.6      4.456      9.004
REMARK  Name = 
REMARK  4 active torsions:
REMARK  status: ('A' for Active; 'I' for Inactive)
REMARK    1  A    between atoms: C_1  and  C_2
REMARK    2  A    between atoms: C_2  and  C_17
REMARK    3  A    between atoms: N_3  and  N_4
REMARK    4  A    between atoms: C_7  and  C_8
REMARK                            x       y       z     vdW  Elec       q    Type
REMARK                         _______ _______ _______ _____ _____    ______ ____
ROOT
ATOM      1  N   UNL     1       2.456   8.341  18.751  0.00  0.00    +0.000 N 
ATOM      2  C   UNL     1       1.696   9.449  18.979  0.00  0.00    +0.000 A 
ATOM      3  N   UNL     1       0.853   9.621  19.974  0.00  0.00    +0.000 NA
ATOM      4  C   UNL     1       0.233  10.855  19.888  0.00  0.00    +0.000 A 
ATOM      5  C   UNL     1       0.621  11.623  18.807  0.00  0.00    +0.000 A 
ATOM      6  S   UNL     1       1.813  10.796  17.903  0.00  0.00    +0.000 S 
ATOM      7  H   UNL     1       2.973   8.377  17.874  0.00  0.00    +0.000 HD
ENDROOT
BRANCH   4   8
ATOM      8  C   UNL     1      -0.723  11.295  20.895  0.00  0.00    +0.000 A 
ATOM      9  C   UNL     1      -1.768  12.152  20.522  0.00  0.00    +0.000 A 
ATOM     10  C   UNL     1      -2.713  12.574  21.461  0.00  0.00    +0.000 A 
ATOM     11  C   UNL     1      -2.609  12.150  22.785  0.00  0.00    +0.000 A 
ATOM     12  I   UNL     1      -4.002  12.785  24.188  0.00  0.00    +0.000 I 
ATOM     13  C   UNL     1      -1.570  11.307  23.175  0.00  0.00    +0.000 A 
ATOM     14  C   UNL     1      -0.630  10.880  22.231  0.00  0.00    +0.000 A 
ENDBRANCH   4   8
BRANCH   1  17
ATOM     15  C   UNL     1       3.795   6.107  17.655  0.00  0.00    +0.000 C 
ATOM     16  C   UNL     1       2.597   6.061  18.581  0.00  0.00    +0.000 C 
ATOM     17  N   UNL     1       2.013   7.100  19.107  0.00  0.00    +0.000 NA
BRANCH  16  18
ATOM     18  C   UNL     1       2.083   4.694  18.924  0.00  0.00    +0.000 A 
ATOM     19  C   UNL     1       1.443   4.464  20.136  0.00  0.00    +0.000 A 
ATOM     20  C   UNL     1       0.976   3.180  20.405  0.00  0.00    +0.000 A 
ATOM     21  C   UNL     1       1.161   2.176  19.461  0.00  0.00    +0.000 A 
ATOM     22  C   UNL     1       1.807   2.497  18.278  0.00  0.00    +0.000 A 
ATOM     23  N   UNL     1       2.270   3.731  17.985  0.00  0.00    +0.000 NA
ENDBRANCH  16  18
ENDBRANCH   1  17
TORSDOF 3
ENDMDL
MODEL 7
REMARK VINA RESULT:      -6.6      4.485      8.989
REMARK  Name = 
REMARK  4 active torsions:
REMARK  status: ('A' for Active; 'I' for Inactive)
REMARK    1  A    between atoms: C_1  and  C_2
REMARK    2  A    between atoms: C_2  and  C_17
REMARK    3  A    between atoms: N_3  and  N_4
REMARK    4  A    between atoms: C_7  and  C_8
REMARK                            x       y       z     vdW  Elec       q    Type
REMARK                         _______ _______ _______ _____ _____    ______ ____
ROOT
ATOM      1  N   UNL     1       2.410   8.491  18.752  0.00  0.00    +0.000 N 
ATOM      2  C   UNL     1       1.650   9.599  18.984  0.00  0.00    +0.000 A 
ATOM      3  N   UNL     1       0.771   9.750  19.950  0.00  0.00    +0.000 NA
ATOM      4  C   UNL     1       0.165  10.991  19.877  0.00  0.00    +0.000 A 
ATOM      5  C   UNL     1       0.599  11.786  18.834  0.00  0.00    +0.000 A 
ATOM      6  S   UNL     1       1.819  10.974  17.951  0.00  0.00    +0.000 S 
ATOM      7  H   UNL     1       2.960   8.547  17.897  0.00  0.00    +0.000 HD
ENDROOT
BRANCH   4   8
ATOM      8  C   UNL     1      -0.825  11.411  20.859  0.00  0.00    +0.000 A 
ATOM      9  C   UNL     1      -0.704  10.973  22.186  0.00  0.00    +0.000 A 
ATOM     10  C   UNL     1      -1.627  11.377  23.156  0.00  0.00    +0.000 A 
ATOM     11  C   UNL     1      -2.685  12.211  22.799  0.00  0.00    +0.000 A 
ATOM     12  I   UNL     1      -4.066  12.802  24.232  0.00  0.00    +0.000 I 
ATOM     13  C   UNL     1      -2.825  12.646  21.481  0.00  0.00    +0.000 A 
ATOM     14  C   UNL     1      -1.896  12.248  20.515  0.00  0.00    +0.000 A 
ENDBRANCH   4   8
BRANCH   1  17
ATOM     15  C   UNL     1       3.965   6.277  17.940  0.00  0.00    +0.000 C 
ATOM     16  C   UNL     1       2.632   6.212  18.656  0.00  0.00    +0.000 C 
ATOM     17  N   UNL     1       1.943   7.244  19.056  0.00  0.00    +0.000 NA
BRANCH  16  18
ATOM     18  C   UNL     1       2.101   4.838  18.936  0.00  0.00    +0.000 A 
ATOM     19  C   UNL     1       1.498   4.549  20.156  0.00  0.00    +0.000 A 
ATOM     20  C   UNL     1       1.014   3.261  20.366  0.00  0.00    +0.000 A 
ATOM     21  C   UNL     1       1.145   2.311  19.359  0.00  0.00    +0.000 A 
ATOM     22  C   UNL     1       1.756   2.689  18.175  0.00  0.00    +0.000 A 
ATOM     23  N   UNL     1       2.234   3.928  17.937  0.00  0.00    +0.000 NA
ENDBRANCH  16  18
ENDBRANCH   1  17
TORSDOF 3
ENDMDL
MODEL 8
REMARK VINA RESULT:      -6.5      4.501      8.990
REMARK  Name = 
REMARK  4 active torsions:
REMARK  status: ('A' for Active; 'I' for Inactive)
REMARK    1  A    between atoms: C_1  and  C_2
REMARK    2  A    between atoms: C_2  and  C_17
REMARK    3  A    between atoms: N_3  and  N_4
REMARK    4  A    between atoms: C_7  and  C_8
REMARK                            x       y       z     vdW  Elec       q    Type
REMARK                         _______ _______ _______ _____ _____    ______ ____
ROOT
ATOM      1  N   UNL     1       2.391   8.366  19.146  0.00  0.00    +0.000 N 
ATOM      2  C   UNL     1       1.533   9.423  19.222  0.00  0.00    +0.000 A 
ATOM      3  N   UNL     1       0.711   9.686  20.214  0.00  0.00    +0.000 NA
ATOM      4  C   UNL     1      -0.030  10.825  19.953  0.00  0.00    +0.000 A 
ATOM      5  C   UNL     1       0.244  11.427  18.739  0.00  0.00    +0.000 A 
ATOM      6  S   UNL     1       1.481  10.567  17.929  0.00  0.00    +0.000 S 
ATOM      7  H   UNL     1       2.872   8.297  18.251  0.00  0.00    +0.000 HD
ENDROOT
BRANCH   4   8
ATOM      8  C   UNL     1      -0.990  11.343  20.917  0.00  0.00    +0.000 A 
ATOM      9  C   UNL     1      -0.863  10.992  22.269  0.00  0.00    +0.000 A 
ATOM     10  C   UNL     1      -1.756  11.491  23.222  0.00  0.00    +0.000 A 
ATOM     11  C   UNL     1      -2.792  12.334  22.823  0.00  0.00    +0.000 A 
ATOM     12  I   UNL     1      -4.131  13.067  24.231  0.00  0.00    +0.000 I 
ATOM     13  C   UNL     1      -2.939  12.684  21.481  0.00  0.00    +0.000 A 
ATOM     14  C   UNL     1      -2.039  12.190  20.532  0.00  0.00    +0.000 A 
ENDBRANCH   4   8
BRANCH   1  17
ATOM     15  C   UNL     1       3.348   6.018  17.899  0.00  0.00    +0.000 C 
ATOM     16  C   UNL     1       2.488   6.077  19.145  0.00  0.00    +0.000 C 
ATOM     17  N   UNL     1       2.085   7.170  19.729  0.00  0.00    +0.000 NA
BRANCH  16  18
ATOM     18  C   UNL     1       2.111   4.756  19.747  0.00  0.00    +0.000 A 
ATOM     19  C   UNL     1       1.556   3.754  18.959  0.00  0.00    +0.000 A 
ATOM     20  C   UNL     1       1.229   2.543  19.562  0.00  0.00    +0.000 A 
ATOM     21  C   UNL     1       1.466   2.372  20.922  0.00  0.00    +0.000 A 
ATOM     22  C   UNL     1       2.026   3.424  21.628  0.00  0.00    +0.000 A 
ATOM     23  N   UNL     1       2.356   4.610  21.075  0.00  0.00    +0.000 NA
ENDBRANCH  16  18
ENDBRANCH   1  17
TORSDOF 3
ENDMDL
MODEL 9
REMARK VINA RESULT:      -6.5      4.453      8.973
REMARK  Name = 
REMARK  4 active torsions:
REMARK  status: ('A' for Active; 'I' for Inactive)
REMARK    1  A    between atoms: C_1  and  C_2
REMARK    2  A    between atoms: C_2  and  C_17
REMARK    3  A    between atoms: N_3  and  N_4
REMARK    4  A    between atoms: C_7  and  C_8
REMARK                            x       y       z     vdW  Elec       q    Type
REMARK                         _______ _______ _______ _____ _____    ______ ____
ROOT
ATOM      1  N   UNL     1       2.457   8.466  18.635  0.00  0.00    +0.000 N 
ATOM      2  C   UNL     1       1.711   9.574  18.905  0.00  0.00    +0.000 A 
ATOM      3  N   UNL     1       0.856   9.713  19.895  0.00  0.00    +0.000 NA
ATOM      4  C   UNL     1       0.257  10.959  19.860  0.00  0.00    +0.000 A 
ATOM      5  C   UNL     1       0.673  11.771  18.821  0.00  0.00    +0.000 A 
ATOM      6  S   UNL     1       1.865  10.967  17.895  0.00  0.00    +0.000 S 
ATOM      7  H   UNL     1       2.988   8.534  17.768  0.00  0.00    +0.000 HD
ENDROOT
BRANCH   4   8
ATOM      8  C   UNL     1      -0.706  11.367  20.872  0.00  0.00    +0.000 A 
ATOM      9  C   UNL     1      -1.762  12.217  20.514  0.00  0.00    +0.000 A 
ATOM     10  C   UNL     1      -2.715  12.609  21.459  0.00  0.00    +0.000 A 
ATOM     11  C   UNL     1      -2.607  12.160  22.774  0.00  0.00    +0.000 A 
ATOM     12  I   UNL     1      -4.011  12.750  24.186  0.00  0.00    +0.000 I 
ATOM     13  C   UNL     1      -1.557  11.323  23.150  0.00  0.00    +0.000 A 
ATOM     14  C   UNL     1      -0.611  10.927  22.200  0.00  0.00    +0.000 A 
ENDBRANCH   4   8
BRANCH   1  17
ATOM     15  C   UNL     1       4.004   6.257  17.790  0.00  0.00    +0.000 C 
ATOM     16  C   UNL     1       2.673   6.188  18.511  0.00  0.00    +0.000 C 
ATOM     17  N   UNL     1       1.989   7.217  18.926  0.00  0.00    +0.000 NA
BRANCH  16  18
ATOM     18  C   UNL     1       2.140   4.812  18.778  0.00  0.00    +0.000 A 
ATOM     19  C   UNL     1       2.306   3.796  17.842  0.00  0.00    +0.000 A 
ATOM     20  C   UNL     1       1.800   2.534  18.139  0.00  0.00    +0.000 A 
ATOM     21  C   UNL     1       1.152   2.327  19.352  0.00  0.00    +0.000 A 
ATOM     22  C   UNL     1       1.035   3.396  20.225  0.00  0.00    +0.000 A 
ATOM     23  N   UNL     1       1.515   4.632  19.970  0.00  0.00    +0.000 NA
ENDBRANCH  16  18
ENDBRANCH   1  17
TORSDOF 3
ENDMDL
