MODEL 1
REMARK VINA RESULT:      -8.2      0.000      0.000
REMARK  Name = 
REMARK  6 active torsions:
REMARK  status: ('A' for Active; 'I' for Inactive)
REMARK    1  A    between atoms: N_1  and  C_2
REMARK    2  A    between atoms: C_6  and  C_8
REMARK    3  A    between atoms: C_10  and  C_11
REMARK    4  A    between atoms: C_13  and  N_14
REMARK    5  A    between atoms: N_14  and  C_15
REMARK    6  A    between atoms: C_21  and  C_22
REMARK                            x       y       z     vdW  Elec       q    Type
REMARK                         _______ _______ _______ _____ _____    ______ ____
ROOT
ATOM      1  C   UNL     1       0.904   9.980  19.065  0.00  0.00    +0.000 A 
ATOM      2  C   UNL     1      -0.219  10.092  18.096  0.00  0.00    +0.000 A 
ATOM      3  C   UNL     1      -0.721  11.324  17.898  0.00  0.00    +0.000 A 
ATOM      4  N   UNL     1      -0.168  12.400  18.645  0.00  0.00    +0.000 N 
ATOM      5  N   UNL     1      -0.509  13.720  18.568  0.00  0.00    +0.000 NA
ATOM      6  C   UNL     1       0.291  14.320  19.452  0.00  0.00    +0.000 A 
ATOM      7  C   UNL     1       1.142  13.422  20.124  0.00  0.00    +0.000 A 
ATOM      8  C   UNL     1       0.852  12.184  19.582  0.00  0.00    +0.000 A 
ATOM      9  N   UNL     1       1.378  10.935  19.799  0.00  0.00    +0.000 NA
ENDROOT
BRANCH   7  10
ATOM     10  C   UNL     1       2.119  13.736  21.126  0.00  0.00    +0.000 C 
ATOM     11  C   UNL     1       3.333  14.255  20.918  0.00  0.00    +0.000 C 
ATOM     12  N   UNL     1       3.902  14.582  19.721  0.00  0.00    +0.000 N 
ATOM     13  C   UNL     1       5.158  15.112  19.917  0.00  0.00    +0.000 C 
ATOM     14  O   UNL     1       5.905  15.515  19.042  0.00  0.00    +0.000 OA
ATOM     15  N   UNL     1       5.406  15.107  21.263  0.00  0.00    +0.000 N 
ATOM     16  C   UNL     1       4.346  14.598  21.964  0.00  0.00    +0.000 C 
ATOM     17  O   UNL     1       4.238  14.456  23.164  0.00  0.00    +0.000 OA
ATOM     18  H   UNL     1       3.420  14.553  18.833  0.00  0.00    +0.000 HD
ATOM     19  H   UNL     1       6.245  15.470  21.675  0.00  0.00    +0.000 HD
ENDBRANCH   7  10
BRANCH   1  22
ATOM     20  C   UNL     1       2.484   6.614  18.478  0.00  0.00    +0.000 A 
ATOM     21  C   UNL     1       1.929   7.821  18.084  0.00  0.00    +0.000 A 
ATOM     22  C   UNL     1       1.491   8.645  19.181  0.00  0.00    +0.000 A 
ATOM     23  C   UNL     1       1.652   7.964  20.371  0.00  0.00    +0.000 A 
ATOM     24  S   UNL     1       2.366   6.429  20.180  0.00  0.00    +0.000 S 
BRANCH  20  29
ATOM     25  C   UNL     1       6.777   6.026  17.511  0.00  0.00    +0.000 C 
ATOM     26  C   UNL     1       6.490   4.570  17.135  0.00  0.00    +0.000 C 
ATOM     27  C   UNL     1       5.077   4.591  16.578  0.00  0.00    +0.000 C 
ATOM     28  N   UNL     1       4.420   5.618  17.358  0.00  0.00    +0.000 N 
ATOM     29  C   UNL     1       3.080   5.522  17.710  0.00  0.00    +0.000 C 
ATOM     30  O   UNL     1       2.440   4.515  17.406  0.00  0.00    +0.000 OA
ATOM     31  C   UNL     1       5.380   6.640  17.738  0.00  0.00    +0.000 C 
BRANCH  25  32
ATOM     32  N   UNL     1       7.532   6.700  16.457  0.00  0.00    +0.000 NA
ATOM     33  H   UNL     1       7.793   6.033  15.733  0.00  0.00    +0.000 HD
ATOM     34  H   UNL     1       8.404   7.075  16.837  0.00  0.00    +0.000 HD
ENDBRANCH  25  32
ENDBRANCH  20  29
ENDBRANCH   1  22
BRANCH   3  35
ATOM     35  N   UNL     1      -1.777  11.620  17.035  0.00  0.00    +0.000 N 
ATOM     36  H   UNL     1      -1.471  12.287  16.315  0.00  0.00    +0.000 HD
BRANCH  35  37
ATOM     37  C   UNL     1      -2.674  10.548  16.591  0.00  0.00    +0.000 C 
ATOM     38  C   UNL     1      -4.003  10.825  15.946  0.00  0.00    +0.000 C 
ATOM     39  C   UNL     1      -2.855  10.338  15.112  0.00  0.00    +0.000 C 
ENDBRANCH  35  37
ENDBRANCH   3  35
TORSDOF 6
ENDMDL
MODEL 2
REMARK VINA RESULT:      -8.2      1.983      2.693
REMARK  Name = 
REMARK  6 active torsions:
REMARK  status: ('A' for Active; 'I' for Inactive)
REMARK    1  A    between atoms: N_1  and  C_2
REMARK    2  A    between atoms: C_6  and  C_8
REMARK    3  A    between atoms: C_10  and  C_11
REMARK    4  A    between atoms: C_13  and  N_14
REMARK    5  A    between atoms: N_14  and  C_15
REMARK    6  A    between atoms: C_21  and  C_22
REMARK                            x       y       z     vdW  Elec       q    Type
REMARK                         _______ _______ _______ _____ _____    ______ ____
ROOT
ATOM      1  C   UNL     1       0.975   9.694  18.702  0.00  0.00    +0.000 A 
ATOM      2  C   UNL     1      -0.334   9.526  18.014  0.00  0.00    +0.000 A 
ATOM      3  C   UNL     1      -1.214  10.535  18.143  0.00  0.00    +0.000 A 
ATOM      4  N   UNL     1      -0.841  11.650  18.943  0.00  0.00    +0.000 N 
ATOM      5  N   UNL     1      -1.570  12.782  19.171  0.00  0.00    +0.000 NA
ATOM      6  C   UNL     1      -0.794  13.519  19.969  0.00  0.00    +0.000 A 
ATOM      7  C   UNL     1       0.426  12.891  20.285  0.00  0.00    +0.000 A 
ATOM      8  C   UNL     1       0.395  11.689  19.602  0.00  0.00    +0.000 A 
ATOM      9  N   UNL     1       1.307  10.671  19.483  0.00  0.00    +0.000 NA
ENDROOT
BRANCH   7  10
ATOM     10  C   UNL     1       1.480  13.406  21.110  0.00  0.00    +0.000 C 
ATOM     11  C   UNL     1       2.627  13.946  20.689  0.00  0.00    +0.000 C 
ATOM     12  N   UNL     1       3.043  14.111  19.399  0.00  0.00    +0.000 N 
ATOM     13  C   UNL     1       4.274  14.728  19.368  0.00  0.00    +0.000 C 
ATOM     14  O   UNL     1       4.895  15.026  18.362  0.00  0.00    +0.000 OA
ATOM     15  N   UNL     1       4.663  14.945  20.662  0.00  0.00    +0.000 N 
ATOM     16  C   UNL     1       3.720  14.499  21.548  0.00  0.00    +0.000 C 
ATOM     17  O   UNL     1       3.750  14.540  22.761  0.00  0.00    +0.000 OA
ATOM     18  H   UNL     1       2.472  13.920  18.587  0.00  0.00    +0.000 HD
ATOM     19  H   UNL     1       5.514  15.409  20.916  0.00  0.00    +0.000 HD
ENDBRANCH   7  10
BRANCH   1  22
ATOM     20  C   UNL     1       3.152   6.627  18.848  0.00  0.00    +0.000 A 
ATOM     21  C   UNL     1       2.212   7.519  19.340  0.00  0.00    +0.000 A 
ATOM     22  C   UNL     1       1.943   8.626  18.459  0.00  0.00    +0.000 A 
ATOM     23  C   UNL     1       2.783   8.567  17.365  0.00  0.00    +0.000 A 
ATOM     24  S   UNL     1       3.799   7.198  17.364  0.00  0.00    +0.000 S 
BRANCH  20  29
ATOM     25  C   UNL     1       1.597   2.529  18.145  0.00  0.00    +0.000 C 
ATOM     26  C   UNL     1       2.909   1.943  18.672  0.00  0.00    +0.000 C 
ATOM     27  C   UNL     1       3.376   2.938  19.722  0.00  0.00    +0.000 C 
ATOM     28  N   UNL     1       2.937   4.214  19.199  0.00  0.00    +0.000 N 
ATOM     29  C   UNL     1       3.678   5.373  19.386  0.00  0.00    +0.000 C 
ATOM     30  O   UNL     1       4.766   5.316  19.958  0.00  0.00    +0.000 OA
ATOM     31  C   UNL     1       1.714   4.040  18.433  0.00  0.00    +0.000 C 
BRANCH  25  32
ATOM     32  N   UNL     1       0.446   1.910  18.800  0.00  0.00    +0.000 NA
ATOM     33  H   UNL     1       0.609   0.913  18.921  0.00  0.00    +0.000 HD
ATOM     34  H   UNL     1      -0.383   2.002  18.209  0.00  0.00    +0.000 HD
ENDBRANCH  25  32
ENDBRANCH  20  29
ENDBRANCH   1  22
BRANCH   3  35
ATOM     35  N   UNL     1      -2.489  10.551  17.577  0.00  0.00    +0.000 N 
ATOM     36  H   UNL     1      -3.169  10.942  18.241  0.00  0.00    +0.000 HD
BRANCH  35  37
ATOM     37  C   UNL     1      -2.654  10.941  16.172  0.00  0.00    +0.000 C 
ATOM     38  C   UNL     1      -2.831   9.933  15.071  0.00  0.00    +0.000 C 
ATOM     39  C   UNL     1      -4.002  10.748  15.533  0.00  0.00    +0.000 C 
ENDBRANCH  35  37
ENDBRANCH   3  35
TORSDOF 6
ENDMDL
MODEL 3
REMARK VINA RESULT:      -8.0      3.804      9.872
REMARK  Name = 
REMARK  6 active torsions:
REMARK  status: ('A' for Active; 'I' for Inactive)
REMARK    1  A    between atoms: N_1  and  C_2
REMARK    2  A    between atoms: C_6  and  C_8
REMARK    3  A    between atoms: C_10  and  C_11
REMARK    4  A    between atoms: C_13  and  N_14
REMARK    5  A    between atoms: N_14  and  C_15
REMARK    6  A    between atoms: C_21  and  C_22
REMARK                            x       y       z     vdW  Elec       q    Type
REMARK                         _______ _______ _______ _____ _____    ______ ____
ROOT
ATOM      1  C   UNL     1       2.541   6.470  18.059  0.00  0.00    +0.000 A 
ATOM      2  C   UNL     1       1.636   5.535  18.780  0.00  0.00    +0.000 A 
ATOM      3  C   UNL     1       1.979   4.235  18.764  0.00  0.00    +0.000 A 
ATOM      4  N   UNL     1       3.145   3.859  18.042  0.00  0.00    +0.000 N 
ATOM      5  N   UNL     1       3.680   2.607  17.932  0.00  0.00    +0.000 NA
ATOM      6  C   UNL     1       4.761   2.776  17.166  0.00  0.00    +0.000 A 
ATOM      7  C   UNL     1       4.942   4.110  16.755  0.00  0.00    +0.000 A 
ATOM      8  C   UNL     1       3.902   4.808  17.341  0.00  0.00    +0.000 A 
ATOM      9  N   UNL     1       3.570   6.139  17.345  0.00  0.00    +0.000 NA
ENDROOT
BRANCH   7  10
ATOM     10  C   UNL     1       5.996   4.631  15.934  0.00  0.00    +0.000 C 
ATOM     11  C   UNL     1       6.235   4.321  14.656  0.00  0.00    +0.000 C 
ATOM     12  N   UNL     1       5.544   3.445  13.871  0.00  0.00    +0.000 N 
ATOM     13  C   UNL     1       6.080   3.413  12.602  0.00  0.00    +0.000 C 
ATOM     14  O   UNL     1       5.668   2.741  11.673  0.00  0.00    +0.000 OA
ATOM     15  N   UNL     1       7.146   4.271  12.580  0.00  0.00    +0.000 N 
ATOM     16  C   UNL     1       7.325   4.876  13.795  0.00  0.00    +0.000 C 
ATOM     17  O   UNL     1       8.171   5.687  14.112  0.00  0.00    +0.000 OA
ATOM     18  H   UNL     1       4.688   2.983  14.148  0.00  0.00    +0.000 HD
ATOM     19  H   UNL     1       7.695   4.454  11.761  0.00  0.00    +0.000 HD
ENDBRANCH   7  10
BRANCH   1  22
ATOM     20  C   UNL     1       0.926   9.791  18.785  0.00  0.00    +0.000 A 
ATOM     21  C   UNL     1       0.985   8.406  18.763  0.00  0.00    +0.000 A 
ATOM     22  C   UNL     1       2.193   7.885  18.179  0.00  0.00    +0.000 A 
ATOM     23  C   UNL     1       2.962   8.922  17.690  0.00  0.00    +0.000 A 
ATOM     24  S   UNL     1       2.290  10.460  17.987  0.00  0.00    +0.000 S 
BRANCH  20  29
ATOM     25  C   UNL     1      -3.087  10.663  17.098  0.00  0.00    +0.000 C 
ATOM     26  C   UNL     1      -3.504  11.301  18.426  0.00  0.00    +0.000 C 
ATOM     27  C   UNL     1      -2.224  11.905  18.977  0.00  0.00    +0.000 C 
ATOM     28  N   UNL     1      -1.197  10.985  18.536  0.00  0.00    +0.000 N 
ATOM     29  C   UNL     1      -0.079  10.713  19.313  0.00  0.00    +0.000 C 
ATOM     30  O   UNL     1       0.024  11.216  20.432  0.00  0.00    +0.000 OA
ATOM     31  C   UNL     1      -1.578  10.391  17.266  0.00  0.00    +0.000 C 
BRANCH  25  32
ATOM     32  N   UNL     1      -3.386  11.549  15.974  0.00  0.00    +0.000 NA
ATOM     33  H   UNL     1      -3.142  11.093  15.097  0.00  0.00    +0.000 HD
ATOM     34  H   UNL     1      -2.813  12.393  16.034  0.00  0.00    +0.000 HD
ENDBRANCH  25  32
ENDBRANCH  20  29
ENDBRANCH   1  22
BRANCH   3  35
ATOM     35  N   UNL     1       1.250   3.215  19.379  0.00  0.00    +0.000 N 
ATOM     36  H   UNL     1       0.760   2.653  18.671  0.00  0.00    +0.000 HD
BRANCH  35  37
ATOM     37  C   UNL     1       1.838   2.479  20.502  0.00  0.00    +0.000 C 
ATOM     38  C   UNL     1       2.584   3.165  21.613  0.00  0.00    +0.000 C 
ATOM     39  C   UNL     1       1.206   2.626  21.859  0.00  0.00    +0.000 C 
ENDBRANCH  35  37
ENDBRANCH   3  35
TORSDOF 6
ENDMDL
MODEL 4
REMARK VINA RESULT:      -7.9      1.486      2.194
REMARK  Name = 
REMARK  6 active torsions:
REMARK  status: ('A' for Active; 'I' for Inactive)
REMARK    1  A    between atoms: N_1  and  C_2
REMARK    2  A    between atoms: C_6  and  C_8
REMARK    3  A    between atoms: C_10  and  C_11
REMARK    4  A    between atoms: C_13  and  N_14
REMARK    5  A    between atoms: N_14  and  C_15
REMARK    6  A    between atoms: C_21  and  C_22
REMARK                            x       y       z     vdW  Elec       q    Type
REMARK                         _______ _______ _______ _____ _____    ______ ____
ROOT
ATOM      1  C   UNL     1       0.760  10.427  19.322  0.00  0.00    +0.000 A 
ATOM      2  C   UNL     1      -0.346  10.516  18.330  0.00  0.00    +0.000 A 
ATOM      3  C   UNL     1      -0.858  11.740  18.109  0.00  0.00    +0.000 A 
ATOM      4  N   UNL     1      -0.331  12.831  18.856  0.00  0.00    +0.000 N 
ATOM      5  N   UNL     1      -0.686  14.145  18.758  0.00  0.00    +0.000 NA
ATOM      6  C   UNL     1       0.090  14.764  19.652  0.00  0.00    +0.000 A 
ATOM      7  C   UNL     1       0.937  13.883  20.349  0.00  0.00    +0.000 A 
ATOM      8  C   UNL     1       0.672  12.636  19.815  0.00  0.00    +0.000 A 
ATOM      9  N   UNL     1       1.208  11.395  20.055  0.00  0.00    +0.000 NA
ENDROOT
BRANCH   7  10
ATOM     10  C   UNL     1       1.891  14.218  21.367  0.00  0.00    +0.000 C 
ATOM     11  C   UNL     1       3.172  14.549  21.179  0.00  0.00    +0.000 C 
ATOM     12  N   UNL     1       3.843  14.626  19.993  0.00  0.00    +0.000 N 
ATOM     13  C   UNL     1       5.146  15.021  20.206  0.00  0.00    +0.000 C 
ATOM     14  O   UNL     1       5.986  15.197  19.340  0.00  0.00    +0.000 OA
ATOM     15  N   UNL     1       5.316  15.183  21.554  0.00  0.00    +0.000 N 
ATOM     16  C   UNL     1       4.162  14.915  22.239  0.00  0.00    +0.000 C 
ATOM     17  O   UNL     1       3.971  14.964  23.436  0.00  0.00    +0.000 OA
ATOM     18  H   UNL     1       3.411  14.526  19.084  0.00  0.00    +0.000 HD
ATOM     19  H   UNL     1       6.172  15.496  21.972  0.00  0.00    +0.000 HD
ENDBRANCH   7  10
BRANCH   1  22
ATOM     20  C   UNL     1       2.566   7.159  18.847  0.00  0.00    +0.000 A 
ATOM     21  C   UNL     1       2.064   8.383  18.433  0.00  0.00    +0.000 A 
ATOM     22  C   UNL     1       1.359   9.100  19.463  0.00  0.00    +0.000 A 
ATOM     23  C   UNL     1       1.276   8.324  20.602  0.00  0.00    +0.000 A 
ATOM     24  S   UNL     1       2.077   6.826  20.458  0.00  0.00    +0.000 S 
BRANCH  20  29
ATOM     25  C   UNL     1       1.547   2.885  18.214  0.00  0.00    +0.000 C 
ATOM     26  C   UNL     1       2.628   2.790  17.132  0.00  0.00    +0.000 C 
ATOM     27  C   UNL     1       3.704   3.763  17.583  0.00  0.00    +0.000 C 
ATOM     28  N   UNL     1       2.956   4.824  18.224  0.00  0.00    +0.000 N 
ATOM     29  C   UNL     1       3.363   6.149  18.152  0.00  0.00    +0.000 C 
ATOM     30  O   UNL     1       4.351   6.449  17.481  0.00  0.00    +0.000 OA
ATOM     31  C   UNL     1       1.753   4.283  18.832  0.00  0.00    +0.000 C 
BRANCH  25  32
ATOM     32  N   UNL     1       1.684   1.803  19.187  0.00  0.00    +0.000 NA
ATOM     33  H   UNL     1       2.210   2.128  19.997  0.00  0.00    +0.000 HD
ATOM     34  H   UNL     1       2.218   1.033  18.781  0.00  0.00    +0.000 HD
ENDBRANCH  25  32
ENDBRANCH  20  29
ENDBRANCH   1  22
BRANCH   3  35
ATOM     35  N   UNL     1      -1.899  12.016  17.222  0.00  0.00    +0.000 N 
ATOM     36  H   UNL     1      -1.583  12.670  16.495  0.00  0.00    +0.000 HD
BRANCH  35  37
ATOM     37  C   UNL     1      -2.783  10.932  16.783  0.00  0.00    +0.000 C 
ATOM     38  C   UNL     1      -4.212  11.171  16.378  0.00  0.00    +0.000 C 
ATOM     39  C   UNL     1      -3.177  10.878  15.332  0.00  0.00    +0.000 C 
ENDBRANCH  35  37
ENDBRANCH   3  35
TORSDOF 6
ENDMDL
MODEL 5
REMARK VINA RESULT:      -7.8      2.059      2.828
REMARK  Name = 
REMARK  6 active torsions:
REMARK  status: ('A' for Active; 'I' for Inactive)
REMARK    1  A    between atoms: N_1  and  C_2
REMARK    2  A    between atoms: C_6  and  C_8
REMARK    3  A    between atoms: C_10  and  C_11
REMARK    4  A    between atoms: C_13  and  N_14
REMARK    5  A    between atoms: N_14  and  C_15
REMARK    6  A    between atoms: C_21  and  C_22
REMARK                            x       y       z     vdW  Elec       q    Type
REMARK                         _______ _______ _______ _____ _____    ______ ____
ROOT
ATOM      1  C   UNL     1       1.181   9.331  18.277  0.00  0.00    +0.000 A 
ATOM      2  C   UNL     1      -0.145   9.153  17.625  0.00  0.00    +0.000 A 
ATOM      3  C   UNL     1      -1.027  10.157  17.774  0.00  0.00    +0.000 A 
ATOM      4  N   UNL     1      -0.639  11.278  18.559  0.00  0.00    +0.000 N 
ATOM      5  N   UNL     1      -1.368  12.406  18.802  0.00  0.00    +0.000 NA
ATOM      6  C   UNL     1      -0.575  13.151  19.576  0.00  0.00    +0.000 A 
ATOM      7  C   UNL     1       0.656  12.531  19.862  0.00  0.00    +0.000 A 
ATOM      8  C   UNL     1       0.614  11.327  19.185  0.00  0.00    +0.000 A 
ATOM      9  N   UNL     1       1.529  10.313  19.046  0.00  0.00    +0.000 NA
ENDROOT
BRANCH   7  10
ATOM     10  C   UNL     1       1.729  13.055  20.657  0.00  0.00    +0.000 C 
ATOM     11  C   UNL     1       2.792  13.731  20.210  0.00  0.00    +0.000 C 
ATOM     12  N   UNL     1       3.088  14.053  18.918  0.00  0.00    +0.000 N 
ATOM     13  C   UNL     1       4.260  14.774  18.860  0.00  0.00    +0.000 C 
ATOM     14  O   UNL     1       4.772  15.219  17.848  0.00  0.00    +0.000 OA
ATOM     15  N   UNL     1       4.732  14.901  20.138  0.00  0.00    +0.000 N 
ATOM     16  C   UNL     1       3.902  14.293  21.041  0.00  0.00    +0.000 C 
ATOM     17  O   UNL     1       4.026  14.222  22.246  0.00  0.00    +0.000 OA
ATOM     18  H   UNL     1       2.471  13.890  18.133  0.00  0.00    +0.000 HD
ATOM     19  H   UNL     1       5.562  15.412  20.375  0.00  0.00    +0.000 HD
ENDBRANCH   7  10
BRANCH   1  22
ATOM     20  C   UNL     1       3.007   6.066  17.868  0.00  0.00    +0.000 A 
ATOM     21  C   UNL     1       1.937   6.862  18.243  0.00  0.00    +0.000 A 
ATOM     22  C   UNL     1       2.149   8.267  18.012  0.00  0.00    +0.000 A 
ATOM     23  C   UNL     1       3.435   8.478  17.556  0.00  0.00    +0.000 A 
ATOM     24  S   UNL     1       4.322   7.038  17.345  0.00  0.00    +0.000 S 
BRANCH  20  29
ATOM     25  C   UNL     1       1.408   3.181  20.839  0.00  0.00    +0.000 C 
ATOM     26  C   UNL     1       1.706   2.028  19.877  0.00  0.00    +0.000 C 
ATOM     27  C   UNL     1       2.941   2.478  19.114  0.00  0.00    +0.000 C 
ATOM     28  N   UNL     1       2.769   3.912  19.007  0.00  0.00    +0.000 N 
ATOM     29  C   UNL     1       3.195   4.615  17.888  0.00  0.00    +0.000 C 
ATOM     30  O   UNL     1       3.678   4.009  16.932  0.00  0.00    +0.000 OA
ATOM     31  C   UNL     1       2.050   4.411  20.166  0.00  0.00    +0.000 C 
BRANCH  25  32
ATOM     32  N   UNL     1       1.951   2.909  22.168  0.00  0.00    +0.000 NA
ATOM     33  H   UNL     1       1.519   3.525  22.854  0.00  0.00    +0.000 HD
ATOM     34  H   UNL     1       2.952   3.110  22.184  0.00  0.00    +0.000 HD
ENDBRANCH  25  32
ENDBRANCH  20  29
ENDBRANCH   1  22
BRANCH   3  35
ATOM     35  N   UNL     1      -2.316  10.164  17.241  0.00  0.00    +0.000 N 
ATOM     36  H   UNL     1      -3.007  10.332  17.984  0.00  0.00    +0.000 HD
BRANCH  35  37
ATOM     37  C   UNL     1      -2.567  10.826  15.957  0.00  0.00    +0.000 C 
ATOM     38  C   UNL     1      -3.047  10.078  14.744  0.00  0.00    +0.000 C 
ATOM     39  C   UNL     1      -3.992  10.969  15.495  0.00  0.00    +0.000 C 
ENDBRANCH  35  37
ENDBRANCH   3  35
TORSDOF 6
ENDMDL
MODEL 6
REMARK VINA RESULT:      -7.8      5.134      8.499
REMARK  Name = 
REMARK  6 active torsions:
REMARK  status: ('A' for Active; 'I' for Inactive)
REMARK    1  A    between atoms: N_1  and  C_2
REMARK    2  A    between atoms: C_6  and  C_8
REMARK    3  A    between atoms: C_10  and  C_11
REMARK    4  A    between atoms: C_13  and  N_14
REMARK    5  A    between atoms: N_14  and  C_15
REMARK    6  A    between atoms: C_21  and  C_22
REMARK                            x       y       z     vdW  Elec       q    Type
REMARK                         _______ _______ _______ _____ _____    ______ ____
ROOT
ATOM      1  C   UNL     1      -2.936  12.060  19.133  0.00  0.00    +0.000 A 
ATOM      2  C   UNL     1      -3.028  11.368  17.819  0.00  0.00    +0.000 A 
ATOM      3  C   UNL     1      -4.223  11.405  17.203  0.00  0.00    +0.000 A 
ATOM      4  N   UNL     1      -5.296  12.064  17.863  0.00  0.00    +0.000 N 
ATOM      5  N   UNL     1      -6.567  12.241  17.397  0.00  0.00    +0.000 NA
ATOM      6  C   UNL     1      -7.185  12.916  18.369  0.00  0.00    +0.000 A 
ATOM      7  C   UNL     1      -6.352  13.174  19.475  0.00  0.00    +0.000 A 
ATOM      8  C   UNL     1      -5.127  12.636  19.131  0.00  0.00    +0.000 A 
ATOM      9  N   UNL     1      -3.916  12.610  19.777  0.00  0.00    +0.000 NA
ENDROOT
BRANCH   7  10
ATOM     10  C   UNL     1      -6.699  13.874  20.678  0.00  0.00    +0.000 C 
ATOM     11  C   UNL     1      -7.053  13.324  21.844  0.00  0.00    +0.000 C 
ATOM     12  N   UNL     1      -7.172  11.996  22.132  0.00  0.00    +0.000 N 
ATOM     13  C   UNL     1      -7.537  11.823  23.450  0.00  0.00    +0.000 C 
ATOM     14  O   UNL     1      -7.703  10.752  24.007  0.00  0.00    +0.000 OA
ATOM     15  N   UNL     1      -7.672  13.065  24.009  0.00  0.00    +0.000 N 
ATOM     16  C   UNL     1      -7.398  14.054  23.103  0.00  0.00    +0.000 C 
ATOM     17  O   UNL     1      -7.422  15.255  23.273  0.00  0.00    +0.000 OA
ATOM     18  H   UNL     1      -6.909  11.249  21.503  0.00  0.00    +0.000 HD
ATOM     19  H   UNL     1      -7.905  13.217  24.972  0.00  0.00    +0.000 HD
ENDBRANCH   7  10
BRANCH   1  22
ATOM     20  C   UNL     1       0.394  13.011  20.606  0.00  0.00    +0.000 A 
ATOM     21  C   UNL     1      -0.827  13.269  20.003  0.00  0.00    +0.000 A 
ATOM     22  C   UNL     1      -1.600  12.086  19.727  0.00  0.00    +0.000 A 
ATOM     23  C   UNL     1      -0.868  10.962  20.054  0.00  0.00    +0.000 A 
ATOM     24  S   UNL     1       0.654  11.320  20.731  0.00  0.00    +0.000 S 
BRANCH  20  29
ATOM     25  C   UNL     1       3.510  15.047  18.186  0.00  0.00    +0.000 C 
ATOM     26  C   UNL     1       3.801  15.989  19.358  0.00  0.00    +0.000 C 
ATOM     27  C   UNL     1       3.533  15.150  20.596  0.00  0.00    +0.000 C 
ATOM     28  N   UNL     1       2.441  14.290  20.193  0.00  0.00    +0.000 N 
ATOM     29  C   UNL     1       1.450  13.903  21.085  0.00  0.00    +0.000 C 
ATOM     30  O   UNL     1       1.457  14.343  22.235  0.00  0.00    +0.000 OA
ATOM     31  C   UNL     1       2.534  14.005  18.771  0.00  0.00    +0.000 C 
BRANCH  25  32
ATOM     32  N   UNL     1       4.742  14.451  17.673  0.00  0.00    +0.000 NA
ATOM     33  H   UNL     1       5.484  14.535  18.366  0.00  0.00    +0.000 HD
ATOM     34  H   UNL     1       5.056  14.958  16.844  0.00  0.00    +0.000 HD
ENDBRANCH  25  32
ENDBRANCH  20  29
ENDBRANCH   1  22
BRANCH   3  35
ATOM     35  N   UNL     1      -4.498  10.808  15.972  0.00  0.00    +0.000 N 
ATOM     36  H   UNL     1      -5.446  11.055  15.661  0.00  0.00    +0.000 HD
BRANCH  35  37
ATOM     37  C   UNL     1      -3.462  10.773  14.935  0.00  0.00    +0.000 C 
ATOM     38  C   UNL     1      -2.639   9.545  14.659  0.00  0.00    +0.000 C 
ATOM     39  C   UNL     1      -3.718   9.954  13.700  0.00  0.00    +0.000 C 
ENDBRANCH  35  37
ENDBRANCH   3  35
TORSDOF 6
ENDMDL
MODEL 7
REMARK VINA RESULT:      -7.8      3.566      9.928
REMARK  Name = 
REMARK  6 active torsions:
REMARK  status: ('A' for Active; 'I' for Inactive)
REMARK    1  A    between atoms: N_1  and  C_2
REMARK    2  A    between atoms: C_6  and  C_8
REMARK    3  A    between atoms: C_10  and  C_11
REMARK    4  A    between atoms: C_13  and  N_14
REMARK    5  A    between atoms: N_14  and  C_15
REMARK    6  A    between atoms: C_21  and  C_22
REMARK                            x       y       z     vdW  Elec       q    Type
REMARK                         _______ _______ _______ _____ _____    ______ ____
ROOT
ATOM      1  C   UNL     1       2.577   6.174  18.297  0.00  0.00    +0.000 A 
ATOM      2  C   UNL     1       1.677   5.186  18.952  0.00  0.00    +0.000 A 
ATOM      3  C   UNL     1       1.994   3.889  18.795  0.00  0.00    +0.000 A 
ATOM      4  N   UNL     1       3.128   3.568  17.999  0.00  0.00    +0.000 N 
ATOM      5  N   UNL     1       3.634   2.326  17.746  0.00  0.00    +0.000 NA
ATOM      6  C   UNL     1       4.692   2.553  16.963  0.00  0.00    +0.000 A 
ATOM      7  C   UNL     1       4.886   3.918  16.682  0.00  0.00    +0.000 A 
ATOM      8  C   UNL     1       3.880   4.570  17.370  0.00  0.00    +0.000 A 
ATOM      9  N   UNL     1       3.574   5.900  17.518  0.00  0.00    +0.000 NA
ENDROOT
BRANCH   7  10
ATOM     10  C   UNL     1       5.923   4.501  15.881  0.00  0.00    +0.000 C 
ATOM     11  C   UNL     1       6.187   4.227  14.599  0.00  0.00    +0.000 C 
ATOM     12  N   UNL     1       5.543   3.335  13.792  0.00  0.00    +0.000 N 
ATOM     13  C   UNL     1       6.091   3.351  12.528  0.00  0.00    +0.000 C 
ATOM     14  O   UNL     1       5.718   2.678  11.582  0.00  0.00    +0.000 OA
ATOM     15  N   UNL     1       7.117   4.256  12.532  0.00  0.00    +0.000 N 
ATOM     16  C   UNL     1       7.258   4.846  13.759  0.00  0.00    +0.000 C 
ATOM     17  O   UNL     1       8.063   5.688  14.099  0.00  0.00    +0.000 OA
ATOM     18  H   UNL     1       4.707   2.830  14.052  0.00  0.00    +0.000 HD
ATOM     19  H   UNL     1       7.664   4.479  11.722  0.00  0.00    +0.000 HD
ENDBRANCH   7  10
BRANCH   1  22
ATOM     20  C   UNL     1       1.516   9.460  19.794  0.00  0.00    +0.000 A 
ATOM     21  C   UNL     1       1.673   8.084  19.782  0.00  0.00    +0.000 A 
ATOM     22  C   UNL     1       2.261   7.576  18.570  0.00  0.00    +0.000 A 
ATOM     23  C   UNL     1       2.433   8.605  17.667  0.00  0.00    +0.000 A 
ATOM     24  S   UNL     1       1.975  10.127  18.281  0.00  0.00    +0.000 S 
BRANCH  20  29
ATOM     25  C   UNL     1      -1.300  12.847  19.239  0.00  0.00    +0.000 C 
ATOM     26  C   UNL     1      -1.548  12.885  20.749  0.00  0.00    +0.000 C 
ATOM     27  C   UNL     1      -0.229  12.447  21.363  0.00  0.00    +0.000 C 
ATOM     28  N   UNL     1       0.284  11.483  20.412  0.00  0.00    +0.000 N 
ATOM     29  C   UNL     1       1.011  10.373  20.819  0.00  0.00    +0.000 C 
ATOM     30  O   UNL     1       1.179  10.160  22.020  0.00  0.00    +0.000 OA
ATOM     31  C   UNL     1      -0.148  11.836  19.070  0.00  0.00    +0.000 C 
BRANCH  25  32
ATOM     32  N   UNL     1      -0.974  14.177  18.727  0.00  0.00    +0.000 NA
ATOM     33  H   UNL     1      -1.710  14.500  18.103  0.00  0.00    +0.000 HD
ATOM     34  H   UNL     1      -0.116  14.136  18.173  0.00  0.00    +0.000 HD
ENDBRANCH  25  32
ENDBRANCH  20  29
ENDBRANCH   1  22
BRANCH   3  35
ATOM     35  N   UNL     1       1.266   2.825  19.329  0.00  0.00    +0.000 N 
ATOM     36  H   UNL     1       0.922   2.216  18.576  0.00  0.00    +0.000 HD
BRANCH  35  37
ATOM     37  C   UNL     1       1.746   2.154  20.542  0.00  0.00    +0.000 C 
ATOM     38  C   UNL     1       2.675   2.821  21.518  0.00  0.00    +0.000 C 
ATOM     39  C   UNL     1       1.229   2.631  21.872  0.00  0.00    +0.000 C 
ENDBRANCH  35  37
ENDBRANCH   3  35
TORSDOF 6
ENDMDL
MODEL 8
REMARK VINA RESULT:      -7.8      3.203      5.489
REMARK  Name = 
REMARK  6 active torsions:
REMARK  status: ('A' for Active; 'I' for Inactive)
REMARK    1  A    between atoms: N_1  and  C_2
REMARK    2  A    between atoms: C_6  and  C_8
REMARK    3  A    between atoms: C_10  and  C_11
REMARK    4  A    between atoms: C_13  and  N_14
REMARK    5  A    between atoms: N_14  and  C_15
REMARK    6  A    between atoms: C_21  and  C_22
REMARK                            x       y       z     vdW  Elec       q    Type
REMARK                         _______ _______ _______ _____ _____    ______ ____
ROOT
ATOM      1  C   UNL     1       1.227  10.695  19.056  0.00  0.00    +0.000 A 
ATOM      2  C   UNL     1       2.271  11.464  18.326  0.00  0.00    +0.000 A 
ATOM      3  C   UNL     1       2.079  12.791  18.226  0.00  0.00    +0.000 A 
ATOM      4  N   UNL     1       0.894  13.341  18.789  0.00  0.00    +0.000 N 
ATOM      5  N   UNL     1       0.530  14.656  18.825  0.00  0.00    +0.000 NA
ATOM      6  C   UNL     1      -0.645  14.657  19.458  0.00  0.00    +0.000 A 
ATOM      7  C   UNL     1      -1.073  13.367  19.827  0.00  0.00    +0.000 A 
ATOM      8  C   UNL     1      -0.062  12.523  19.407  0.00  0.00    +0.000 A 
ATOM      9  N   UNL     1       0.114  11.167  19.520  0.00  0.00    +0.000 NA
ENDROOT
BRANCH   7  10
ATOM     10  C   UNL     1      -2.280  13.017  20.518  0.00  0.00    +0.000 C 
ATOM     11  C   UNL     1      -3.422  12.600  19.963  0.00  0.00    +0.000 C 
ATOM     12  N   UNL     1      -3.685  12.430  18.634  0.00  0.00    +0.000 N 
ATOM     13  C   UNL     1      -4.969  11.964  18.456  0.00  0.00    +0.000 C 
ATOM     14  O   UNL     1      -5.487  11.699  17.385  0.00  0.00    +0.000 OA
ATOM     15  N   UNL     1      -5.544  11.850  19.693  0.00  0.00    +0.000 N 
ATOM     16  C   UNL     1      -4.676  12.219  20.684  0.00  0.00    +0.000 C 
ATOM     17  O   UNL     1      -4.866  12.233  21.882  0.00  0.00    +0.000 OA
ATOM     18  H   UNL     1      -2.995  12.517  17.900  0.00  0.00    +0.000 HD
ATOM     19  H   UNL     1      -6.472  11.502  19.843  0.00  0.00    +0.000 HD
ENDBRANCH   7  10
BRANCH   1  22
ATOM     20  C   UNL     1       2.187   7.078  18.646  0.00  0.00    +0.000 A 
ATOM     21  C   UNL     1       1.945   8.367  18.198  0.00  0.00    +0.000 A 
ATOM     22  C   UNL     1       1.516   9.272  19.233  0.00  0.00    +0.000 A 
ATOM     23  C   UNL     1       1.357   8.584  20.419  0.00  0.00    +0.000 A 
ATOM     24  S   UNL     1       1.778   6.936  20.307  0.00  0.00    +0.000 S 
BRANCH  20  29
ATOM     25  C   UNL     1       6.377   6.089  17.561  0.00  0.00    +0.000 C 
ATOM     26  C   UNL     1       5.970   4.631  17.329  0.00  0.00    +0.000 C 
ATOM     27  C   UNL     1       4.537   4.711  16.830  0.00  0.00    +0.000 C 
ATOM     28  N   UNL     1       3.992   5.847  17.542  0.00  0.00    +0.000 N 
ATOM     29  C   UNL     1       2.667   5.882  17.955  0.00  0.00    +0.000 C 
ATOM     30  O   UNL     1       1.943   4.904  17.769  0.00  0.00    +0.000 OA
ATOM     31  C   UNL     1       5.040   6.823  17.790  0.00  0.00    +0.000 C 
BRANCH  25  32
ATOM     32  N   UNL     1       7.128   6.612  16.422  0.00  0.00    +0.000 NA
ATOM     33  H   UNL     1       7.274   7.613  16.531  0.00  0.00    +0.000 HD
ATOM     34  H   UNL     1       6.589   6.487  15.562  0.00  0.00    +0.000 HD
ENDBRANCH  25  32
ENDBRANCH  20  29
ENDBRANCH   1  22
BRANCH   3  35
ATOM     35  N   UNL     1       2.944  13.670  17.574  0.00  0.00    +0.000 N 
ATOM     36  H   UNL     1       2.438  14.195  16.849  0.00  0.00    +0.000 HD
BRANCH  35  37
ATOM     37  C   UNL     1       3.935  14.422  18.351  0.00  0.00    +0.000 C 
ATOM     38  C   UNL     1       5.292  14.771  17.804  0.00  0.00    +0.000 C 
ATOM     39  C   UNL     1       4.242  15.835  17.935  0.00  0.00    +0.000 C 
ENDBRANCH  35  37
ENDBRANCH   3  35
TORSDOF 6
ENDMDL
MODEL 9
REMARK VINA RESULT:      -7.7      1.575      1.857
REMARK  Name = 
REMARK  6 active torsions:
REMARK  status: ('A' for Active; 'I' for Inactive)
REMARK    1  A    between atoms: N_1  and  C_2
REMARK    2  A    between atoms: C_6  and  C_8
REMARK    3  A    between atoms: C_10  and  C_11
REMARK    4  A    between atoms: C_13  and  N_14
REMARK    5  A    between atoms: N_14  and  C_15
REMARK    6  A    between atoms: C_21  and  C_22
REMARK                            x       y       z     vdW  Elec       q    Type
REMARK                         _______ _______ _______ _____ _____    ______ ____
ROOT
ATOM      1  C   UNL     1       1.085   9.938  19.053  0.00  0.00    +0.000 A 
ATOM      2  C   UNL     1      -0.388  10.060  19.224  0.00  0.00    +0.000 A 
ATOM      3  C   UNL     1      -0.916  11.282  19.038  0.00  0.00    +0.000 A 
ATOM      4  N   UNL     1      -0.031  12.353  18.728  0.00  0.00    +0.000 N 
ATOM      5  N   UNL     1      -0.366  13.651  18.470  0.00  0.00    +0.000 NA
ATOM      6  C   UNL     1       0.803  14.252  18.233  0.00  0.00    +0.000 A 
ATOM      7  C   UNL     1       1.903  13.381  18.345  0.00  0.00    +0.000 A 
ATOM      8  C   UNL     1       1.353  12.150  18.648  0.00  0.00    +0.000 A 
ATOM      9  N   UNL     1       1.912  10.910  18.835  0.00  0.00    +0.000 NA
ENDROOT
BRANCH   7  10
ATOM     10  C   UNL     1       3.288  13.702  18.152  0.00  0.00    +0.000 C 
ATOM     11  C   UNL     1       3.903  14.827  18.529  0.00  0.00    +0.000 C 
ATOM     12  N   UNL     1       3.351  15.904  19.158  0.00  0.00    +0.000 N 
ATOM     13  C   UNL     1       4.311  16.862  19.401  0.00  0.00    +0.000 C 
ATOM     14  O   UNL     1       4.127  17.926  19.965  0.00  0.00    +0.000 OA
ATOM     15  N   UNL     1       5.497  16.396  18.901  0.00  0.00    +0.000 N 
ATOM     16  C   UNL     1       5.351  15.155  18.343  0.00  0.00    +0.000 C 
ATOM     17  O   UNL     1       6.198  14.464  17.817  0.00  0.00    +0.000 OA
ATOM     18  H   UNL     1       2.401  15.938  19.505  0.00  0.00    +0.000 HD
ATOM     19  H   UNL     1       6.364  16.893  18.975  0.00  0.00    +0.000 HD
ENDBRANCH   7  10
BRANCH   1  22
ATOM     20  C   UNL     1       2.560   6.526  18.462  0.00  0.00    +0.000 A 
ATOM     21  C   UNL     1       2.075   7.764  18.072  0.00  0.00    +0.000 A 
ATOM     22  C   UNL     1       1.611   8.578  19.165  0.00  0.00    +0.000 A 
ATOM     23  C   UNL     1       1.679   7.861  20.343  0.00  0.00    +0.000 A 
ATOM     24  S   UNL     1       2.342   6.303  20.150  0.00  0.00    +0.000 S 
BRANCH  20  29
ATOM     25  C   UNL     1       6.845   5.950  17.453  0.00  0.00    +0.000 C 
ATOM     26  C   UNL     1       6.562   4.488  17.096  0.00  0.00    +0.000 C 
ATOM     27  C   UNL     1       5.143   4.497  16.554  0.00  0.00    +0.000 C 
ATOM     28  N   UNL     1       4.488   5.528  17.331  0.00  0.00    +0.000 N 
ATOM     29  C   UNL     1       3.153   5.429  17.699  0.00  0.00    +0.000 C 
ATOM     30  O   UNL     1       2.515   4.416  17.413  0.00  0.00    +0.000 OA
ATOM     31  C   UNL     1       5.447   6.559  17.690  0.00  0.00    +0.000 C 
BRANCH  25  32
ATOM     32  N   UNL     1       7.585   6.618  16.384  0.00  0.00    +0.000 NA
ATOM     33  H   UNL     1       8.536   6.817  16.691  0.00  0.00    +0.000 HD
ATOM     34  H   UNL     1       7.152   7.518  16.170  0.00  0.00    +0.000 HD
ENDBRANCH  25  32
ENDBRANCH  20  29
ENDBRANCH   1  22
BRANCH   3  35
ATOM     35  N   UNL     1      -2.271  11.588  19.161  0.00  0.00    +0.000 N 
ATOM     36  H   UNL     1      -2.400  12.380  19.804  0.00  0.00    +0.000 HD
BRANCH  35  37
ATOM     37  C   UNL     1      -3.131  11.568  17.973  0.00  0.00    +0.000 C 
ATOM     38  C   UNL     1      -3.058  10.474  16.944  0.00  0.00    +0.000 C 
ATOM     39  C   UNL     1      -4.216  10.529  17.896  0.00  0.00    +0.000 C 
ENDBRANCH  35  37
ENDBRANCH   3  35
TORSDOF 6
ENDMDL
