MODEL 1
REMARK VINA RESULT:      -8.8      0.000      0.000
REMARK  Name = 
REMARK  6 active torsions:
REMARK  status: ('A' for Active; 'I' for Inactive)
REMARK    1  A    between atoms: N_7  and  C_8
REMARK    2  A    between atoms: C_8  and  C_9
REMARK    3  A    between atoms: C_12  and  N_13
REMARK    4  A    between atoms: C_15  and  C_16
REMARK    5  A    between atoms: C_16  and  N_17
REMARK    6  A    between atoms: C_22  and  C_23
REMARK                            x       y       z     vdW  Elec       q    Type
REMARK                         _______ _______ _______ _____ _____    ______ ____
ROOT
ATOM      1  N   UNL     1       3.395  14.609  19.113  0.00  0.00    +0.000 N 
ATOM      2  C   UNL     1       2.827  13.419  19.507  0.00  0.00    +0.000 A 
ATOM      3  C   UNL     1       1.465  13.637  19.468  0.00  0.00    +0.000 A 
ATOM      4  N   UNL     1       1.239  14.927  19.054  0.00  0.00    +0.000 NA
ATOM      5  N   UNL     1       2.415  15.492  18.794  0.00  0.00    +0.000 NA
ENDROOT
BRANCH   1   9
ATOM      6  C   UNL     1       7.545  15.416  19.074  0.00  0.00    +0.000 A 
ATOM      7  C   UNL     1       6.798  15.597  20.249  0.00  0.00    +0.000 A 
ATOM      8  C   UNL     1       5.420  15.346  20.266  0.00  0.00    +0.000 A 
ATOM      9  C   UNL     1       4.768  14.951  19.091  0.00  0.00    +0.000 A 
ATOM     10  C   UNL     1       5.494  14.843  17.898  0.00  0.00    +0.000 A 
ATOM     11  C   UNL     1       6.876  15.056  17.898  0.00  0.00    +0.000 A 
BRANCH   6  12
ATOM     12  C   UNL     1       9.061  15.491  19.091  0.00  0.00    +0.000 C 
BRANCH  12  19
ATOM     13  O   UNL     1      10.877  15.155  17.038  0.00  0.00    +0.000 OA
ATOM     14  C   UNL     1      10.493  14.137  17.610  0.00  0.00    +0.000 A 
ATOM     15  N   UNL     1      10.863  12.893  17.152  0.00  0.00    +0.000 NA
ATOM     16  C   UNL     1      10.508  11.858  17.831  0.00  0.00    +0.000 A 
ATOM     17  C   UNL     1       9.764  11.870  19.094  0.00  0.00    +0.000 A 
ATOM     18  C   UNL     1       9.337  13.076  19.464  0.00  0.00    +0.000 A 
ATOM     19  N   UNL     1       9.655  14.202  18.732  0.00  0.00    +0.000 N 
ENDBRANCH  12  19
ENDBRANCH   6  12
ENDBRANCH   1   9
BRANCH   3  20
ATOM     20  C   UNL     1       0.355  12.709  19.840  0.00  0.00    +0.000 C 
BRANCH  20  21
ATOM     21  N   UNL     1       0.633  11.255  19.826  0.00  0.00    +0.000 N 
ATOM     22  C   UNL     1       0.594  10.546  21.029  0.00  0.00    +0.000 A 
ATOM     23  C   UNL     1       0.992   9.275  21.185  0.00  0.00    +0.000 A 
ATOM     24  C   UNL     1       1.488   8.621  19.980  0.00  0.00    +0.000 A 
ATOM     25  N   UNL     1       1.973   7.439  19.828  0.00  0.00    +0.000 NA
ATOM     26  C   UNL     1       2.276   7.372  18.463  0.00  0.00    +0.000 A 
ATOM     27  N   UNL     1       1.997   8.443  17.757  0.00  0.00    +0.000 NA
ATOM     28  C   UNL     1       1.487   9.311  18.687  0.00  0.00    +0.000 A 
ATOM     29  C   UNL     1       1.063  10.581  18.668  0.00  0.00    +0.000 A 
BRANCH  26  30
ATOM     30  C   UNL     1       2.878   6.093  17.992  0.00  0.00    +0.000 A 
ATOM     31  C   UNL     1       2.077   4.933  18.014  0.00  0.00    +0.000 A 
ATOM     32  C   UNL     1       2.568   3.703  17.573  0.00  0.00    +0.000 A 
ATOM     33  C   UNL     1       3.873   3.613  17.103  0.00  0.00    +0.000 A 
ATOM     34  C   UNL     1       4.680   4.754  17.083  0.00  0.00    +0.000 A 
ATOM     35  C   UNL     1       4.183   5.986  17.528  0.00  0.00    +0.000 A 
ATOM     36  F   UNL     1       5.002   7.046  17.480  0.00  0.00    +0.000 F 
ENDBRANCH  26  30
ENDBRANCH  20  21
ENDBRANCH   3  20
TORSDOF 6
ENDMDL
MODEL 2
REMARK VINA RESULT:      -8.5      0.913      1.213
REMARK  Name = 
REMARK  6 active torsions:
REMARK  status: ('A' for Active; 'I' for Inactive)
REMARK    1  A    between atoms: N_7  and  C_8
REMARK    2  A    between atoms: C_8  and  C_9
REMARK    3  A    between atoms: C_12  and  N_13
REMARK    4  A    between atoms: C_15  and  C_16
REMARK    5  A    between atoms: C_16  and  N_17
REMARK    6  A    between atoms: C_22  and  C_23
REMARK                            x       y       z     vdW  Elec       q    Type
REMARK                         _______ _______ _______ _____ _____    ______ ____
ROOT
ATOM      1  N   UNL     1       3.144  14.503  19.721  0.00  0.00    +0.000 N 
ATOM      2  C   UNL     1       2.570  13.271  19.502  0.00  0.00    +0.000 A 
ATOM      3  C   UNL     1       1.256  13.408  19.898  0.00  0.00    +0.000 A 
ATOM      4  N   UNL     1       1.062  14.696  20.336  0.00  0.00    +0.000 NA
ATOM      5  N   UNL     1       2.200  15.365  20.177  0.00  0.00    +0.000 NA
ENDROOT
BRANCH   1   9
ATOM      6  C   UNL     1       7.263  15.363  19.311  0.00  0.00    +0.000 A 
ATOM      7  C   UNL     1       6.652  15.405  20.573  0.00  0.00    +0.000 A 
ATOM      8  C   UNL     1       5.285  15.136  20.716  0.00  0.00    +0.000 A 
ATOM      9  C   UNL     1       4.506  14.863  19.585  0.00  0.00    +0.000 A 
ATOM     10  C   UNL     1       5.094  14.896  18.314  0.00  0.00    +0.000 A 
ATOM     11  C   UNL     1       6.467  15.125  18.183  0.00  0.00    +0.000 A 
BRANCH   6  12
ATOM     12  C   UNL     1       8.771  15.456  19.168  0.00  0.00    +0.000 C 
BRANCH  12  19
ATOM     13  O   UNL     1      10.705  15.136  17.222  0.00  0.00    +0.000 OA
ATOM     14  C   UNL     1      10.251  14.111  17.725  0.00  0.00    +0.000 A 
ATOM     15  N   UNL     1      10.608  12.873  17.240  0.00  0.00    +0.000 NA
ATOM     16  C   UNL     1      10.175  11.826  17.851  0.00  0.00    +0.000 A 
ATOM     17  C   UNL     1       9.351  11.815  19.063  0.00  0.00    +0.000 A 
ATOM     18  C   UNL     1       8.942  13.020  19.455  0.00  0.00    +0.000 A 
ATOM     19  N   UNL     1       9.344  14.162  18.793  0.00  0.00    +0.000 N 
ENDBRANCH  12  19
ENDBRANCH   6  12
ENDBRANCH   1   9
BRANCH   3  20
ATOM     20  C   UNL     1       0.173  12.380  19.931  0.00  0.00    +0.000 C 
BRANCH  20  21
ATOM     21  N   UNL     1       0.570  10.954  19.885  0.00  0.00    +0.000 N 
ATOM     22  C   UNL     1       0.635  10.231  21.079  0.00  0.00    +0.000 A 
ATOM     23  C   UNL     1       1.142   8.996  21.202  0.00  0.00    +0.000 A 
ATOM     24  C   UNL     1       1.646   8.399  19.970  0.00  0.00    +0.000 A 
ATOM     25  N   UNL     1       2.221   7.264  19.785  0.00  0.00    +0.000 NA
ATOM     26  C   UNL     1       2.477   7.237  18.409  0.00  0.00    +0.000 A 
ATOM     27  N   UNL     1       2.085   8.290  17.728  0.00  0.00    +0.000 NA
ATOM     28  C   UNL     1       1.540   9.101  18.688  0.00  0.00    +0.000 A 
ATOM     29  C   UNL     1       1.011  10.332  18.704  0.00  0.00    +0.000 A 
BRANCH  26  30
ATOM     30  C   UNL     1       3.166   6.019  17.898  0.00  0.00    +0.000 A 
ATOM     31  C   UNL     1       4.503   6.143  17.467  0.00  0.00    +0.000 A 
ATOM     32  C   UNL     1       5.217   5.041  16.992  0.00  0.00    +0.000 A 
ATOM     33  C   UNL     1       4.603   3.795  16.939  0.00  0.00    +0.000 A 
ATOM     34  C   UNL     1       3.276   3.661  17.356  0.00  0.00    +0.000 A 
ATOM     35  C   UNL     1       2.563   4.769  17.831  0.00  0.00    +0.000 A 
ATOM     36  F   UNL     1       1.295   4.578  18.222  0.00  0.00    +0.000 F 
ENDBRANCH  26  30
ENDBRANCH  20  21
ENDBRANCH   3  20
TORSDOF 6
ENDMDL
MODEL 3
REMARK VINA RESULT:      -8.4      5.816      9.742
REMARK  Name = 
REMARK  6 active torsions:
REMARK  status: ('A' for Active; 'I' for Inactive)
REMARK    1  A    between atoms: N_7  and  C_8
REMARK    2  A    between atoms: C_8  and  C_9
REMARK    3  A    between atoms: C_12  and  N_13
REMARK    4  A    between atoms: C_15  and  C_16
REMARK    5  A    between atoms: C_16  and  N_17
REMARK    6  A    between atoms: C_22  and  C_23
REMARK                            x       y       z     vdW  Elec       q    Type
REMARK                         _______ _______ _______ _____ _____    ______ ____
ROOT
ATOM      1  N   UNL     1       1.792   8.712  18.960  0.00  0.00    +0.000 N 
ATOM      2  C   UNL     1       1.770   9.934  18.328  0.00  0.00    +0.000 A 
ATOM      3  C   UNL     1       0.746  10.635  18.931  0.00  0.00    +0.000 A 
ATOM      4  N   UNL     1       0.183   9.842  19.901  0.00  0.00    +0.000 NA
ATOM      5  N   UNL     1       0.857   8.696  19.944  0.00  0.00    +0.000 NA
ENDROOT
BRANCH   1   9
ATOM      6  C   UNL     1       4.310   5.416  18.143  0.00  0.00    +0.000 A 
ATOM      7  C   UNL     1       4.274   6.514  17.270  0.00  0.00    +0.000 A 
ATOM      8  C   UNL     1       3.432   7.603  17.525  0.00  0.00    +0.000 A 
ATOM      9  C   UNL     1       2.584   7.583  18.640  0.00  0.00    +0.000 A 
ATOM     10  C   UNL     1       2.559   6.456  19.472  0.00  0.00    +0.000 A 
ATOM     11  C   UNL     1       3.432   5.391  19.234  0.00  0.00    +0.000 A 
BRANCH   6  12
ATOM     12  C   UNL     1       5.355   4.326  17.987  0.00  0.00    +0.000 C 
BRANCH  12  19
ATOM     13  O   UNL     1       7.757   5.597  17.490  0.00  0.00    +0.000 OA
ATOM     14  C   UNL     1       7.158   5.143  16.517  0.00  0.00    +0.000 A 
ATOM     15  N   UNL     1       7.616   5.379  15.240  0.00  0.00    +0.000 NA
ATOM     16  C   UNL     1       7.007   4.814  14.256  0.00  0.00    +0.000 A 
ATOM     17  C   UNL     1       5.872   3.892  14.360  0.00  0.00    +0.000 A 
ATOM     18  C   UNL     1       5.390   3.757  15.594  0.00  0.00    +0.000 A 
ATOM     19  N   UNL     1       5.986   4.389  16.667  0.00  0.00    +0.000 N 
ENDBRANCH  12  19
ENDBRANCH   6  12
ENDBRANCH   1   9
BRANCH   3  20
ATOM     20  C   UNL     1       0.233  12.003  18.619  0.00  0.00    +0.000 C 
BRANCH  20  21
ATOM     21  N   UNL     1      -0.646  12.657  19.615  0.00  0.00    +0.000 N 
ATOM     22  C   UNL     1      -0.074  13.208  20.765  0.00  0.00    +0.000 A 
ATOM     23  C   UNL     1      -0.762  13.670  21.819  0.00  0.00    +0.000 A 
ATOM     24  C   UNL     1      -2.213  13.577  21.711  0.00  0.00    +0.000 A 
ATOM     25  N   UNL     1      -3.120  13.892  22.566  0.00  0.00    +0.000 NA
ATOM     26  C   UNL     1      -4.320  13.586  21.912  0.00  0.00    +0.000 A 
ATOM     27  N   UNL     1      -4.207  13.107  20.694  0.00  0.00    +0.000 NA
ATOM     28  C   UNL     1      -2.852  13.062  20.497  0.00  0.00    +0.000 A 
ATOM     29  C   UNL     1      -2.049  12.632  19.515  0.00  0.00    +0.000 A 
BRANCH  26  30
ATOM     30  C   UNL     1      -5.567  13.842  22.686  0.00  0.00    +0.000 A 
ATOM     31  C   UNL     1      -6.124  12.774  23.420  0.00  0.00    +0.000 A 
ATOM     32  C   UNL     1      -7.282  12.943  24.181  0.00  0.00    +0.000 A 
ATOM     33  C   UNL     1      -7.903  14.186  24.220  0.00  0.00    +0.000 A 
ATOM     34  C   UNL     1      -7.366  15.250  23.490  0.00  0.00    +0.000 A 
ATOM     35  C   UNL     1      -6.205  15.075  22.726  0.00  0.00    +0.000 A 
ATOM     36  F   UNL     1      -5.733  16.134  22.053  0.00  0.00    +0.000 F 
ENDBRANCH  26  30
ENDBRANCH  20  21
ENDBRANCH   3  20
TORSDOF 6
ENDMDL
MODEL 4
REMARK VINA RESULT:      -8.3      3.796      9.674
REMARK  Name = 
REMARK  6 active torsions:
REMARK  status: ('A' for Active; 'I' for Inactive)
REMARK    1  A    between atoms: N_7  and  C_8
REMARK    2  A    between atoms: C_8  and  C_9
REMARK    3  A    between atoms: C_12  and  N_13
REMARK    4  A    between atoms: C_15  and  C_16
REMARK    5  A    between atoms: C_16  and  N_17
REMARK    6  A    between atoms: C_22  and  C_23
REMARK                            x       y       z     vdW  Elec       q    Type
REMARK                         _______ _______ _______ _____ _____    ______ ____
ROOT
ATOM      1  N   UNL     1       8.651   9.667  18.451  0.00  0.00    +0.000 N 
ATOM      2  C   UNL     1       8.362  10.832  17.777  0.00  0.00    +0.000 A 
ATOM      3  C   UNL     1       9.030  11.823  18.465  0.00  0.00    +0.000 A 
ATOM      4  N   UNL     1       9.703  11.251  19.517  0.00  0.00    +0.000 NA
ATOM      5  N   UNL     1       9.507   9.936  19.470  0.00  0.00    +0.000 NA
ENDROOT
BRANCH   1   9
ATOM      6  C   UNL     1       6.886   5.869  17.872  0.00  0.00    +0.000 A 
ATOM      7  C   UNL     1       7.828   6.065  18.893  0.00  0.00    +0.000 A 
ATOM      8  C   UNL     1       8.429   7.316  19.082  0.00  0.00    +0.000 A 
ATOM      9  C   UNL     1       8.121   8.375  18.220  0.00  0.00    +0.000 A 
ATOM     10  C   UNL     1       7.239   8.165  17.151  0.00  0.00    +0.000 A 
ATOM     11  C   UNL     1       6.613   6.926  16.994  0.00  0.00    +0.000 A 
BRANCH   6  12
ATOM     12  C   UNL     1       6.085   4.583  17.782  0.00  0.00    +0.000 C 
BRANCH  12  19
ATOM     13  O   UNL     1       5.190   2.890  19.773  0.00  0.00    +0.000 OA
ATOM     14  C   UNL     1       4.402   3.747  19.378  0.00  0.00    +0.000 A 
ATOM     15  N   UNL     1       3.101   3.764  19.829  0.00  0.00    +0.000 NA
ATOM     16  C   UNL     1       2.335   4.729  19.456  0.00  0.00    +0.000 A 
ATOM     17  C   UNL     1       2.726   5.861  18.610  0.00  0.00    +0.000 A 
ATOM     18  C   UNL     1       3.957   5.771  18.111  0.00  0.00    +0.000 A 
ATOM     19  N   UNL     1       4.789   4.723  18.449  0.00  0.00    +0.000 N 
ENDBRANCH  12  19
ENDBRANCH   6  12
ENDBRANCH   1   9
BRANCH   3  20
ATOM     20  C   UNL     1       9.041  13.296  18.215  0.00  0.00    +0.000 C 
BRANCH  20  21
ATOM     21  N   UNL     1       7.840  14.073  18.599  0.00  0.00    +0.000 N 
ATOM     22  C   UNL     1       7.679  14.456  19.933  0.00  0.00    +0.000 A 
ATOM     23  C   UNL     1       6.568  15.004  20.446  0.00  0.00    +0.000 A 
ATOM     24  C   UNL     1       5.474  15.202  19.503  0.00  0.00    +0.000 A 
ATOM     25  N   UNL     1       4.288  15.658  19.707  0.00  0.00    +0.000 NA
ATOM     26  C   UNL     1       3.690  15.619  18.441  0.00  0.00    +0.000 A 
ATOM     27  N   UNL     1       4.443  15.174  17.461  0.00  0.00    +0.000 NA
ATOM     28  C   UNL     1       5.625  14.870  18.084  0.00  0.00    +0.000 A 
ATOM     29  C   UNL     1       6.788  14.328  17.700  0.00  0.00    +0.000 A 
BRANCH  26  30
ATOM     30  C   UNL     1       2.277  16.086  18.374  0.00  0.00    +0.000 A 
ATOM     31  C   UNL     1       2.019  17.340  17.783  0.00  0.00    +0.000 A 
ATOM     32  C   UNL     1       0.718  17.835  17.671  0.00  0.00    +0.000 A 
ATOM     33  C   UNL     1      -0.347  17.082  18.151  0.00  0.00    +0.000 A 
ATOM     34  C   UNL     1      -0.103  15.841  18.746  0.00  0.00    +0.000 A 
ATOM     35  C   UNL     1       1.203  15.349  18.858  0.00  0.00    +0.000 A 
ATOM     36  F   UNL     1       1.374  14.150  19.433  0.00  0.00    +0.000 F 
ENDBRANCH  26  30
ENDBRANCH  20  21
ENDBRANCH   3  20
TORSDOF 6
ENDMDL
MODEL 5
REMARK VINA RESULT:      -8.2      3.306      8.673
REMARK  Name = 
REMARK  6 active torsions:
REMARK  status: ('A' for Active; 'I' for Inactive)
REMARK    1  A    between atoms: N_7  and  C_8
REMARK    2  A    between atoms: C_8  and  C_9
REMARK    3  A    between atoms: C_12  and  N_13
REMARK    4  A    between atoms: C_15  and  C_16
REMARK    5  A    between atoms: C_16  and  N_17
REMARK    6  A    between atoms: C_22  and  C_23
REMARK                            x       y       z     vdW  Elec       q    Type
REMARK                         _______ _______ _______ _____ _____    ______ ____
ROOT
ATOM      1  N   UNL     1       1.030   9.925  19.952  0.00  0.00    +0.000 N 
ATOM      2  C   UNL     1       1.565  11.186  20.085  0.00  0.00    +0.000 A 
ATOM      3  C   UNL     1       0.557  11.951  20.636  0.00  0.00    +0.000 A 
ATOM      4  N   UNL     1      -0.544  11.153  20.827  0.00  0.00    +0.000 NA
ATOM      5  N   UNL     1      -0.231   9.915  20.456  0.00  0.00    +0.000 NA
ENDROOT
BRANCH   1   9
ATOM      6  C   UNL     1       2.974   6.617  18.177  0.00  0.00    +0.000 A 
ATOM      7  C   UNL     1       2.642   7.741  17.407  0.00  0.00    +0.000 A 
ATOM      8  C   UNL     1       1.985   8.836  17.983  0.00  0.00    +0.000 A 
ATOM      9  C   UNL     1       1.615   8.795  19.334  0.00  0.00    +0.000 A 
ATOM     10  C   UNL     1       1.875   7.644  20.089  0.00  0.00    +0.000 A 
ATOM     11  C   UNL     1       2.567   6.573  19.517  0.00  0.00    +0.000 A 
BRANCH   6  12
ATOM     12  C   UNL     1       3.857   5.517  17.617  0.00  0.00    +0.000 C 
BRANCH  12  19
ATOM     13  O   UNL     1       5.320   4.073  19.462  0.00  0.00    +0.000 OA
ATOM     14  C   UNL     1       5.880   5.036  18.941  0.00  0.00    +0.000 A 
ATOM     15  N   UNL     1       7.129   5.433  19.363  0.00  0.00    +0.000 NA
ATOM     16  C   UNL     1       7.713   6.392  18.733  0.00  0.00    +0.000 A 
ATOM     17  C   UNL     1       7.190   7.096  17.558  0.00  0.00    +0.000 A 
ATOM     18  C   UNL     1       5.944   6.758  17.230  0.00  0.00    +0.000 A 
ATOM     19  N   UNL     1       5.267   5.771  17.916  0.00  0.00    +0.000 N 
ENDBRANCH  12  19
ENDBRANCH   6  12
ENDBRANCH   1   9
BRANCH   3  20
ATOM     20  C   UNL     1       0.554  13.410  20.957  0.00  0.00    +0.000 C 
BRANCH  20  21
ATOM     21  N   UNL     1       1.593  14.259  20.331  0.00  0.00    +0.000 N 
ATOM     22  C   UNL     1       1.250  15.048  19.229  0.00  0.00    +0.000 A 
ATOM     23  C   UNL     1       2.123  15.722  18.466  0.00  0.00    +0.000 A 
ATOM     24  C   UNL     1       3.522  15.600  18.857  0.00  0.00    +0.000 A 
ATOM     25  N   UNL     1       4.574  16.088  18.300  0.00  0.00    +0.000 NA
ATOM     26  C   UNL     1       5.623  15.643  19.113  0.00  0.00    +0.000 A 
ATOM     27  N   UNL     1       5.279  14.914  20.150  0.00  0.00    +0.000 NA
ATOM     28  C   UNL     1       3.916  14.833  20.041  0.00  0.00    +0.000 A 
ATOM     29  C   UNL     1       2.944  14.206  20.718  0.00  0.00    +0.000 A 
BRANCH  26  30
ATOM     30  C   UNL     1       6.992  16.053  18.693  0.00  0.00    +0.000 A 
ATOM     31  C   UNL     1       7.375  17.395  18.894  0.00  0.00    +0.000 A 
ATOM     32  C   UNL     1       8.647  17.847  18.539  0.00  0.00    +0.000 A 
ATOM     33  C   UNL     1       9.559  16.962  17.976  0.00  0.00    +0.000 A 
ATOM     34  C   UNL     1       9.189  15.631  17.764  0.00  0.00    +0.000 A 
ATOM     35  C   UNL     1       7.911  15.182  18.120  0.00  0.00    +0.000 A 
ATOM     36  F   UNL     1       7.615  13.893  17.898  0.00  0.00    +0.000 F 
ENDBRANCH  26  30
ENDBRANCH  20  21
ENDBRANCH   3  20
TORSDOF 6
ENDMDL
MODEL 6
REMARK VINA RESULT:      -8.2      1.503      1.708
REMARK  Name = 
REMARK  6 active torsions:
REMARK  status: ('A' for Active; 'I' for Inactive)
REMARK    1  A    between atoms: N_7  and  C_8
REMARK    2  A    between atoms: C_8  and  C_9
REMARK    3  A    between atoms: C_12  and  N_13
REMARK    4  A    between atoms: C_15  and  C_16
REMARK    5  A    between atoms: C_16  and  N_17
REMARK    6  A    between atoms: C_22  and  C_23
REMARK                            x       y       z     vdW  Elec       q    Type
REMARK                         _______ _______ _______ _____ _____    ______ ____
ROOT
ATOM      1  N   UNL     1       3.610  14.654  18.978  0.00  0.00    +0.000 N 
ATOM      2  C   UNL     1       2.966  13.688  18.239  0.00  0.00    +0.000 A 
ATOM      3  C   UNL     1       1.784  13.448  18.909  0.00  0.00    +0.000 A 
ATOM      4  N   UNL     1       1.734  14.260  20.015  0.00  0.00    +0.000 NA
ATOM      5  N   UNL     1       2.824  15.023  20.021  0.00  0.00    +0.000 NA
ENDROOT
BRANCH   1   9
ATOM      6  C   UNL     1       7.580  16.039  18.532  0.00  0.00    +0.000 A 
ATOM      7  C   UNL     1       6.709  16.662  19.439  0.00  0.00    +0.000 A 
ATOM      8  C   UNL     1       5.389  16.219  19.582  0.00  0.00    +0.000 A 
ATOM      9  C   UNL     1       4.914  15.170  18.784  0.00  0.00    +0.000 A 
ATOM     10  C   UNL     1       5.755  14.595  17.823  0.00  0.00    +0.000 A 
ATOM     11  C   UNL     1       7.083  15.016  17.714  0.00  0.00    +0.000 A 
BRANCH   6  12
ATOM     12  C   UNL     1       9.060  16.376  18.510  0.00  0.00    +0.000 C 
BRANCH  12  19
ATOM     13  O   UNL     1      10.961  16.187  16.515  0.00  0.00    +0.000 OA
ATOM     14  C   UNL     1      10.735  15.167  17.163  0.00  0.00    +0.000 A 
ATOM     15  N   UNL     1      11.317  13.970  16.813  0.00  0.00    +0.000 NA
ATOM     16  C   UNL     1      11.119  12.947  17.569  0.00  0.00    +0.000 A 
ATOM     17  C   UNL     1      10.350  12.934  18.816  0.00  0.00    +0.000 A 
ATOM     18  C   UNL     1       9.720  14.077  19.081  0.00  0.00    +0.000 A 
ATOM     19  N   UNL     1       9.868  15.180  18.265  0.00  0.00    +0.000 N 
ENDBRANCH  12  19
ENDBRANCH   6  12
ENDBRANCH   1   9
BRANCH   3  20
ATOM     20  C   UNL     1       0.708  12.461  18.590  0.00  0.00    +0.000 C 
BRANCH  20  21
ATOM     21  N   UNL     1       0.872  11.075  19.084  0.00  0.00    +0.000 N 
ATOM     22  C   UNL     1       0.572  10.791  20.419  0.00  0.00    +0.000 A 
ATOM     23  C   UNL     1       0.838   9.631  21.037  0.00  0.00    +0.000 A 
ATOM     24  C   UNL     1       1.483   8.616  20.212  0.00  0.00    +0.000 A 
ATOM     25  N   UNL     1       1.894   7.440  20.532  0.00  0.00    +0.000 NA
ATOM     26  C   UNL     1       2.423   6.932  19.339  0.00  0.00    +0.000 A 
ATOM     27  N   UNL     1       2.354   7.724  18.294  0.00  0.00    +0.000 NA
ATOM     28  C   UNL     1       1.759   8.853  18.793  0.00  0.00    +0.000 A 
ATOM     29  C   UNL     1       1.443  10.057  18.298  0.00  0.00    +0.000 A 
BRANCH  26  30
ATOM     30  C   UNL     1       2.998   5.559  19.414  0.00  0.00    +0.000 A 
ATOM     31  C   UNL     1       4.361   5.392  19.094  0.00  0.00    +0.000 A 
ATOM     32  C   UNL     1       4.972   4.138  19.157  0.00  0.00    +0.000 A 
ATOM     33  C   UNL     1       4.227   3.029  19.543  0.00  0.00    +0.000 A 
ATOM     34  C   UNL     1       2.873   3.181  19.855  0.00  0.00    +0.000 A 
ATOM     35  C   UNL     1       2.264   4.441  19.789  0.00  0.00    +0.000 A 
ATOM     36  F   UNL     1       0.964   4.525  20.106  0.00  0.00    +0.000 F 
ENDBRANCH  26  30
ENDBRANCH  20  21
ENDBRANCH   3  20
TORSDOF 6
ENDMDL
MODEL 7
REMARK VINA RESULT:      -8.2      3.527      9.059
REMARK  Name = 
REMARK  6 active torsions:
REMARK  status: ('A' for Active; 'I' for Inactive)
REMARK    1  A    between atoms: N_7  and  C_8
REMARK    2  A    between atoms: C_8  and  C_9
REMARK    3  A    between atoms: C_12  and  N_13
REMARK    4  A    between atoms: C_15  and  C_16
REMARK    5  A    between atoms: C_16  and  N_17
REMARK    6  A    between atoms: C_22  and  C_23
REMARK                            x       y       z     vdW  Elec       q    Type
REMARK                         _______ _______ _______ _____ _____    ______ ____
ROOT
ATOM      1  N   UNL     1       1.269   9.225  20.542  0.00  0.00    +0.000 N 
ATOM      2  C   UNL     1       1.013  10.428  19.923  0.00  0.00    +0.000 A 
ATOM      3  C   UNL     1       0.488  11.238  20.909  0.00  0.00    +0.000 A 
ATOM      4  N   UNL     1       0.443  10.526  22.083  0.00  0.00    +0.000 NA
ATOM      5  N   UNL     1       0.965   9.323  21.862  0.00  0.00    +0.000 NA
ENDROOT
BRANCH   1   9
ATOM      6  C   UNL     1       2.776   5.648  18.866  0.00  0.00    +0.000 A 
ATOM      7  C   UNL     1       2.774   6.836  18.118  0.00  0.00    +0.000 A 
ATOM      8  C   UNL     1       2.264   8.022  18.661  0.00  0.00    +0.000 A 
ATOM      9  C   UNL     1       1.709   8.019  19.947  0.00  0.00    +0.000 A 
ATOM     10  C   UNL     1       1.637   6.820  20.668  0.00  0.00    +0.000 A 
ATOM     11  C   UNL     1       2.185   5.649  20.136  0.00  0.00    +0.000 A 
BRANCH   6  12
ATOM     12  C   UNL     1       3.502   4.412  18.369  0.00  0.00    +0.000 C 
BRANCH  12  19
ATOM     13  O   UNL     1       4.788   4.037  15.953  0.00  0.00    +0.000 OA
ATOM     14  C   UNL     1       5.487   4.370  16.907  0.00  0.00    +0.000 A 
ATOM     15  N   UNL     1       6.857   4.425  16.787  0.00  0.00    +0.000 NA
ATOM     16  C   UNL     1       7.544   4.860  17.785  0.00  0.00    +0.000 A 
ATOM     17  C   UNL     1       7.002   5.353  19.055  0.00  0.00    +0.000 A 
ATOM     18  C   UNL     1       5.685   5.200  19.181  0.00  0.00    +0.000 A 
ATOM     19  N   UNL     1       4.923   4.689  18.150  0.00  0.00    +0.000 N 
ENDBRANCH  12  19
ENDBRANCH   6  12
ENDBRANCH   1   9
BRANCH   3  20
ATOM     20  C   UNL     1      -0.017  12.639  20.803  0.00  0.00    +0.000 C 
BRANCH  20  21
ATOM     21  N   UNL     1       0.935  13.688  20.371  0.00  0.00    +0.000 N 
ATOM     22  C   UNL     1       0.539  14.599  19.388  0.00  0.00    +0.000 A 
ATOM     23  C   UNL     1       1.351  15.480  18.785  0.00  0.00    +0.000 A 
ATOM     24  C   UNL     1       2.741  15.454  19.225  0.00  0.00    +0.000 A 
ATOM     25  N   UNL     1       3.746  16.138  18.805  0.00  0.00    +0.000 NA
ATOM     26  C   UNL     1       4.812  15.688  19.594  0.00  0.00    +0.000 A 
ATOM     27  N   UNL     1       4.522  14.769  20.486  0.00  0.00    +0.000 NA
ATOM     28  C   UNL     1       3.182  14.556  20.295  0.00  0.00    +0.000 A 
ATOM     29  C   UNL     1       2.269  13.724  20.815  0.00  0.00    +0.000 A 
BRANCH  26  30
ATOM     30  C   UNL     1       6.137  16.310  19.314  0.00  0.00    +0.000 A 
ATOM     31  C   UNL     1       6.541  17.400  20.112  0.00  0.00    +0.000 A 
ATOM     32  C   UNL     1       7.775  18.023  19.918  0.00  0.00    +0.000 A 
ATOM     33  C   UNL     1       8.627  17.563  18.920  0.00  0.00    +0.000 A 
ATOM     34  C   UNL     1       8.235  16.488  18.118  0.00  0.00    +0.000 A 
ATOM     35  C   UNL     1       6.994  15.868  18.315  0.00  0.00    +0.000 A 
ATOM     36  F   UNL     1       6.676  14.838  17.518  0.00  0.00    +0.000 F 
ENDBRANCH  26  30
ENDBRANCH  20  21
ENDBRANCH   3  20
TORSDOF 6
ENDMDL
MODEL 8
REMARK VINA RESULT:      -8.2      4.179     10.228
REMARK  Name = 
REMARK  6 active torsions:
REMARK  status: ('A' for Active; 'I' for Inactive)
REMARK    1  A    between atoms: N_7  and  C_8
REMARK    2  A    between atoms: C_8  and  C_9
REMARK    3  A    between atoms: C_12  and  N_13
REMARK    4  A    between atoms: C_15  and  C_16
REMARK    5  A    between atoms: C_16  and  N_17
REMARK    6  A    between atoms: C_22  and  C_23
REMARK                            x       y       z     vdW  Elec       q    Type
REMARK                         _______ _______ _______ _____ _____    ______ ____
ROOT
ATOM      1  N   UNL     1       8.282   8.771  18.284  0.00  0.00    +0.000 N 
ATOM      2  C   UNL     1       8.345   9.872  17.461  0.00  0.00    +0.000 A 
ATOM      3  C   UNL     1       9.075  10.808  18.165  0.00  0.00    +0.000 A 
ATOM      4  N   UNL     1       9.437  10.265  19.373  0.00  0.00    +0.000 NA
ATOM      5  N   UNL     1       8.994   9.011  19.415  0.00  0.00    +0.000 NA
ENDROOT
BRANCH   1   9
ATOM      6  C   UNL     1       5.948   5.276  17.823  0.00  0.00    +0.000 A 
ATOM      7  C   UNL     1       7.063   5.276  18.675  0.00  0.00    +0.000 A 
ATOM      8  C   UNL     1       7.850   6.425  18.823  0.00  0.00    +0.000 A 
ATOM      9  C   UNL     1       7.551   7.576  18.081  0.00  0.00    +0.000 A 
ATOM     10  C   UNL     1       6.486   7.556  17.171  0.00  0.00    +0.000 A 
ATOM     11  C   UNL     1       5.681   6.420  17.060  0.00  0.00    +0.000 A 
BRANCH   6  12
ATOM     12  C   UNL     1       4.977   4.109  17.805  0.00  0.00    +0.000 C 
BRANCH  12  19
ATOM     13  O   UNL     1       4.943   2.203  19.804  0.00  0.00    +0.000 OA
ATOM     14  C   UNL     1       4.086   3.083  19.863  0.00  0.00    +0.000 A 
ATOM     15  N   UNL     1       3.091   3.030  20.812  0.00  0.00    +0.000 NA
ATOM     16  C   UNL     1       2.265   4.015  20.891  0.00  0.00    +0.000 A 
ATOM     17  C   UNL     1       2.300   5.235  20.079  0.00  0.00    +0.000 A 
ATOM     18  C   UNL     1       3.210   5.219  19.108  0.00  0.00    +0.000 A 
ATOM     19  N   UNL     1       4.079   4.156  18.961  0.00  0.00    +0.000 N 
ENDBRANCH  12  19
ENDBRANCH   6  12
ENDBRANCH   1   9
BRANCH   3  20
ATOM     20  C   UNL     1       9.419  12.211  17.782  0.00  0.00    +0.000 C 
BRANCH  20  21
ATOM     21  N   UNL     1       8.508  13.292  18.222  0.00  0.00    +0.000 N 
ATOM     22  C   UNL     1       8.749  13.926  19.443  0.00  0.00    +0.000 A 
ATOM     23  C   UNL     1       7.914  14.791  20.038  0.00  0.00    +0.000 A 
ATOM     24  C   UNL     1       6.676  15.064  19.317  0.00  0.00    +0.000 A 
ATOM     25  N   UNL     1       5.678  15.803  19.652  0.00  0.00    +0.000 NA
ATOM     26  C   UNL     1       4.793  15.682  18.574  0.00  0.00    +0.000 A 
ATOM     27  N   UNL     1       5.191  14.916  17.584  0.00  0.00    +0.000 NA
ATOM     28  C   UNL     1       6.414  14.466  18.005  0.00  0.00    +0.000 A 
ATOM     29  C   UNL     1       7.332  13.618  17.522  0.00  0.00    +0.000 A 
BRANCH  26  30
ATOM     30  C   UNL     1       3.513  16.436  18.694  0.00  0.00    +0.000 A 
ATOM     31  C   UNL     1       3.051  16.757  19.987  0.00  0.00    +0.000 A 
ATOM     32  C   UNL     1       1.869  17.475  20.177  0.00  0.00    +0.000 A 
ATOM     33  C   UNL     1       1.128  17.884  19.074  0.00  0.00    +0.000 A 
ATOM     34  C   UNL     1       1.572  17.564  17.788  0.00  0.00    +0.000 A 
ATOM     35  C   UNL     1       2.758  16.842  17.602  0.00  0.00    +0.000 A 
ATOM     36  F   UNL     1       3.135  16.570  16.344  0.00  0.00    +0.000 F 
ENDBRANCH  26  30
ENDBRANCH  20  21
ENDBRANCH   3  20
TORSDOF 6
ENDMDL
MODEL 9
REMARK VINA RESULT:      -8.1      3.612      9.807
REMARK  Name = 
REMARK  6 active torsions:
REMARK  status: ('A' for Active; 'I' for Inactive)
REMARK    1  A    between atoms: N_7  and  C_8
REMARK    2  A    between atoms: C_8  and  C_9
REMARK    3  A    between atoms: C_12  and  N_13
REMARK    4  A    between atoms: C_15  and  C_16
REMARK    5  A    between atoms: C_16  and  N_17
REMARK    6  A    between atoms: C_22  and  C_23
REMARK                            x       y       z     vdW  Elec       q    Type
REMARK                         _______ _______ _______ _____ _____    ______ ____
ROOT
ATOM      1  N   UNL     1       1.147  10.415  20.140  0.00  0.00    +0.000 N 
ATOM      2  C   UNL     1       1.130  11.672  19.579  0.00  0.00    +0.000 A 
ATOM      3  C   UNL     1       0.528  12.481  20.521  0.00  0.00    +0.000 A 
ATOM      4  N   UNL     1       0.204  11.715  21.614  0.00  0.00    +0.000 NA
ATOM      5  N   UNL     1       0.629  10.474  21.394  0.00  0.00    +0.000 NA
ENDROOT
BRANCH   1   9
ATOM      6  C   UNL     1       2.575   6.838  18.398  0.00  0.00    +0.000 A 
ATOM      7  C   UNL     1       2.316   7.962  17.598  0.00  0.00    +0.000 A 
ATOM      8  C   UNL     1       1.829   9.146  18.165  0.00  0.00    +0.000 A 
ATOM      9  C   UNL     1       1.556   9.201  19.538  0.00  0.00    +0.000 A 
ATOM     10  C   UNL     1       1.739   8.059  20.328  0.00  0.00    +0.000 A 
ATOM     11  C   UNL     1       2.263   6.894  19.762  0.00  0.00    +0.000 A 
BRANCH   6  12
ATOM     12  C   UNL     1       3.286   5.622  17.832  0.00  0.00    +0.000 C 
BRANCH  12  19
ATOM     13  O   UNL     1       4.769   3.944  19.449  0.00  0.00    +0.000 OA
ATOM     14  C   UNL     1       3.639   3.567  19.148  0.00  0.00    +0.000 A 
ATOM     15  N   UNL     1       3.201   2.311  19.504  0.00  0.00    +0.000 NA
ATOM     16  C   UNL     1       1.981   1.990  19.243  0.00  0.00    +0.000 A 
ATOM     17  C   UNL     1       0.975   2.858  18.624  0.00  0.00    +0.000 A 
ATOM     18  C   UNL     1       1.449   4.029  18.205  0.00  0.00    +0.000 A 
ATOM     19  N   UNL     1       2.764   4.387  18.421  0.00  0.00    +0.000 N 
ENDBRANCH  12  19
ENDBRANCH   6  12
ENDBRANCH   1   9
BRANCH   3  20
ATOM     20  C   UNL     1       0.198  13.935  20.437  0.00  0.00    +0.000 C 
BRANCH  20  21
ATOM     21  N   UNL     1       1.281  14.870  20.053  0.00  0.00    +0.000 N 
ATOM     22  C   UNL     1       1.020  15.850  19.092  0.00  0.00    +0.000 A 
ATOM     23  C   UNL     1       1.946  16.641  18.530  0.00  0.00    +0.000 A 
ATOM     24  C   UNL     1       3.313  16.430  18.992  0.00  0.00    +0.000 A 
ATOM     25  N   UNL     1       4.404  16.997  18.611  0.00  0.00    +0.000 NA
ATOM     26  C   UNL     1       5.390  16.397  19.403  0.00  0.00    +0.000 A 
ATOM     27  N   UNL     1       4.970  15.496  20.262  0.00  0.00    +0.000 NA
ATOM     28  C   UNL     1       3.619  15.455  20.042  0.00  0.00    +0.000 A 
ATOM     29  C   UNL     1       2.600  14.729  20.521  0.00  0.00    +0.000 A 
BRANCH  26  30
ATOM     30  C   UNL     1       6.786  16.857  19.165  0.00  0.00    +0.000 A 
ATOM     31  C   UNL     1       7.274  17.928  19.942  0.00  0.00    +0.000 A 
ATOM     32  C   UNL     1       8.578  18.403  19.785  0.00  0.00    +0.000 A 
ATOM     33  C   UNL     1       9.416  17.813  18.845  0.00  0.00    +0.000 A 
ATOM     34  C   UNL     1       8.941  16.757  18.063  0.00  0.00    +0.000 A 
ATOM     35  C   UNL     1       7.632  16.284  18.223  0.00  0.00    +0.000 A 
ATOM     36  F   UNL     1       7.235  15.264  17.449  0.00  0.00    +0.000 F 
ENDBRANCH  26  30
ENDBRANCH  20  21
ENDBRANCH   3  20
TORSDOF 6
ENDMDL
