MODEL 1
REMARK VINA RESULT:      -7.5      0.000      0.000
REMARK  Name = 
REMARK  3 active torsions:
REMARK  status: ('A' for Active; 'I' for Inactive)
REMARK    1  A    between atoms: N_1  and  C_2
REMARK    2  A    between atoms: C_3  and  C_4
REMARK    3  A    between atoms: C_7  and  C_8
REMARK                            x       y       z     vdW  Elec       q    Type
REMARK                         _______ _______ _______ _____ _____    ______ ____
ROOT
ATOM      1  C   UNL     1       1.684   9.020  18.630  0.00  0.00    +0.000 A 
ATOM      2  C   UNL     1       0.886   9.281  19.704  0.00  0.00    +0.000 A 
ATOM      3  C   UNL     1       0.939   8.353  20.895  0.00  0.00    +0.000 A 
ATOM      4  O   UNL     1       0.317   8.554  21.937  0.00  0.00    +0.000 OA
ATOM      5  N   UNL     1       1.717   7.237  20.808  0.00  0.00    +0.000 N 
ATOM      6  C   UNL     1       2.508   6.926  19.709  0.00  0.00    +0.000 A 
ATOM      7  C   UNL     1       3.251   5.742  19.736  0.00  0.00    +0.000 A 
ATOM      8  C   UNL     1       4.051   5.407  18.648  0.00  0.00    +0.000 A 
ATOM      9  C   UNL     1       4.105   6.261  17.550  0.00  0.00    +0.000 A 
ATOM     10 CL   UNL     1       5.100   5.852  16.206  0.00  0.00    +0.000 Cl
ATOM     11  C   UNL     1       3.355   7.441  17.525  0.00  0.00    +0.000 A 
ATOM     12  C   UNL     1       2.538   7.796  18.612  0.00  0.00    +0.000 A 
ATOM     13  H   UNL     1       1.703   6.636  21.622  0.00  0.00    +0.000 HD
ENDROOT
BRANCH   2  14
ATOM     14  C   UNL     1      -0.015  10.410  19.775  0.00  0.00    +0.000 A 
ATOM     15  C   UNL     1       0.213  11.576  20.480  0.00  0.00    +0.000 A 
ATOM     16  S   UNL     1      -1.111  12.641  20.313  0.00  0.00    +0.000 S 
ATOM     17  C   UNL     1      -1.928  11.475  19.340  0.00  0.00    +0.000 A 
ATOM     18  N   UNL     1      -1.253  10.358  19.132  0.00  0.00    +0.000 NA
BRANCH  17  19
ATOM     19  C   UNL     1      -3.252  11.769  18.765  0.00  0.00    +0.000 A 
ATOM     20  C   UNL     1      -4.224  12.380  19.562  0.00  0.00    +0.000 A 
ATOM     21  C   UNL     1      -5.473  12.632  19.021  0.00  0.00    +0.000 A 
ATOM     22  N   UNL     1      -5.816  12.328  17.752  0.00  0.00    +0.000 NA
ATOM     23  C   UNL     1      -4.865  11.753  16.989  0.00  0.00    +0.000 A 
ATOM     24  C   UNL     1      -3.588  11.462  17.439  0.00  0.00    +0.000 A 
ENDBRANCH  17  19
ENDBRANCH   2  14
BRANCH   1  25
ATOM     25  N   UNL     1       1.725   9.817  17.483  0.00  0.00    +0.000 N 
ATOM     26  H   UNL     1       1.833  10.806  17.743  0.00  0.00    +0.000 HD
ATOM     27  H   UNL     1       2.478   9.556  16.852  0.00  0.00    +0.000 HD
ENDBRANCH   1  25
TORSDOF 3
ENDMDL
MODEL 2
REMARK VINA RESULT:      -7.2      4.117      8.705
REMARK  Name = 
REMARK  3 active torsions:
REMARK  status: ('A' for Active; 'I' for Inactive)
REMARK    1  A    between atoms: N_1  and  C_2
REMARK    2  A    between atoms: C_3  and  C_4
REMARK    3  A    between atoms: C_7  and  C_8
REMARK                            x       y       z     vdW  Elec       q    Type
REMARK                         _______ _______ _______ _____ _____    ______ ____
ROOT
ATOM      1  C   UNL     1       1.343   8.686  20.494  0.00  0.00    +0.000 A 
ATOM      2  C   UNL     1       1.840   8.229  19.310  0.00  0.00    +0.000 A 
ATOM      3  C   UNL     1       1.701   9.091  18.078  0.00  0.00    +0.000 A 
ATOM      4  O   UNL     1       2.188   8.797  16.988  0.00  0.00    +0.000 OA
ATOM      5  N   UNL     1       0.999  10.256  18.183  0.00  0.00    +0.000 N 
ATOM      6  C   UNL     1       0.447  10.725  19.368  0.00  0.00    +0.000 A 
ATOM      7  C   UNL     1      -0.264  11.929  19.343  0.00  0.00    +0.000 A 
ATOM      8  C   UNL     1      -0.827  12.421  20.516  0.00  0.00    +0.000 A 
ATOM      9  C   UNL     1      -0.667  11.710  21.702  0.00  0.00    +0.000 A 
ATOM     10 CL   UNL     1      -1.357  12.321  23.156  0.00  0.00    +0.000 Cl
ATOM     11  C   UNL     1       0.040  10.503  21.722  0.00  0.00    +0.000 A 
ATOM     12  C   UNL     1       0.613   9.987  20.547  0.00  0.00    +0.000 A 
ATOM     13  H   UNL     1       0.915  10.788  17.327  0.00  0.00    +0.000 HD
ENDROOT
BRANCH   2  14
ATOM     14  C   UNL     1       2.506   6.953  19.162  0.00  0.00    +0.000 A 
ATOM     15  C   UNL     1       2.082   5.758  19.710  0.00  0.00    +0.000 A 
ATOM     16  S   UNL     1       3.164   4.501  19.308  0.00  0.00    +0.000 S 
ATOM     17  C   UNL     1       4.155   5.626  18.456  0.00  0.00    +0.000 A 
ATOM     18  N   UNL     1       3.704   6.869  18.452  0.00  0.00    +0.000 NA
BRANCH  17  19
ATOM     19  C   UNL     1       5.373   5.179  17.758  0.00  0.00    +0.000 A 
ATOM     20  C   UNL     1       6.578   5.105  18.462  0.00  0.00    +0.000 A 
ATOM     21  C   UNL     1       7.722   4.707  17.793  0.00  0.00    +0.000 A 
ATOM     22  N   UNL     1       7.749   4.371  16.486  0.00  0.00    +0.000 NA
ATOM     23  C   UNL     1       6.578   4.432  15.822  0.00  0.00    +0.000 A 
ATOM     24  C   UNL     1       5.382   4.818  16.403  0.00  0.00    +0.000 A 
ENDBRANCH  17  19
ENDBRANCH   2  14
BRANCH   1  25
ATOM     25  N   UNL     1       1.428   7.978  21.696  0.00  0.00    +0.000 N 
ATOM     26  H   UNL     1       1.273   6.975  21.528  0.00  0.00    +0.000 HD
ATOM     27  H   UNL     1       2.324   8.101  22.160  0.00  0.00    +0.000 HD
ENDBRANCH   1  25
TORSDOF 3
ENDMDL
MODEL 3
REMARK VINA RESULT:      -7.0      3.110      4.337
REMARK  Name = 
REMARK  3 active torsions:
REMARK  status: ('A' for Active; 'I' for Inactive)
REMARK    1  A    between atoms: N_1  and  C_2
REMARK    2  A    between atoms: C_3  and  C_4
REMARK    3  A    between atoms: C_7  and  C_8
REMARK                            x       y       z     vdW  Elec       q    Type
REMARK                         _______ _______ _______ _____ _____    ______ ____
ROOT
ATOM      1  C   UNL     1       1.639   9.132  18.804  0.00  0.00    +0.000 A 
ATOM      2  C   UNL     1       1.158   9.948  19.784  0.00  0.00    +0.000 A 
ATOM      3  C   UNL     1       1.051   9.413  21.192  0.00  0.00    +0.000 A 
ATOM      4  O   UNL     1       0.705  10.099  22.152  0.00  0.00    +0.000 OA
ATOM      5  N   UNL     1       1.355   8.101  21.407  0.00  0.00    +0.000 N 
ATOM      6  C   UNL     1       1.809   7.237  20.419  0.00  0.00    +0.000 A 
ATOM      7  C   UNL     1       2.074   5.908  20.764  0.00  0.00    +0.000 A 
ATOM      8  C   UNL     1       2.529   5.022  19.792  0.00  0.00    +0.000 A 
ATOM      9  C   UNL     1       2.722   5.476  18.490  0.00  0.00    +0.000 A 
ATOM     10 CL   UNL     1       3.292   4.382  17.289  0.00  0.00    +0.000 Cl
ATOM     11  C   UNL     1       2.450   6.804  18.148  0.00  0.00    +0.000 A 
ATOM     12  C   UNL     1       1.986   7.714  19.113  0.00  0.00    +0.000 A 
ATOM     13  H   UNL     1       1.248   7.784  22.362  0.00  0.00    +0.000 HD
ENDROOT
BRANCH   2  14
ATOM     14  C   UNL     1       0.742  11.314  19.554  0.00  0.00    +0.000 A 
ATOM     15  C   UNL     1      -0.553  11.786  19.649  0.00  0.00    +0.000 A 
ATOM     16  S   UNL     1      -0.609  13.451  19.281  0.00  0.00    +0.000 S 
ATOM     17  C   UNL     1       1.090  13.443  18.981  0.00  0.00    +0.000 A 
ATOM     18  N   UNL     1       1.677  12.272  19.159  0.00  0.00    +0.000 NA
BRANCH  17  19
ATOM     19  C   UNL     1       1.794  14.682  18.608  0.00  0.00    +0.000 A 
ATOM     20  C   UNL     1       1.186  15.915  18.853  0.00  0.00    +0.000 A 
ATOM     21  C   UNL     1       1.844  17.074  18.478  0.00  0.00    +0.000 A 
ATOM     22  N   UNL     1       3.059  17.090  17.889  0.00  0.00    +0.000 NA
ATOM     23  C   UNL     1       3.642  15.894  17.673  0.00  0.00    +0.000 A 
ATOM     24  C   UNL     1       3.063  14.682  18.012  0.00  0.00    +0.000 A 
ENDBRANCH  17  19
ENDBRANCH   2  14
BRANCH   1  25
ATOM     25  N   UNL     1       1.792   9.527  17.472  0.00  0.00    +0.000 N 
ATOM     26  H   UNL     1       1.659   8.721  16.846  0.00  0.00    +0.000 HD
ATOM     27  H   UNL     1       1.145  10.264  17.205  0.00  0.00    +0.000 HD
ENDBRANCH   1  25
TORSDOF 3
ENDMDL
MODEL 4
REMARK VINA RESULT:      -7.0      2.927      3.811
REMARK  Name = 
REMARK  3 active torsions:
REMARK  status: ('A' for Active; 'I' for Inactive)
REMARK    1  A    between atoms: N_1  and  C_2
REMARK    2  A    between atoms: C_3  and  C_4
REMARK    3  A    between atoms: C_7  and  C_8
REMARK                            x       y       z     vdW  Elec       q    Type
REMARK                         _______ _______ _______ _____ _____    ______ ____
ROOT
ATOM      1  C   UNL     1       0.663   9.609  20.744  0.00  0.00    +0.000 A 
ATOM      2  C   UNL     1       0.253  10.833  20.306  0.00  0.00    +0.000 A 
ATOM      3  C   UNL     1       0.531  11.228  18.875  0.00  0.00    +0.000 A 
ATOM      4  O   UNL     1       0.128  12.275  18.372  0.00  0.00    +0.000 OA
ATOM      5  N   UNL     1       1.265  10.377  18.103  0.00  0.00    +0.000 N 
ATOM      6  C   UNL     1       1.731   9.142  18.537  0.00  0.00    +0.000 A 
ATOM      7  C   UNL     1       2.488   8.367  17.653  0.00  0.00    +0.000 A 
ATOM      8  C   UNL     1       2.966   7.126  18.063  0.00  0.00    +0.000 A 
ATOM      9  C   UNL     1       2.677   6.672  19.346  0.00  0.00    +0.000 A 
ATOM     10 CL   UNL     1       3.263   5.134  19.852  0.00  0.00    +0.000 Cl
ATOM     11  C   UNL     1       1.925   7.454  20.229  0.00  0.00    +0.000 A 
ATOM     12  C   UNL     1       1.436   8.710  19.837  0.00  0.00    +0.000 A 
ATOM     13  H   UNL     1       1.443  10.695  17.160  0.00  0.00    +0.000 HD
ENDROOT
BRANCH   2  14
ATOM     14  C   UNL     1      -0.447  11.787  21.140  0.00  0.00    +0.000 A 
ATOM     15  C   UNL     1       0.089  12.955  21.646  0.00  0.00    +0.000 A 
ATOM     16  S   UNL     1      -1.067  13.779  22.593  0.00  0.00    +0.000 S 
ATOM     17  C   UNL     1      -2.205  12.516  22.305  0.00  0.00    +0.000 A 
ATOM     18  N   UNL     1      -1.762  11.538  21.533  0.00  0.00    +0.000 NA
BRANCH  17  19
ATOM     19  C   UNL     1      -3.569  12.592  22.855  0.00  0.00    +0.000 A 
ATOM     20  C   UNL     1      -3.773  12.352  24.216  0.00  0.00    +0.000 A 
ATOM     21  C   UNL     1      -5.061  12.402  24.721  0.00  0.00    +0.000 A 
ATOM     22  N   UNL     1      -6.150  12.680  23.972  0.00  0.00    +0.000 NA
ATOM     23  C   UNL     1      -5.938  12.924  22.664  0.00  0.00    +0.000 A 
ATOM     24  C   UNL     1      -4.689  12.897  22.068  0.00  0.00    +0.000 A 
ENDBRANCH  17  19
ENDBRANCH   2  14
BRANCH   1  25
ATOM     25  N   UNL     1       0.448   9.137  22.042  0.00  0.00    +0.000 N 
ATOM     26  H   UNL     1       1.271   8.615  22.370  0.00  0.00    +0.000 HD
ATOM     27  H   UNL     1       0.244   9.883  22.701  0.00  0.00    +0.000 HD
ENDBRANCH   1  25
TORSDOF 3
ENDMDL
MODEL 5
REMARK VINA RESULT:      -7.0      2.719      3.973
REMARK  Name = 
REMARK  3 active torsions:
REMARK  status: ('A' for Active; 'I' for Inactive)
REMARK    1  A    between atoms: N_1  and  C_2
REMARK    2  A    between atoms: C_3  and  C_4
REMARK    3  A    between atoms: C_7  and  C_8
REMARK                            x       y       z     vdW  Elec       q    Type
REMARK                         _______ _______ _______ _____ _____    ______ ____
ROOT
ATOM      1  C   UNL     1       1.961   8.351  18.719  0.00  0.00    +0.000 A 
ATOM      2  C   UNL     1       1.268   9.009  19.691  0.00  0.00    +0.000 A 
ATOM      3  C   UNL     1       1.077   8.339  21.032  0.00  0.00    +0.000 A 
ATOM      4  O   UNL     1       0.536   8.888  21.991  0.00  0.00    +0.000 OA
ATOM      5  N   UNL     1       1.528   7.061  21.184  0.00  0.00    +0.000 N 
ATOM      6  C   UNL     1       2.201   6.354  20.196  0.00  0.00    +0.000 A 
ATOM      7  C   UNL     1       2.601   5.042  20.470  0.00  0.00    +0.000 A 
ATOM      8  C   UNL     1       3.277   4.312  19.498  0.00  0.00    +0.000 A 
ATOM      9  C   UNL     1       3.552   4.901  18.268  0.00  0.00    +0.000 A 
ATOM     10 CL   UNL     1       4.395   4.000  17.067  0.00  0.00    +0.000 Cl
ATOM     11  C   UNL     1       3.145   6.211  17.996  0.00  0.00    +0.000 A 
ATOM     12  C   UNL     1       2.458   6.965  18.962  0.00  0.00    +0.000 A 
ATOM     13  H   UNL     1       1.358   6.649  22.091  0.00  0.00    +0.000 HD
ENDROOT
BRANCH   2  14
ATOM     14  C   UNL     1       0.701  10.328  19.516  0.00  0.00    +0.000 A 
ATOM     15  C   UNL     1      -0.641  10.643  19.601  0.00  0.00    +0.000 A 
ATOM     16  S   UNL     1      -0.882  12.307  19.310  0.00  0.00    +0.000 S 
ATOM     17  C   UNL     1       0.811  12.508  19.051  0.00  0.00    +0.000 A 
ATOM     18  N   UNL     1       1.526  11.405  19.189  0.00  0.00    +0.000 NA
BRANCH  17  19
ATOM     19  C   UNL     1       1.375  13.837  18.755  0.00  0.00    +0.000 A 
ATOM     20  C   UNL     1       2.655  13.930  18.204  0.00  0.00    +0.000 A 
ATOM     21  C   UNL     1       3.187  15.182  17.951  0.00  0.00    +0.000 A 
ATOM     22  N   UNL     1       2.535  16.338  18.198  0.00  0.00    +0.000 NA
ATOM     23  C   UNL     1       1.295  16.235  18.715  0.00  0.00    +0.000 A 
ATOM     24  C   UNL     1       0.679  15.028  19.002  0.00  0.00    +0.000 A 
ENDBRANCH  17  19
ENDBRANCH   2  14
BRANCH   1  25
ATOM     25  N   UNL     1       2.208   8.881  17.450  0.00  0.00    +0.000 N 
ATOM     26  H   UNL     1       3.089   8.505  17.075  0.00  0.00    +0.000 HD
ATOM     27  H   UNL     1       1.458   8.687  16.792  0.00  0.00    +0.000 HD
ENDBRANCH   1  25
TORSDOF 3
ENDMDL
MODEL 6
REMARK VINA RESULT:      -7.0      4.906      9.065
REMARK  Name = 
REMARK  3 active torsions:
REMARK  status: ('A' for Active; 'I' for Inactive)
REMARK    1  A    between atoms: N_1  and  C_2
REMARK    2  A    between atoms: C_3  and  C_4
REMARK    3  A    between atoms: C_7  and  C_8
REMARK                            x       y       z     vdW  Elec       q    Type
REMARK                         _______ _______ _______ _____ _____    ______ ____
ROOT
ATOM      1  C   UNL     1       3.321   7.349  18.214  0.00  0.00    +0.000 A 
ATOM      2  C   UNL     1       3.919   6.178  18.573  0.00  0.00    +0.000 A 
ATOM      3  C   UNL     1       3.402   5.435  19.781  0.00  0.00    +0.000 A 
ATOM      4  O   UNL     1       3.826   4.334  20.130  0.00  0.00    +0.000 OA
ATOM      5  N   UNL     1       2.414   6.015  20.521  0.00  0.00    +0.000 N 
ATOM      6  C   UNL     1       1.815   7.227  20.201  0.00  0.00    +0.000 A 
ATOM      7  C   UNL     1       0.821   7.724  21.050  0.00  0.00    +0.000 A 
ATOM      8  C   UNL     1       0.206   8.936  20.752  0.00  0.00    +0.000 A 
ATOM      9  C   UNL     1       0.585   9.632  19.607  0.00  0.00    +0.000 A 
ATOM     10 CL   UNL     1      -0.181  11.129  19.234  0.00  0.00    +0.000 Cl
ATOM     11  C   UNL     1       1.584   9.134  18.765  0.00  0.00    +0.000 A 
ATOM     12  C   UNL     1       2.220   7.915  19.049  0.00  0.00    +0.000 A 
ATOM     13  H   UNL     1       2.117   5.489  21.332  0.00  0.00    +0.000 HD
ENDROOT
BRANCH   2  14
ATOM     14  C   UNL     1       5.030   5.595  17.853  0.00  0.00    +0.000 A 
ATOM     15  C   UNL     1       6.231   5.203  18.412  0.00  0.00    +0.000 A 
ATOM     16  S   UNL     1       7.272   4.583  17.210  0.00  0.00    +0.000 S 
ATOM     17  C   UNL     1       6.079   4.905  16.008  0.00  0.00    +0.000 A 
ATOM     18  N   UNL     1       4.957   5.430  16.469  0.00  0.00    +0.000 NA
BRANCH  17  19
ATOM     19  C   UNL     1       6.318   4.556  14.597  0.00  0.00    +0.000 A 
ATOM     20  C   UNL     1       7.413   5.111  13.930  0.00  0.00    +0.000 A 
ATOM     21  C   UNL     1       7.618   4.797  12.598  0.00  0.00    +0.000 A 
ATOM     22  N   UNL     1       6.820   3.969  11.891  0.00  0.00    +0.000 NA
ATOM     23  C   UNL     1       5.775   3.428  12.550  0.00  0.00    +0.000 A 
ATOM     24  C   UNL     1       5.489   3.681  13.880  0.00  0.00    +0.000 A 
ENDBRANCH  17  19
ENDBRANCH   2  14
BRANCH   1  25
ATOM     25  N   UNL     1       3.708   8.112  17.108  0.00  0.00    +0.000 N 
ATOM     26  H   UNL     1       4.375   8.840  17.397  0.00  0.00    +0.000 HD
ATOM     27  H   UNL     1       4.129   7.549  16.374  0.00  0.00    +0.000 HD
ENDBRANCH   1  25
TORSDOF 3
ENDMDL
MODEL 7
REMARK VINA RESULT:      -6.9      2.574      3.526
REMARK  Name = 
REMARK  3 active torsions:
REMARK  status: ('A' for Active; 'I' for Inactive)
REMARK    1  A    between atoms: N_1  and  C_2
REMARK    2  A    between atoms: C_3  and  C_4
REMARK    3  A    between atoms: C_7  and  C_8
REMARK                            x       y       z     vdW  Elec       q    Type
REMARK                         _______ _______ _______ _____ _____    ______ ____
ROOT
ATOM      1  C   UNL     1       1.801   8.785  18.645  0.00  0.00    +0.000 A 
ATOM      2  C   UNL     1       1.091   9.310  19.684  0.00  0.00    +0.000 A 
ATOM      3  C   UNL     1       1.027   8.545  20.985  0.00  0.00    +0.000 A 
ATOM      4  O   UNL     1       0.479   8.977  21.997  0.00  0.00    +0.000 OA
ATOM      5  N   UNL     1       1.609   7.312  21.036  0.00  0.00    +0.000 N 
ATOM      6  C   UNL     1       2.304   6.737  19.980  0.00  0.00    +0.000 A 
ATOM      7  C   UNL     1       2.843   5.459  20.153  0.00  0.00    +0.000 A 
ATOM      8  C   UNL     1       3.544   4.861  19.110  0.00  0.00    +0.000 A 
ATOM      9  C   UNL     1       3.703   5.548  17.910  0.00  0.00    +0.000 A 
ATOM     10 CL   UNL     1       4.575   4.812  16.622  0.00  0.00    +0.000 Cl
ATOM     11  C   UNL     1       3.156   6.824  17.740  0.00  0.00    +0.000 A 
ATOM     12  C   UNL     1       2.443   7.445  18.778  0.00  0.00    +0.000 A 
ATOM     13  H   UNL     1       1.522   6.831  21.921  0.00  0.00    +0.000 HD
ENDROOT
BRANCH   2  14
ATOM     14  C   UNL     1       0.389  10.573  19.616  0.00  0.00    +0.000 A 
ATOM     15  C   UNL     1      -0.970  10.746  19.791  0.00  0.00    +0.000 A 
ATOM     16  S   UNL     1      -1.389  12.391  19.611  0.00  0.00    +0.000 S 
ATOM     17  C   UNL     1       0.259  12.774  19.274  0.00  0.00    +0.000 A 
ATOM     18  N   UNL     1       1.084  11.743  19.309  0.00  0.00    +0.000 NA
BRANCH  17  19
ATOM     19  C   UNL     1       0.672  14.166  19.026  0.00  0.00    +0.000 A 
ATOM     20  C   UNL     1      -0.283  15.185  19.085  0.00  0.00    +0.000 A 
ATOM     21  C   UNL     1       0.109  16.487  18.826  0.00  0.00    +0.000 A 
ATOM     22  N   UNL     1       1.375  16.844  18.525  0.00  0.00    +0.000 NA
ATOM     23  C   UNL     1       2.290  15.854  18.487  0.00  0.00    +0.000 A 
ATOM     24  C   UNL     1       1.995  14.523  18.730  0.00  0.00    +0.000 A 
ENDBRANCH  17  19
ENDBRANCH   2  14
BRANCH   1  25
ATOM     25  N   UNL     1       1.936   9.413  17.404  0.00  0.00    +0.000 N 
ATOM     26  H   UNL     1       2.711   8.989  16.876  0.00  0.00    +0.000 HD
ATOM     27  H   UNL     1       1.089   9.363  16.845  0.00  0.00    +0.000 HD
ENDBRANCH   1  25
TORSDOF 3
ENDMDL
MODEL 8
REMARK VINA RESULT:      -6.9      2.428      3.545
REMARK  Name = 
REMARK  3 active torsions:
REMARK  status: ('A' for Active; 'I' for Inactive)
REMARK    1  A    between atoms: N_1  and  C_2
REMARK    2  A    between atoms: C_3  and  C_4
REMARK    3  A    between atoms: C_7  and  C_8
REMARK                            x       y       z     vdW  Elec       q    Type
REMARK                         _______ _______ _______ _____ _____    ______ ____
ROOT
ATOM      1  C   UNL     1       1.786   9.019  18.750  0.00  0.00    +0.000 A 
ATOM      2  C   UNL     1       1.026   9.192  19.868  0.00  0.00    +0.000 A 
ATOM      3  C   UNL     1       1.086   8.150  20.960  0.00  0.00    +0.000 A 
ATOM      4  O   UNL     1       0.499   8.262  22.035  0.00  0.00    +0.000 OA
ATOM      5  N   UNL     1       1.831   7.029  20.740  0.00  0.00    +0.000 N 
ATOM      6  C   UNL     1       2.582   6.809  19.592  0.00  0.00    +0.000 A 
ATOM      7  C   UNL     1       3.292   5.610  19.479  0.00  0.00    +0.000 A 
ATOM      8  C   UNL     1       4.053   5.365  18.340  0.00  0.00    +0.000 A 
ATOM      9  C   UNL     1       4.100   6.323  17.331  0.00  0.00    +0.000 A 
ATOM     10 CL   UNL     1       5.045   6.024  15.923  0.00  0.00    +0.000 Cl
ATOM     11  C   UNL     1       3.382   7.518  17.445  0.00  0.00    +0.000 A 
ATOM     12  C   UNL     1       2.606   7.783  18.585  0.00  0.00    +0.000 A 
ATOM     13  H   UNL     1       1.822   6.351  21.490  0.00  0.00    +0.000 HD
ENDROOT
BRANCH   2  14
ATOM     14  C   UNL     1       0.158  10.330  20.077  0.00  0.00    +0.000 A 
ATOM     15  C   UNL     1      -1.002  10.594  19.376  0.00  0.00    +0.000 A 
ATOM     16  S   UNL     1      -1.712  12.046  19.924  0.00  0.00    +0.000 S 
ATOM     17  C   UNL     1      -0.415  12.260  21.041  0.00  0.00    +0.000 A 
ATOM     18  N   UNL     1       0.492  11.299  21.025  0.00  0.00    +0.000 NA
BRANCH  17  19
ATOM     19  C   UNL     1      -0.393  13.413  21.957  0.00  0.00    +0.000 A 
ATOM     20  C   UNL     1      -1.215  13.405  23.087  0.00  0.00    +0.000 A 
ATOM     21  C   UNL     1      -1.207  14.503  23.931  0.00  0.00    +0.000 A 
ATOM     22  N   UNL     1      -0.438  15.595  23.734  0.00  0.00    +0.000 NA
ATOM     23  C   UNL     1       0.362  15.583  22.648  0.00  0.00    +0.000 A 
ATOM     24  C   UNL     1       0.423  14.533  21.748  0.00  0.00    +0.000 A 
ENDBRANCH  17  19
ENDBRANCH   2  14
BRANCH   1  25
ATOM     25  N   UNL     1       1.817   9.925  17.686  0.00  0.00    +0.000 N 
ATOM     26  H   UNL     1       2.614   9.720  17.069  0.00  0.00    +0.000 HD
ATOM     27  H   UNL     1       0.962   9.914  17.137  0.00  0.00    +0.000 HD
ENDBRANCH   1  25
TORSDOF 3
ENDMDL
MODEL 9
REMARK VINA RESULT:      -6.8      2.616      3.339
REMARK  Name = 
REMARK  3 active torsions:
REMARK  status: ('A' for Active; 'I' for Inactive)
REMARK    1  A    between atoms: N_1  and  C_2
REMARK    2  A    between atoms: C_3  and  C_4
REMARK    3  A    between atoms: C_7  and  C_8
REMARK                            x       y       z     vdW  Elec       q    Type
REMARK                         _______ _______ _______ _____ _____    ______ ____
ROOT
ATOM      1  C   UNL     1       1.427   8.100  20.334  0.00  0.00    +0.000 A 
ATOM      2  C   UNL     1       1.379   9.250  19.605  0.00  0.00    +0.000 A 
ATOM      3  C   UNL     1       1.927   9.247  18.198  0.00  0.00    +0.000 A 
ATOM      4  O   UNL     1       1.853  10.213  17.441  0.00  0.00    +0.000 OA
ATOM      5  N   UNL     1       2.533   8.112  17.746  0.00  0.00    +0.000 N 
ATOM      6  C   UNL     1       2.632   6.939  18.482  0.00  0.00    +0.000 A 
ATOM      7  C   UNL     1       3.292   5.846  17.912  0.00  0.00    +0.000 A 
ATOM      8  C   UNL     1       3.405   4.659  18.629  0.00  0.00    +0.000 A 
ATOM      9  C   UNL     1       2.851   4.575  19.903  0.00  0.00    +0.000 A 
ATOM     10 CL   UNL     1       2.984   3.104  20.789  0.00  0.00    +0.000 Cl
ATOM     11  C   UNL     1       2.197   5.672  20.473  0.00  0.00    +0.000 A 
ATOM     12  C   UNL     1       2.076   6.881  19.767  0.00  0.00    +0.000 A 
ATOM     13  H   UNL     1       2.903   8.165  16.806  0.00  0.00    +0.000 HD
ENDROOT
BRANCH   2  14
ATOM     14  C   UNL     1       0.823  10.490  20.103  0.00  0.00    +0.000 A 
ATOM     15  C   UNL     1       1.461  11.715  20.096  0.00  0.00    +0.000 A 
ATOM     16  S   UNL     1       0.461  12.910  20.793  0.00  0.00    +0.000 S 
ATOM     17  C   UNL     1      -0.750  11.721  21.097  0.00  0.00    +0.000 A 
ATOM     18  N   UNL     1      -0.443  10.502  20.690  0.00  0.00    +0.000 NA
BRANCH  17  19
ATOM     19  C   UNL     1      -2.033  12.095  21.717  0.00  0.00    +0.000 A 
ATOM     20  C   UNL     1      -2.207  11.918  23.092  0.00  0.00    +0.000 A 
ATOM     21  C   UNL     1      -3.424  12.249  23.663  0.00  0.00    +0.000 A 
ATOM     22  N   UNL     1      -4.468  12.749  22.967  0.00  0.00    +0.000 NA
ATOM     23  C   UNL     1      -4.282  12.930  21.644  0.00  0.00    +0.000 A 
ATOM     24  C   UNL     1      -3.103  12.628  20.984  0.00  0.00    +0.000 A 
ENDBRANCH  17  19
ENDBRANCH   2  14
BRANCH   1  25
ATOM     25  N   UNL     1       0.938   7.987  21.639  0.00  0.00    +0.000 N 
ATOM     26  H   UNL     1       1.310   8.747  22.223  0.00  0.00    +0.000 HD
ATOM     27  H   UNL     1      -0.078   8.005  21.679  0.00  0.00    +0.000 HD
ENDBRANCH   1  25
TORSDOF 3
ENDMDL
