MODEL 1
REMARK VINA RESULT:      -7.9      0.000      0.000
REMARK  Name = 
REMARK  5 active torsions:
REMARK  status: ('A' for Active; 'I' for Inactive)
REMARK    1  A    between atoms: C_1  and  C_2
REMARK    2  A    between atoms: N_4  and  C_5
REMARK    3  A    between atoms: C_6  and  C_7
REMARK    4  A    between atoms: C_8  and  C_9
REMARK    5  A    between atoms: C_14  and  C_16
REMARK                            x       y       z     vdW  Elec       q    Type
REMARK                         _______ _______ _______ _____ _____    ______ ____
ROOT
ATOM      1  C   UNL     1       5.612   4.449  18.363  0.00  0.00    +0.000 C 
ATOM      2  C   UNL     1       6.181   5.452  19.376  0.00  0.00    +0.000 C 
ATOM      3  C   UNL     1       7.552   5.768  18.815  0.00  0.00    +0.000 C 
ATOM      4  C   UNL     1       7.359   5.674  17.308  0.00  0.00    +0.000 C 
ATOM      5  N   UNL     1       6.097   4.971  17.089  0.00  0.00    +0.000 N 
ATOM      6  C   UNL     1       5.740   4.405  15.859  0.00  0.00    +0.000 C 
ATOM      7  O   UNL     1       4.802   3.615  15.755  0.00  0.00    +0.000 OA
ENDROOT
BRANCH   1  15
ATOM      8  C   UNL     1       3.344   6.723  18.006  0.00  0.00    +0.000 C 
ATOM      9  C   UNL     1       3.149   5.282  18.330  0.00  0.00    +0.000 A 
ATOM     10  N   UNL     1       1.908   4.798  18.425  0.00  0.00    +0.000 NA
ATOM     11  N   UNL     1       2.082   3.502  18.720  0.00  0.00    +0.000 N 
ATOM     12  C   UNL     1       0.917   2.651  18.782  0.00  0.00    +0.000 C 
ATOM     13  C   UNL     1       3.397   3.129  18.831  0.00  0.00    +0.000 A 
ATOM     14  C   UNL     1       3.837   1.757  19.176  0.00  0.00    +0.000 C 
ATOM     15  C   UNL     1       4.136   4.272  18.538  0.00  0.00    +0.000 A 
ENDBRANCH   1  15
BRANCH   6  16
ATOM     16  C   UNL     1       6.570   4.706  14.657  0.00  0.00    +0.000 A 
ATOM     17  C   UNL     1       6.387   4.117  13.372  0.00  0.00    +0.000 A 
ATOM     18  C   UNL     1       7.424   4.575  12.597  0.00  0.00    +0.000 A 
ATOM     19  N   UNL     1       8.122   5.434  13.387  0.00  0.00    +0.000 N 
ATOM     20  N   UNL     1       7.627   5.545  14.628  0.00  0.00    +0.000 NA
ATOM     21  H   UNL     1       8.953   5.969  13.151  0.00  0.00    +0.000 HD
ENDBRANCH   6  16
TORSDOF 2
ENDMDL
MODEL 2
REMARK VINA RESULT:      -7.5      0.938      2.033
REMARK  Name = 
REMARK  5 active torsions:
REMARK  status: ('A' for Active; 'I' for Inactive)
REMARK    1  A    between atoms: C_1  and  C_2
REMARK    2  A    between atoms: N_4  and  C_5
REMARK    3  A    between atoms: C_6  and  C_7
REMARK    4  A    between atoms: C_8  and  C_9
REMARK    5  A    between atoms: C_14  and  C_16
REMARK                            x       y       z     vdW  Elec       q    Type
REMARK                         _______ _______ _______ _____ _____    ______ ____
ROOT
ATOM      1  C   UNL     1       5.966   4.430  18.785  0.00  0.00    +0.000 C 
ATOM      2  C   UNL     1       6.570   5.531  19.668  0.00  0.00    +0.000 C 
ATOM      3  C   UNL     1       7.826   5.925  18.916  0.00  0.00    +0.000 C 
ATOM      4  C   UNL     1       7.450   5.730  17.453  0.00  0.00    +0.000 C 
ATOM      5  N   UNL     1       6.236   4.917  17.436  0.00  0.00    +0.000 N 
ATOM      6  C   UNL     1       5.776   4.254  16.291  0.00  0.00    +0.000 C 
ATOM      7  O   UNL     1       4.905   3.387  16.348  0.00  0.00    +0.000 OA
ENDROOT
BRANCH   1  15
ATOM      8  C   UNL     1       4.823   1.678  20.034  0.00  0.00    +0.000 C 
ATOM      9  C   UNL     1       4.073   2.935  19.754  0.00  0.00    +0.000 A 
ATOM     10  N   UNL     1       2.787   3.019  20.107  0.00  0.00    +0.000 NA
ATOM     11  N   UNL     1       2.421   4.249  19.724  0.00  0.00    +0.000 N 
ATOM     12  C   UNL     1       1.094   4.707  20.067  0.00  0.00    +0.000 C 
ATOM     13  C   UNL     1       3.423   4.966  19.122  0.00  0.00    +0.000 A 
ATOM     14  C   UNL     1       3.249   6.339  18.591  0.00  0.00    +0.000 C 
ATOM     15  C   UNL     1       4.546   4.144  19.162  0.00  0.00    +0.000 A 
ENDBRANCH   1  15
BRANCH   6  16
ATOM     16  C   UNL     1       6.415   4.554  14.977  0.00  0.00    +0.000 A 
ATOM     17  C   UNL     1       6.094   3.905  13.748  0.00  0.00    +0.000 A 
ATOM     18  C   UNL     1       6.988   4.389  12.824  0.00  0.00    +0.000 A 
ATOM     19  N   UNL     1       7.734   5.315  13.483  0.00  0.00    +0.000 N 
ATOM     20  N   UNL     1       7.407   5.447  14.776  0.00  0.00    +0.000 NA
ATOM     21  H   UNL     1       8.492   5.885  13.118  0.00  0.00    +0.000 HD
ENDBRANCH   6  16
TORSDOF 2
ENDMDL
MODEL 3
REMARK VINA RESULT:      -7.3      2.613      6.000
REMARK  Name = 
REMARK  5 active torsions:
REMARK  status: ('A' for Active; 'I' for Inactive)
REMARK    1  A    between atoms: C_1  and  C_2
REMARK    2  A    between atoms: N_4  and  C_5
REMARK    3  A    between atoms: C_6  and  C_7
REMARK    4  A    between atoms: C_8  and  C_9
REMARK    5  A    between atoms: C_14  and  C_16
REMARK                            x       y       z     vdW  Elec       q    Type
REMARK                         _______ _______ _______ _____ _____    ______ ____
ROOT
ATOM      1  C   UNL     1       3.837   5.042  19.518  0.00  0.00    +0.000 C 
ATOM      2  C   UNL     1       3.156   3.865  20.230  0.00  0.00    +0.000 C 
ATOM      3  C   UNL     1       2.190   4.546  21.177  0.00  0.00    +0.000 C 
ATOM      4  C   UNL     1       1.773   5.805  20.428  0.00  0.00    +0.000 C 
ATOM      5  N   UNL     1       2.740   5.990  19.348  0.00  0.00    +0.000 N 
ATOM      6  C   UNL     1       2.890   7.197  18.655  0.00  0.00    +0.000 C 
ATOM      7  O   UNL     1       3.859   7.414  17.928  0.00  0.00    +0.000 OA
ENDROOT
BRANCH   1  15
ATOM      8  C   UNL     1       2.619   3.365  17.040  0.00  0.00    +0.000 C 
ATOM      9  C   UNL     1       4.005   3.889  17.194  0.00  0.00    +0.000 A 
ATOM     10  N   UNL     1       4.872   3.742  16.190  0.00  0.00    +0.000 NA
ATOM     11  N   UNL     1       5.999   4.310  16.642  0.00  0.00    +0.000 N 
ATOM     12  C   UNL     1       7.120   4.421  15.739  0.00  0.00    +0.000 C 
ATOM     13  C   UNL     1       5.896   4.813  17.913  0.00  0.00    +0.000 A 
ATOM     14  C   UNL     1       7.016   5.463  18.635  0.00  0.00    +0.000 C 
ATOM     15  C   UNL     1       4.577   4.591  18.297  0.00  0.00    +0.000 A 
ENDBRANCH   1  15
BRANCH   6  16
ATOM     16  C   UNL     1       1.887   8.281  18.866  0.00  0.00    +0.000 A 
ATOM     17  C   UNL     1       1.301   9.062  17.827  0.00  0.00    +0.000 A 
ATOM     18  C   UNL     1       0.535  10.012  18.457  0.00  0.00    +0.000 A 
ATOM     19  N   UNL     1       0.630   9.739  19.786  0.00  0.00    +0.000 N 
ATOM     20  N   UNL     1       1.426   8.697  20.064  0.00  0.00    +0.000 NA
ATOM     21  H   UNL     1       0.192  10.229  20.561  0.00  0.00    +0.000 HD
ENDBRANCH   6  16
TORSDOF 2
ENDMDL
MODEL 4
REMARK VINA RESULT:      -6.9      1.146      1.192
REMARK  Name = 
REMARK  5 active torsions:
REMARK  status: ('A' for Active; 'I' for Inactive)
REMARK    1  A    between atoms: C_1  and  C_2
REMARK    2  A    between atoms: N_4  and  C_5
REMARK    3  A    between atoms: C_6  and  C_7
REMARK    4  A    between atoms: C_8  and  C_9
REMARK    5  A    between atoms: C_14  and  C_16
REMARK                            x       y       z     vdW  Elec       q    Type
REMARK                         _______ _______ _______ _____ _____    ______ ____
ROOT
ATOM      1  C   UNL     1       5.633   4.535  18.613  0.00  0.00    +0.000 C 
ATOM      2  C   UNL     1       6.517   5.509  19.405  0.00  0.00    +0.000 C 
ATOM      3  C   UNL     1       7.821   5.497  18.633  0.00  0.00    +0.000 C 
ATOM      4  C   UNL     1       7.386   5.288  17.189  0.00  0.00    +0.000 C 
ATOM      5  N   UNL     1       6.002   4.821  17.230  0.00  0.00    +0.000 N 
ATOM      6  C   UNL     1       5.368   4.210  16.141  0.00  0.00    +0.000 C 
ATOM      7  O   UNL     1       4.302   3.609  16.263  0.00  0.00    +0.000 OA
ENDROOT
BRANCH   1  15
ATOM      8  C   UNL     1       3.654   6.984  17.887  0.00  0.00    +0.000 C 
ATOM      9  C   UNL     1       3.327   5.734  18.630  0.00  0.00    +0.000 A 
ATOM     10  N   UNL     1       2.064   5.510  19.002  0.00  0.00    +0.000 NA
ATOM     11  N   UNL     1       2.112   4.328  19.632  0.00  0.00    +0.000 N 
ATOM     12  C   UNL     1       0.870   3.733  20.069  0.00  0.00    +0.000 C 
ATOM     13  C   UNL     1       3.368   3.780  19.692  0.00  0.00    +0.000 A 
ATOM     14  C   UNL     1       3.674   2.494  20.361  0.00  0.00    +0.000 C 
ATOM     15  C   UNL     1       4.193   4.663  19.001  0.00  0.00    +0.000 A 
ENDBRANCH   1  15
BRANCH   6  16
ATOM     16  C   UNL     1       6.044   4.223  14.812  0.00  0.00    +0.000 A 
ATOM     17  C   UNL     1       7.099   5.109  14.442  0.00  0.00    +0.000 A 
ATOM     18  C   UNL     1       7.345   4.866  13.112  0.00  0.00    +0.000 A 
ATOM     19  N   UNL     1       6.515   3.846  12.765  0.00  0.00    +0.000 N 
ATOM     20  N   UNL     1       5.729   3.428  13.767  0.00  0.00    +0.000 NA
ATOM     21  H   UNL     1       6.421   3.394  11.860  0.00  0.00    +0.000 HD
ENDBRANCH   6  16
TORSDOF 2
ENDMDL
MODEL 5
REMARK VINA RESULT:      -6.7      2.036      5.973
REMARK  Name = 
REMARK  5 active torsions:
REMARK  status: ('A' for Active; 'I' for Inactive)
REMARK    1  A    between atoms: C_1  and  C_2
REMARK    2  A    between atoms: N_4  and  C_5
REMARK    3  A    between atoms: C_6  and  C_7
REMARK    4  A    between atoms: C_8  and  C_9
REMARK    5  A    between atoms: C_14  and  C_16
REMARK                            x       y       z     vdW  Elec       q    Type
REMARK                         _______ _______ _______ _____ _____    ______ ____
ROOT
ATOM      1  C   UNL     1       4.546   4.383  17.570  0.00  0.00    +0.000 C 
ATOM      2  C   UNL     1       3.749   3.114  17.235  0.00  0.00    +0.000 C 
ATOM      3  C   UNL     1       2.490   3.269  18.063  0.00  0.00    +0.000 C 
ATOM      4  C   UNL     1       2.257   4.773  18.092  0.00  0.00    +0.000 C 
ATOM      5  N   UNL     1       3.504   5.400  17.661  0.00  0.00    +0.000 N 
ATOM      6  C   UNL     1       3.792   6.755  17.870  0.00  0.00    +0.000 C 
ATOM      7  O   UNL     1       4.927   7.208  17.727  0.00  0.00    +0.000 OA
ENDROOT
BRANCH   1  15
ATOM      8  C   UNL     1       7.645   4.941  18.294  0.00  0.00    +0.000 C 
ATOM      9  C   UNL     1       7.034   4.801  16.942  0.00  0.00    +0.000 A 
ATOM     10  N   UNL     1       7.823   4.828  15.865  0.00  0.00    +0.000 NA
ATOM     11  N   UNL     1       6.978   4.679  14.835  0.00  0.00    +0.000 N 
ATOM     12  C   UNL     1       7.533   4.551  13.507  0.00  0.00    +0.000 C 
ATOM     13  C   UNL     1       5.663   4.566  15.206  0.00  0.00    +0.000 A 
ATOM     14  C   UNL     1       4.546   4.420  14.244  0.00  0.00    +0.000 C 
ATOM     15  C   UNL     1       5.664   4.600  16.598  0.00  0.00    +0.000 A 
ENDBRANCH   1  15
BRANCH   6  16
ATOM     16  C   UNL     1       2.708   7.656  18.358  0.00  0.00    +0.000 A 
ATOM     17  C   UNL     1       2.095   8.686  17.585  0.00  0.00    +0.000 A 
ATOM     18  C   UNL     1       1.246   9.344  18.441  0.00  0.00    +0.000 A 
ATOM     19  N   UNL     1       1.325   8.676  19.623  0.00  0.00    +0.000 N 
ATOM     20  N   UNL     1       2.186   7.649  19.602  0.00  0.00    +0.000 NA
ATOM     21  H   UNL     1       0.832   8.874  20.489  0.00  0.00    +0.000 HD
ENDBRANCH   6  16
TORSDOF 2
ENDMDL
MODEL 6
REMARK VINA RESULT:      -6.6      1.465      2.273
REMARK  Name = 
REMARK  5 active torsions:
REMARK  status: ('A' for Active; 'I' for Inactive)
REMARK    1  A    between atoms: C_1  and  C_2
REMARK    2  A    between atoms: N_4  and  C_5
REMARK    3  A    between atoms: C_6  and  C_7
REMARK    4  A    between atoms: C_8  and  C_9
REMARK    5  A    between atoms: C_14  and  C_16
REMARK                            x       y       z     vdW  Elec       q    Type
REMARK                         _______ _______ _______ _____ _____    ______ ____
ROOT
ATOM      1  C   UNL     1       4.166   5.268  18.083  0.00  0.00    +0.000 C 
ATOM      2  C   UNL     1       3.373   6.575  18.220  0.00  0.00    +0.000 C 
ATOM      3  C   UNL     1       4.232   7.579  17.478  0.00  0.00    +0.000 C 
ATOM      4  C   UNL     1       4.871   6.759  16.366  0.00  0.00    +0.000 C 
ATOM      5  N   UNL     1       4.690   5.354  16.723  0.00  0.00    +0.000 N 
ATOM      6  C   UNL     1       5.418   4.314  16.132  0.00  0.00    +0.000 C 
ATOM      7  O   UNL     1       5.434   3.179  16.607  0.00  0.00    +0.000 OA
ENDROOT
BRANCH   1  15
ATOM      8  C   UNL     1       5.009   2.849  20.052  0.00  0.00    +0.000 C 
ATOM      9  C   UNL     1       3.708   3.047  19.353  0.00  0.00    +0.000 A 
ATOM     10  N   UNL     1       2.707   2.193  19.586  0.00  0.00    +0.000 NA
ATOM     11  N   UNL     1       1.705   2.644  18.819  0.00  0.00    +0.000 N 
ATOM     12  C   UNL     1       0.417   1.998  18.925  0.00  0.00    +0.000 C 
ATOM     13  C   UNL     1       2.024   3.758  18.086  0.00  0.00    +0.000 A 
ATOM     14  C   UNL     1       1.088   4.421  17.147  0.00  0.00    +0.000 C 
ATOM     15  C   UNL     1       3.330   4.080  18.444  0.00  0.00    +0.000 A 
ENDBRANCH   1  15
BRANCH   6  16
ATOM     16  C   UNL     1       6.260   4.611  14.937  0.00  0.00    +0.000 A 
ATOM     17  C   UNL     1       6.052   4.063  13.637  0.00  0.00    +0.000 A 
ATOM     18  C   UNL     1       7.107   4.496  12.872  0.00  0.00    +0.000 A 
ATOM     19  N   UNL     1       7.841   5.305  13.683  0.00  0.00    +0.000 N 
ATOM     20  N   UNL     1       7.351   5.404  14.927  0.00  0.00    +0.000 NA
ATOM     21  H   UNL     1       8.694   5.810  13.460  0.00  0.00    +0.000 HD
ENDBRANCH   6  16
TORSDOF 2
ENDMDL
MODEL 7
REMARK VINA RESULT:      -6.6      7.011      9.642
REMARK  Name = 
REMARK  5 active torsions:
REMARK  status: ('A' for Active; 'I' for Inactive)
REMARK    1  A    between atoms: C_1  and  C_2
REMARK    2  A    between atoms: N_4  and  C_5
REMARK    3  A    between atoms: C_6  and  C_7
REMARK    4  A    between atoms: C_8  and  C_9
REMARK    5  A    between atoms: C_14  and  C_16
REMARK                            x       y       z     vdW  Elec       q    Type
REMARK                         _______ _______ _______ _____ _____    ______ ____
ROOT
ATOM      1  C   UNL     1      -0.488  10.779  19.603  0.00  0.00    +0.000 C 
ATOM      2  C   UNL     1      -1.387  10.431  18.408  0.00  0.00    +0.000 C 
ATOM      3  C   UNL     1      -1.939  11.778  17.988  0.00  0.00    +0.000 C 
ATOM      4  C   UNL     1      -0.809  12.749  18.305  0.00  0.00    +0.000 C 
ATOM      5  N   UNL     1       0.113  12.044  19.193  0.00  0.00    +0.000 N 
ATOM      6  C   UNL     1       1.086  12.698  19.959  0.00  0.00    +0.000 C 
ATOM      7  O   UNL     1       1.682  12.131  20.874  0.00  0.00    +0.000 OA
ENDROOT
BRANCH   1  15
ATOM      8  C   UNL     1      -0.401   9.173  22.405  0.00  0.00    +0.000 C 
ATOM      9  C   UNL     1       0.411   8.920  21.182  0.00  0.00    +0.000 A 
ATOM     10  N   UNL     1       1.241   7.874  21.156  0.00  0.00    +0.000 NA
ATOM     11  N   UNL     1       1.806   7.932  19.942  0.00  0.00    +0.000 N 
ATOM     12  C   UNL     1       2.686   6.859  19.544  0.00  0.00    +0.000 C 
ATOM     13  C   UNL     1       1.379   8.990  19.180  0.00  0.00    +0.000 A 
ATOM     14  C   UNL     1       1.881   9.277  17.816  0.00  0.00    +0.000 C 
ATOM     15  C   UNL     1       0.423   9.644  19.952  0.00  0.00    +0.000 A 
ENDBRANCH   1  15
BRANCH   6  16
ATOM     16  C   UNL     1       1.350  14.144  19.710  0.00  0.00    +0.000 A 
ATOM     17  C   UNL     1       2.257  14.651  18.733  0.00  0.00    +0.000 A 
ATOM     18  C   UNL     1       2.287  16.012  18.917  0.00  0.00    +0.000 A 
ATOM     19  N   UNL     1       1.390  16.269  19.906  0.00  0.00    +0.000 N 
ATOM     20  N   UNL     1       0.800  15.169  20.395  0.00  0.00    +0.000 NA
ATOM     21  H   UNL     1       1.139  17.168  20.307  0.00  0.00    +0.000 HD
ENDBRANCH   6  16
TORSDOF 2
ENDMDL
MODEL 8
REMARK VINA RESULT:      -6.6      2.373      5.869
REMARK  Name = 
REMARK  5 active torsions:
REMARK  status: ('A' for Active; 'I' for Inactive)
REMARK    1  A    between atoms: C_1  and  C_2
REMARK    2  A    between atoms: N_4  and  C_5
REMARK    3  A    between atoms: C_6  and  C_7
REMARK    4  A    between atoms: C_8  and  C_9
REMARK    5  A    between atoms: C_14  and  C_16
REMARK                            x       y       z     vdW  Elec       q    Type
REMARK                         _______ _______ _______ _____ _____    ______ ____
ROOT
ATOM      1  C   UNL     1       4.543   5.121  19.090  0.00  0.00    +0.000 C 
ATOM      2  C   UNL     1       3.979   3.785  19.593  0.00  0.00    +0.000 C 
ATOM      3  C   UNL     1       2.867   4.212  20.530  0.00  0.00    +0.000 C 
ATOM      4  C   UNL     1       2.338   5.496  19.906  0.00  0.00    +0.000 C 
ATOM      5  N   UNL     1       3.344   5.939  18.943  0.00  0.00    +0.000 N 
ATOM      6  C   UNL     1       3.379   7.237  18.416  0.00  0.00    +0.000 C 
ATOM      7  O   UNL     1       4.358   7.665  17.806  0.00  0.00    +0.000 OA
ENDROOT
BRANCH   1  15
ATOM      8  C   UNL     1       7.715   5.709  18.911  0.00  0.00    +0.000 C 
ATOM      9  C   UNL     1       6.828   5.153  17.850  0.00  0.00    +0.000 A 
ATOM     10  N   UNL     1       7.364   4.766  16.690  0.00  0.00    +0.000 NA
ATOM     11  N   UNL     1       6.319   4.325  15.976  0.00  0.00    +0.000 N 
ATOM     12  C   UNL     1       6.574   3.721  14.689  0.00  0.00    +0.000 C 
ATOM     13  C   UNL     1       5.117   4.424  16.630  0.00  0.00    +0.000 A 
ATOM     14  C   UNL     1       3.820   4.026  16.034  0.00  0.00    +0.000 C 
ATOM     15  C   UNL     1       5.419   4.929  17.891  0.00  0.00    +0.000 A 
ENDBRANCH   1  15
BRANCH   6  16
ATOM     16  C   UNL     1       2.227   8.150  18.670  0.00  0.00    +0.000 A 
ATOM     17  C   UNL     1       1.535   8.888  17.665  0.00  0.00    +0.000 A 
ATOM     18  C   UNL     1       0.636   9.683  18.333  0.00  0.00    +0.000 A 
ATOM     19  N   UNL     1       0.768   9.362  19.648  0.00  0.00    +0.000 N 
ATOM     20  N   UNL     1       1.708   8.435  19.883  0.00  0.00    +0.000 NA
ATOM     21  H   UNL     1       0.262   9.744  20.442  0.00  0.00    +0.000 HD
ENDBRANCH   6  16
TORSDOF 2
ENDMDL
MODEL 9
REMARK VINA RESULT:      -6.6      2.444      6.161
REMARK  Name = 
REMARK  5 active torsions:
REMARK  status: ('A' for Active; 'I' for Inactive)
REMARK    1  A    between atoms: C_1  and  C_2
REMARK    2  A    between atoms: N_4  and  C_5
REMARK    3  A    between atoms: C_6  and  C_7
REMARK    4  A    between atoms: C_8  and  C_9
REMARK    5  A    between atoms: C_14  and  C_16
REMARK                            x       y       z     vdW  Elec       q    Type
REMARK                         _______ _______ _______ _____ _____    ______ ____
ROOT
ATOM      1  C   UNL     1       5.725   4.284  17.534  0.00  0.00    +0.000 C 
ATOM      2  C   UNL     1       5.555   3.696  16.126  0.00  0.00    +0.000 C 
ATOM      3  C   UNL     1       4.553   2.580  16.337  0.00  0.00    +0.000 C 
ATOM      4  C   UNL     1       3.662   3.098  17.458  0.00  0.00    +0.000 C 
ATOM      5  N   UNL     1       4.370   4.219  18.073  0.00  0.00    +0.000 N 
ATOM      6  C   UNL     1       4.035   4.738  19.330  0.00  0.00    +0.000 C 
ATOM      7  O   UNL     1       4.781   5.506  19.935  0.00  0.00    +0.000 OA
ENDROOT
BRANCH   1  15
ATOM      8  C   UNL     1       4.960   6.777  15.627  0.00  0.00    +0.000 C 
ATOM      9  C   UNL     1       6.020   6.719  16.672  0.00  0.00    +0.000 A 
ATOM     10  N   UNL     1       6.723   7.820  16.949  0.00  0.00    +0.000 NA
ATOM     11  N   UNL     1       7.572   7.435  17.911  0.00  0.00    +0.000 N 
ATOM     12  C   UNL     1       8.414   8.436  18.524  0.00  0.00    +0.000 C 
ATOM     13  C   UNL     1       7.453   6.114  18.263  0.00  0.00    +0.000 A 
ATOM     14  C   UNL     1       8.301   5.454  19.283  0.00  0.00    +0.000 C 
ATOM     15  C   UNL     1       6.406   5.617  17.493  0.00  0.00    +0.000 A 
ENDBRANCH   1  15
BRANCH   6  16
ATOM     16  C   UNL     1       2.774   4.286  19.985  0.00  0.00    +0.000 A 
ATOM     17  C   UNL     1       2.691   3.254  20.966  0.00  0.00    +0.000 A 
ATOM     18  C   UNL     1       1.351   3.076  21.212  0.00  0.00    +0.000 A 
ATOM     19  N   UNL     1       0.711   4.009  20.456  0.00  0.00    +0.000 N 
ATOM     20  N   UNL     1       1.540   4.760  19.716  0.00  0.00    +0.000 NA
ATOM     21  H   UNL     1      -0.287   4.180  20.384  0.00  0.00    +0.000 HD
ENDBRANCH   6  16
TORSDOF 2
ENDMDL
