MODEL 1
REMARK VINA RESULT:      -8.4      0.000      0.000
REMARK  Name = 
REMARK  8 active torsions:
REMARK  status: ('A' for Active; 'I' for Inactive)
REMARK    1  A    between atoms: C_1  and  N_2
REMARK    2  A    between atoms: N_2  and  C_3
REMARK    3  A    between atoms: N_2  and  C_4
REMARK    4  A    between atoms: C_4  and  C_5
REMARK    5  A    between atoms: C_14  and  O_15
REMARK    6  A    between atoms: C_14  and  C_16
REMARK    7  A    between atoms: C_16  and  C_17
REMARK    8  A    between atoms: C_17  and  C_18
REMARK                            x       y       z     vdW  Elec       q    Type
REMARK                         _______ _______ _______ _____ _____    ______ ____
ROOT
ATOM      1  C   UNL     1       2.321   5.450  19.297  0.00  0.00    +0.000 C 
ATOM      2  C   UNL     1       1.926   4.860  17.892  0.00  0.00    +0.000 C 
ATOM      3  C   UNL     1       2.432   3.439  17.631  0.00  0.00    +0.000 C 
ATOM      4  C   UNL     1       3.961   3.336  17.701  0.00  0.00    +0.000 C 
ATOM      5  C   UNL     1       4.397   3.847  19.082  0.00  0.00    +0.000 C 
ATOM      6  C   UNL     1       3.885   5.256  19.392  0.00  0.00    +0.000 C 
ENDROOT
BRANCH   1   7
ATOM      7  C   UNL     1       1.982   6.975  19.328  0.00  0.00    +0.000 A 
ATOM      8  C   UNL     1       1.506   7.598  20.501  0.00  0.00    +0.000 A 
ATOM      9  C   UNL     1       1.199   8.964  20.538  0.00  0.00    +0.000 A 
ATOM     10  C   UNL     1       1.359   9.736  19.397  0.00  0.00    +0.000 A 
ATOM     11 CL   UNL     1       0.980  11.414  19.437  0.00  0.00    +0.000 Cl
ATOM     12  C   UNL     1       1.816   9.155  18.220  0.00  0.00    +0.000 A 
ATOM     13  C   UNL     1       2.120   7.789  18.186  0.00  0.00    +0.000 A 
ENDBRANCH   1   7
BRANCH   1  15
ATOM     14  C   UNL     1       0.770   3.601  19.959  0.00  0.00    +0.000 C 
ATOM     15  N   UNL     1       1.642   4.694  20.405  0.00  0.00    +0.000 NA
ATOM     16  C   UNL     1       2.536   4.167  21.442  0.00  0.00    +0.000 C 
ENDBRANCH   1  15
BRANCH   4  17
ATOM     17  O   UNL     1       4.316   1.958  17.612  0.00  0.00    +0.000 OA
ATOM     18  H   UNL     1       5.064   1.874  16.989  0.00  0.00    +0.000 HD
ENDBRANCH   4  17
BRANCH   4  19
ATOM     19  C   UNL     1       4.642   4.078  16.520  0.00  0.00    +0.000 C 
BRANCH  19  20
ATOM     20  C   UNL     1       6.176   3.964  16.520  0.00  0.00    +0.000 C 
BRANCH  20  21
ATOM     21  C   UNL     1       6.842   5.141  17.191  0.00  0.00    +0.000 A 
ATOM     22  C   UNL     1       6.688   6.435  16.667  0.00  0.00    +0.000 A 
ATOM     23  C   UNL     1       7.258   7.530  17.306  0.00  0.00    +0.000 A 
ATOM     24  C   UNL     1       8.003   7.349  18.471  0.00  0.00    +0.000 A 
ATOM     25  C   UNL     1       8.180   6.068  18.991  0.00  0.00    +0.000 A 
ATOM     26  C   UNL     1       7.602   4.966  18.354  0.00  0.00    +0.000 A 
ENDBRANCH  20  21
ENDBRANCH  19  20
ENDBRANCH   4  19
TORSDOF 6
ENDMDL
MODEL 2
REMARK VINA RESULT:      -8.3      0.064      1.364
REMARK  Name = 
REMARK  8 active torsions:
REMARK  status: ('A' for Active; 'I' for Inactive)
REMARK    1  A    between atoms: C_1  and  N_2
REMARK    2  A    between atoms: N_2  and  C_3
REMARK    3  A    between atoms: N_2  and  C_4
REMARK    4  A    between atoms: C_4  and  C_5
REMARK    5  A    between atoms: C_14  and  O_15
REMARK    6  A    between atoms: C_14  and  C_16
REMARK    7  A    between atoms: C_16  and  C_17
REMARK    8  A    between atoms: C_17  and  C_18
REMARK                            x       y       z     vdW  Elec       q    Type
REMARK                         _______ _______ _______ _____ _____    ______ ____
ROOT
ATOM      1  C   UNL     1       2.310   5.432  19.309  0.00  0.00    +0.000 C 
ATOM      2  C   UNL     1       1.931   4.851  17.895  0.00  0.00    +0.000 C 
ATOM      3  C   UNL     1       2.455   3.439  17.623  0.00  0.00    +0.000 C 
ATOM      4  C   UNL     1       3.984   3.351  17.705  0.00  0.00    +0.000 C 
ATOM      5  C   UNL     1       4.404   3.852  19.094  0.00  0.00    +0.000 C 
ATOM      6  C   UNL     1       3.874   5.253  19.414  0.00  0.00    +0.000 C 
ENDROOT
BRANCH   1   7
ATOM      7  C   UNL     1       1.954   6.953  19.352  0.00  0.00    +0.000 A 
ATOM      8  C   UNL     1       2.118   7.778  18.219  0.00  0.00    +0.000 A 
ATOM      9  C   UNL     1       1.803   9.142  18.248  0.00  0.00    +0.000 A 
ATOM     10  C   UNL     1       1.319   9.711  19.418  0.00  0.00    +0.000 A 
ATOM     11 CL   UNL     1       0.934  11.387  19.459  0.00  0.00    +0.000 Cl
ATOM     12  C   UNL     1       1.155   8.932  20.557  0.00  0.00    +0.000 A 
ATOM     13  C   UNL     1       1.473   7.569  20.524  0.00  0.00    +0.000 A 
ENDBRANCH   1   7
BRANCH   1  15
ATOM     14  C   UNL     1       0.777   3.556  19.940  0.00  0.00    +0.000 C 
ATOM     15  N   UNL     1       1.630   4.657  20.403  0.00  0.00    +0.000 NA
ATOM     16  C   UNL     1       2.520   4.134  21.446  0.00  0.00    +0.000 C 
ENDBRANCH   1  15
BRANCH   4  17
ATOM     17  O   UNL     1       4.355   1.978  17.604  0.00  0.00    +0.000 OA
ATOM     18  H   UNL     1       5.301   1.932  17.369  0.00  0.00    +0.000 HD
ENDBRANCH   4  17
BRANCH   4  19
ATOM     19  C   UNL     1       4.667   4.113  16.537  0.00  0.00    +0.000 C 
BRANCH  19  20
ATOM     20  C   UNL     1       6.202   4.018  16.550  0.00  0.00    +0.000 C 
BRANCH  20  21
ATOM     21  C   UNL     1       6.846   5.190  17.249  0.00  0.00    +0.000 A 
ATOM     22  C   UNL     1       7.560   4.996  18.444  0.00  0.00    +0.000 A 
ATOM     23  C   UNL     1       8.198   6.061  19.069  0.00  0.00    +0.000 A 
ATOM     24  C   UNL     1       8.120   7.341  18.520  0.00  0.00    +0.000 A 
ATOM     25  C   UNL     1       7.399   7.551  17.345  0.00  0.00    +0.000 A 
ATOM     26  C   UNL     1       6.763   6.479  16.711  0.00  0.00    +0.000 A 
ENDBRANCH  20  21
ENDBRANCH  19  20
ENDBRANCH   4  19
TORSDOF 6
ENDMDL
MODEL 3
REMARK VINA RESULT:      -7.8      1.831      2.715
REMARK  Name = 
REMARK  8 active torsions:
REMARK  status: ('A' for Active; 'I' for Inactive)
REMARK    1  A    between atoms: C_1  and  N_2
REMARK    2  A    between atoms: N_2  and  C_3
REMARK    3  A    between atoms: N_2  and  C_4
REMARK    4  A    between atoms: C_4  and  C_5
REMARK    5  A    between atoms: C_14  and  O_15
REMARK    6  A    between atoms: C_14  and  C_16
REMARK    7  A    between atoms: C_16  and  C_17
REMARK    8  A    between atoms: C_17  and  C_18
REMARK                            x       y       z     vdW  Elec       q    Type
REMARK                         _______ _______ _______ _____ _____    ______ ____
ROOT
ATOM      1  C   UNL     1       2.416   5.620  19.407  0.00  0.00    +0.000 C 
ATOM      2  C   UNL     1       2.038   5.164  17.949  0.00  0.00    +0.000 C 
ATOM      3  C   UNL     1       2.664   3.837  17.512  0.00  0.00    +0.000 C 
ATOM      4  C   UNL     1       4.197   3.868  17.545  0.00  0.00    +0.000 C 
ATOM      5  C   UNL     1       4.622   4.253  18.970  0.00  0.00    +0.000 C 
ATOM      6  C   UNL     1       3.993   5.562  19.453  0.00  0.00    +0.000 C 
ENDROOT
BRANCH   1   7
ATOM      7  C   UNL     1       1.942   7.093  19.625  0.00  0.00    +0.000 A 
ATOM      8  C   UNL     1       1.453   7.531  20.874  0.00  0.00    +0.000 A 
ATOM      9  C   UNL     1       1.025   8.848  21.078  0.00  0.00    +0.000 A 
ATOM     10  C   UNL     1       1.074   9.757  20.031  0.00  0.00    +0.000 A 
ATOM     11 CL   UNL     1       0.546  11.376  20.277  0.00  0.00    +0.000 Cl
ATOM     12  C   UNL     1       1.539   9.360  18.783  0.00  0.00    +0.000 A 
ATOM     13  C   UNL     1       1.964   8.041  18.583  0.00  0.00    +0.000 A 
ENDBRANCH   1   7
BRANCH   1  15
ATOM     14  C   UNL     1       0.852   3.730  19.901  0.00  0.00    +0.000 C 
ATOM     15  N   UNL     1       1.839   4.680  20.428  0.00  0.00    +0.000 NA
ATOM     16  C   UNL     1       2.823   3.924  21.211  0.00  0.00    +0.000 C 
ENDBRANCH   1  15
BRANCH   4  17
ATOM     17  O   UNL     1       4.672   2.549  17.287  0.00  0.00    +0.000 OA
ATOM     18  H   UNL     1       5.648   2.576  17.258  0.00  0.00    +0.000 HD
ENDBRANCH   4  17
BRANCH   4  19
ATOM     19  C   UNL     1       4.776   4.804  16.450  0.00  0.00    +0.000 C 
BRANCH  19  20
ATOM     20  C   UNL     1       6.251   4.525  16.114  0.00  0.00    +0.000 C 
BRANCH  20  21
ATOM     21  C   UNL     1       6.494   4.422  14.628  0.00  0.00    +0.000 A 
ATOM     22  C   UNL     1       7.495   5.199  14.020  0.00  0.00    +0.000 A 
ATOM     23  C   UNL     1       7.759   5.076  12.661  0.00  0.00    +0.000 A 
ATOM     24  C   UNL     1       7.018   4.186  11.883  0.00  0.00    +0.000 A 
ATOM     25  C   UNL     1       6.009   3.423  12.470  0.00  0.00    +0.000 A 
ATOM     26  C   UNL     1       5.747   3.541  13.838  0.00  0.00    +0.000 A 
ENDBRANCH  20  21
ENDBRANCH  19  20
ENDBRANCH   4  19
TORSDOF 6
ENDMDL
MODEL 4
REMARK VINA RESULT:      -7.8      1.831      2.873
REMARK  Name = 
REMARK  8 active torsions:
REMARK  status: ('A' for Active; 'I' for Inactive)
REMARK    1  A    between atoms: C_1  and  N_2
REMARK    2  A    between atoms: N_2  and  C_3
REMARK    3  A    between atoms: N_2  and  C_4
REMARK    4  A    between atoms: C_4  and  C_5
REMARK    5  A    between atoms: C_14  and  O_15
REMARK    6  A    between atoms: C_14  and  C_16
REMARK    7  A    between atoms: C_16  and  C_17
REMARK    8  A    between atoms: C_17  and  C_18
REMARK                            x       y       z     vdW  Elec       q    Type
REMARK                         _______ _______ _______ _____ _____    ______ ____
ROOT
ATOM      1  C   UNL     1       2.460   5.554  19.236  0.00  0.00    +0.000 C 
ATOM      2  C   UNL     1       1.935   4.921  17.894  0.00  0.00    +0.000 C 
ATOM      3  C   UNL     1       2.512   3.541  17.570  0.00  0.00    +0.000 C 
ATOM      4  C   UNL     1       4.041   3.555  17.443  0.00  0.00    +0.000 C 
ATOM      5  C   UNL     1       4.609   4.112  18.757  0.00  0.00    +0.000 C 
ATOM      6  C   UNL     1       4.034   5.481  19.129  0.00  0.00    +0.000 C 
ENDROOT
BRANCH   1   7
ATOM      7  C   UNL     1       2.011   7.049  19.309  0.00  0.00    +0.000 A 
ATOM      8  C   UNL     1       2.089   7.896  18.183  0.00  0.00    +0.000 A 
ATOM      9  C   UNL     1       1.689   9.236  18.239  0.00  0.00    +0.000 A 
ATOM     10  C   UNL     1       1.206   9.761  19.429  0.00  0.00    +0.000 A 
ATOM     11 CL   UNL     1       0.717  11.409  19.503  0.00  0.00    +0.000 Cl
ATOM     12  C   UNL     1       1.125   8.961  20.562  0.00  0.00    +0.000 A 
ATOM     13  C   UNL     1       1.528   7.621  20.503  0.00  0.00    +0.000 A 
ENDBRANCH   1   7
BRANCH   1  15
ATOM     14  C   UNL     1       0.805   3.929  20.175  0.00  0.00    +0.000 C 
ATOM     15  N   UNL     1       1.989   4.760  20.422  0.00  0.00    +0.000 NA
ATOM     16  C   UNL     1       3.010   3.918  21.057  0.00  0.00    +0.000 C 
ENDBRANCH   1  15
BRANCH   4  17
ATOM     17  O   UNL     1       4.487   2.208  17.310  0.00  0.00    +0.000 OA
ATOM     18  H   UNL     1       5.207   2.187  16.650  0.00  0.00    +0.000 HD
ENDBRANCH   4  17
BRANCH   4  19
ATOM     19  C   UNL     1       4.506   4.336  16.184  0.00  0.00    +0.000 C 
BRANCH  19  20
ATOM     20  C   UNL     1       6.031   4.341  15.988  0.00  0.00    +0.000 C 
BRANCH  20  21
ATOM     21  C   UNL     1       6.425   4.347  14.531  0.00  0.00    +0.000 A 
ATOM     22  C   UNL     1       7.469   5.175  14.084  0.00  0.00    +0.000 A 
ATOM     23  C   UNL     1       7.871   5.151  12.754  0.00  0.00    +0.000 A 
ATOM     24  C   UNL     1       7.227   4.311  11.845  0.00  0.00    +0.000 A 
ATOM     25  C   UNL     1       6.177   3.499  12.271  0.00  0.00    +0.000 A 
ATOM     26  C   UNL     1       5.777   3.516  13.610  0.00  0.00    +0.000 A 
ENDBRANCH  20  21
ENDBRANCH  19  20
ENDBRANCH   4  19
TORSDOF 6
ENDMDL
MODEL 5
REMARK VINA RESULT:      -7.8      1.853      2.901
REMARK  Name = 
REMARK  8 active torsions:
REMARK  status: ('A' for Active; 'I' for Inactive)
REMARK    1  A    between atoms: C_1  and  N_2
REMARK    2  A    between atoms: N_2  and  C_3
REMARK    3  A    between atoms: N_2  and  C_4
REMARK    4  A    between atoms: C_4  and  C_5
REMARK    5  A    between atoms: C_14  and  O_15
REMARK    6  A    between atoms: C_14  and  C_16
REMARK    7  A    between atoms: C_16  and  C_17
REMARK    8  A    between atoms: C_17  and  C_18
REMARK                            x       y       z     vdW  Elec       q    Type
REMARK                         _______ _______ _______ _____ _____    ______ ____
ROOT
ATOM      1  C   UNL     1       2.475   5.578  19.388  0.00  0.00    +0.000 C 
ATOM      2  C   UNL     1       2.020   5.079  17.966  0.00  0.00    +0.000 C 
ATOM      3  C   UNL     1       2.654   3.760  17.519  0.00  0.00    +0.000 C 
ATOM      4  C   UNL     1       4.185   3.832  17.455  0.00  0.00    +0.000 C 
ATOM      5  C   UNL     1       4.687   4.260  18.843  0.00  0.00    +0.000 C 
ATOM      6  C   UNL     1       4.053   5.563  19.337  0.00  0.00    +0.000 C 
ENDROOT
BRANCH   1   7
ATOM      7  C   UNL     1       1.974   7.042  19.604  0.00  0.00    +0.000 A 
ATOM      8  C   UNL     1       1.968   7.980  18.549  0.00  0.00    +0.000 A 
ATOM      9  C   UNL     1       1.522   9.294  18.733  0.00  0.00    +0.000 A 
ATOM     10  C   UNL     1       1.074   9.700  19.982  0.00  0.00    +0.000 A 
ATOM     11 CL   UNL     1       0.528  11.315  20.212  0.00  0.00    +0.000 Cl
ATOM     12  C   UNL     1       1.075   8.808  21.047  0.00  0.00    +0.000 A 
ATOM     13  C   UNL     1       1.524   7.495  20.860  0.00  0.00    +0.000 A 
ENDBRANCH   1   7
BRANCH   1  15
ATOM     14  C   UNL     1       0.794   3.868  20.108  0.00  0.00    +0.000 C 
ATOM     15  N   UNL     1       1.988   4.646  20.462  0.00  0.00    +0.000 NA
ATOM     16  C   UNL     1       2.994   3.718  20.990  0.00  0.00    +0.000 C 
ENDBRANCH   1  15
BRANCH   4  17
ATOM     17  O   UNL     1       4.680   2.521  17.195  0.00  0.00    +0.000 OA
ATOM     18  H   UNL     1       4.127   1.882  17.685  0.00  0.00    +0.000 HD
ENDBRANCH   4  17
BRANCH   4  19
ATOM     19  C   UNL     1       4.669   4.758  16.307  0.00  0.00    +0.000 C 
BRANCH  19  20
ATOM     20  C   UNL     1       6.184   4.684  16.050  0.00  0.00    +0.000 C 
BRANCH  20  21
ATOM     21  C   UNL     1       6.512   4.502  14.588  0.00  0.00    +0.000 A 
ATOM     22  C   UNL     1       5.773   3.600  13.804  0.00  0.00    +0.000 A 
ATOM     23  C   UNL     1       6.036   3.460  12.446  0.00  0.00    +0.000 A 
ATOM     24  C   UNL     1       7.053   4.208  11.852  0.00  0.00    +0.000 A 
ATOM     25  C   UNL     1       7.808   5.092  12.622  0.00  0.00    +0.000 A 
ATOM     26  C   UNL     1       7.539   5.239  13.986  0.00  0.00    +0.000 A 
ENDBRANCH  20  21
ENDBRANCH  19  20
ENDBRANCH   4  19
TORSDOF 6
ENDMDL
MODEL 6
REMARK VINA RESULT:      -7.7      0.573      1.309
REMARK  Name = 
REMARK  8 active torsions:
REMARK  status: ('A' for Active; 'I' for Inactive)
REMARK    1  A    between atoms: C_1  and  N_2
REMARK    2  A    between atoms: N_2  and  C_3
REMARK    3  A    between atoms: N_2  and  C_4
REMARK    4  A    between atoms: C_4  and  C_5
REMARK    5  A    between atoms: C_14  and  O_15
REMARK    6  A    between atoms: C_14  and  C_16
REMARK    7  A    between atoms: C_16  and  C_17
REMARK    8  A    between atoms: C_17  and  C_18
REMARK                            x       y       z     vdW  Elec       q    Type
REMARK                         _______ _______ _______ _____ _____    ______ ____
ROOT
ATOM      1  C   UNL     1       2.529   4.958  19.223  0.00  0.00    +0.000 C 
ATOM      2  C   UNL     1       2.124   4.586  17.748  0.00  0.00    +0.000 C 
ATOM      3  C   UNL     1       2.716   3.270  17.236  0.00  0.00    +0.000 C 
ATOM      4  C   UNL     1       4.250   3.268  17.251  0.00  0.00    +0.000 C 
ATOM      5  C   UNL     1       4.700   3.570  18.688  0.00  0.00    +0.000 C 
ATOM      6  C   UNL     1       4.105   4.865  19.245  0.00  0.00    +0.000 C 
ENDROOT
BRANCH   1   7
ATOM      7  C   UNL     1       2.089   6.428  19.522  0.00  0.00    +0.000 A 
ATOM      8  C   UNL     1       2.173   7.434  18.536  0.00  0.00    +0.000 A 
ATOM      9  C   UNL     1       1.781   8.753  18.794  0.00  0.00    +0.000 A 
ATOM     10  C   UNL     1       1.299   9.095  20.050  0.00  0.00    +0.000 A 
ATOM     11 CL   UNL     1       0.820  10.715  20.372  0.00  0.00    +0.000 Cl
ATOM     12  C   UNL     1       1.213   8.133  21.049  0.00  0.00    +0.000 A 
ATOM     13  C   UNL     1       1.607   6.815  20.788  0.00  0.00    +0.000 A 
ENDBRANCH   1   7
BRANCH   1  15
ATOM     14  C   UNL     1       2.380   4.162  21.591  0.00  0.00    +0.000 C 
ATOM     15  N   UNL     1       1.944   3.979  20.202  0.00  0.00    +0.000 NA
ATOM     16  C   UNL     1       0.479   3.886  20.194  0.00  0.00    +0.000 C 
ENDBRANCH   1  15
BRANCH   4  17
ATOM     17  O   UNL     1       4.694   1.955  16.919  0.00  0.00    +0.000 OA
ATOM     18  H   UNL     1       4.643   1.402  17.722  0.00  0.00    +0.000 HD
ENDBRANCH   4  17
BRANCH   4  19
ATOM     19  C   UNL     1       4.836   4.247  16.197  0.00  0.00    +0.000 C 
BRANCH  19  20
ATOM     20  C   UNL     1       6.371   4.217  16.113  0.00  0.00    +0.000 C 
BRANCH  20  21
ATOM     21  C   UNL     1       7.018   5.257  16.996  0.00  0.00    +0.000 A 
ATOM     22  C   UNL     1       6.987   6.614  16.631  0.00  0.00    +0.000 A 
ATOM     23  C   UNL     1       7.537   7.583  17.462  0.00  0.00    +0.000 A 
ATOM     24  C   UNL     1       8.142   7.211  18.663  0.00  0.00    +0.000 A 
ATOM     25  C   UNL     1       8.196   5.867  19.028  0.00  0.00    +0.000 A 
ATOM     26  C   UNL     1       7.636   4.892  18.197  0.00  0.00    +0.000 A 
ENDBRANCH  20  21
ENDBRANCH  19  20
ENDBRANCH   4  19
TORSDOF 6
ENDMDL
MODEL 7
REMARK VINA RESULT:      -7.7      2.106      3.319
REMARK  Name = 
REMARK  8 active torsions:
REMARK  status: ('A' for Active; 'I' for Inactive)
REMARK    1  A    between atoms: C_1  and  N_2
REMARK    2  A    between atoms: N_2  and  C_3
REMARK    3  A    between atoms: N_2  and  C_4
REMARK    4  A    between atoms: C_4  and  C_5
REMARK    5  A    between atoms: C_14  and  O_15
REMARK    6  A    between atoms: C_14  and  C_16
REMARK    7  A    between atoms: C_16  and  C_17
REMARK    8  A    between atoms: C_17  and  C_18
REMARK                            x       y       z     vdW  Elec       q    Type
REMARK                         _______ _______ _______ _____ _____    ______ ____
ROOT
ATOM      1  C   UNL     1       3.947   5.894  18.245  0.00  0.00    +0.000 C 
ATOM      2  C   UNL     1       4.460   6.244  16.798  0.00  0.00    +0.000 C 
ATOM      3  C   UNL     1       5.636   5.393  16.314  0.00  0.00    +0.000 C 
ATOM      4  C   UNL     1       6.866   5.515  17.223  0.00  0.00    +0.000 C 
ATOM      5  C   UNL     1       6.432   5.125  18.644  0.00  0.00    +0.000 C 
ATOM      6  C   UNL     1       5.238   5.937  19.152  0.00  0.00    +0.000 C 
ENDROOT
BRANCH   1   7
ATOM      7  C   UNL     1       2.943   6.995  18.714  0.00  0.00    +0.000 A 
ATOM      8  C   UNL     1       2.395   6.983  20.015  0.00  0.00    +0.000 A 
ATOM      9  C   UNL     1       1.494   7.965  20.445  0.00  0.00    +0.000 A 
ATOM     10  C   UNL     1       1.118   8.980  19.577  0.00  0.00    +0.000 A 
ATOM     11 CL   UNL     1       0.008  10.187  20.101  0.00  0.00    +0.000 Cl
ATOM     12  C   UNL     1       1.628   9.019  18.286  0.00  0.00    +0.000 A 
ATOM     13  C   UNL     1       2.527   8.034  17.859  0.00  0.00    +0.000 A 
ENDBRANCH   1   7
BRANCH   1  15
ATOM     14  C   UNL     1       3.327   3.885  19.602  0.00  0.00    +0.000 C 
ATOM     15  N   UNL     1       3.341   4.519  18.278  0.00  0.00    +0.000 NA
ATOM     16  C   UNL     1       1.991   4.416  17.712  0.00  0.00    +0.000 C 
ENDBRANCH   1  15
BRANCH   4  17
ATOM     17  O   UNL     1       7.836   4.566  16.785  0.00  0.00    +0.000 OA
ATOM     18  H   UNL     1       7.366   3.770  16.472  0.00  0.00    +0.000 HD
ENDBRANCH   4  17
BRANCH   4  19
ATOM     19  C   UNL     1       7.509   6.925  17.135  0.00  0.00    +0.000 C 
BRANCH  19  20
ATOM     20  C   UNL     1       8.155   7.394  18.449  0.00  0.00    +0.000 C 
BRANCH  20  21
ATOM     21  C   UNL     1       8.440   8.876  18.456  0.00  0.00    +0.000 A 
ATOM     22  C   UNL     1       9.294   9.429  19.425  0.00  0.00    +0.000 A 
ATOM     23  C   UNL     1       9.600  10.784  19.410  0.00  0.00    +0.000 A 
ATOM     24  C   UNL     1       9.046  11.614  18.435  0.00  0.00    +0.000 A 
ATOM     25  C   UNL     1       8.181  11.083  17.479  0.00  0.00    +0.000 A 
ATOM     26  C   UNL     1       7.879   9.718  17.488  0.00  0.00    +0.000 A 
ENDBRANCH  20  21
ENDBRANCH  19  20
ENDBRANCH   4  19
TORSDOF 6
ENDMDL
MODEL 8
REMARK VINA RESULT:      -7.6      2.140      3.373
REMARK  Name = 
REMARK  8 active torsions:
REMARK  status: ('A' for Active; 'I' for Inactive)
REMARK    1  A    between atoms: C_1  and  N_2
REMARK    2  A    between atoms: N_2  and  C_3
REMARK    3  A    between atoms: N_2  and  C_4
REMARK    4  A    between atoms: C_4  and  C_5
REMARK    5  A    between atoms: C_14  and  O_15
REMARK    6  A    between atoms: C_14  and  C_16
REMARK    7  A    between atoms: C_16  and  C_17
REMARK    8  A    between atoms: C_17  and  C_18
REMARK                            x       y       z     vdW  Elec       q    Type
REMARK                         _______ _______ _______ _____ _____    ______ ____
ROOT
ATOM      1  C   UNL     1       3.969   5.936  18.241  0.00  0.00    +0.000 C 
ATOM      2  C   UNL     1       4.492   6.282  16.797  0.00  0.00    +0.000 C 
ATOM      3  C   UNL     1       5.682   5.440  16.329  0.00  0.00    +0.000 C 
ATOM      4  C   UNL     1       6.901   5.580  17.249  0.00  0.00    +0.000 C 
ATOM      5  C   UNL     1       6.458   5.194  18.668  0.00  0.00    +0.000 C 
ATOM      6  C   UNL     1       5.251   5.997  19.160  0.00  0.00    +0.000 C 
ENDROOT
BRANCH   1   7
ATOM      7  C   UNL     1       2.949   7.029  18.694  0.00  0.00    +0.000 A 
ATOM      8  C   UNL     1       2.547   8.064  17.824  0.00  0.00    +0.000 A 
ATOM      9  C   UNL     1       1.634   9.049  18.221  0.00  0.00    +0.000 A 
ATOM     10  C   UNL     1       1.106   9.020  19.504  0.00  0.00    +0.000 A 
ATOM     11 CL   UNL     1      -0.013  10.230  19.997  0.00  0.00    +0.000 Cl
ATOM     12  C   UNL     1       1.488   8.023  20.393  0.00  0.00    +0.000 A 
ATOM     13  C   UNL     1       2.402   7.041  19.993  0.00  0.00    +0.000 A 
ENDBRANCH   1   7
BRANCH   1  15
ATOM     14  C   UNL     1       3.340   3.936  19.609  0.00  0.00    +0.000 C 
ATOM     15  N   UNL     1       3.377   4.555  18.278  0.00  0.00    +0.000 NA
ATOM     16  C   UNL     1       2.041   4.431  17.684  0.00  0.00    +0.000 C 
ENDBRANCH   1  15
BRANCH   4  17
ATOM     17  O   UNL     1       7.885   4.638  16.826  0.00  0.00    +0.000 OA
ATOM     18  H   UNL     1       8.471   5.076  16.180  0.00  0.00    +0.000 HD
ENDBRANCH   4  17
BRANCH   4  19
ATOM     19  C   UNL     1       7.531   6.996  17.157  0.00  0.00    +0.000 C 
BRANCH  19  20
ATOM     20  C   UNL     1       8.184   7.468  18.467  0.00  0.00    +0.000 C 
BRANCH  20  21
ATOM     21  C   UNL     1       8.499   8.944  18.455  0.00  0.00    +0.000 A 
ATOM     22  C   UNL     1       7.925   9.783  17.484  0.00  0.00    +0.000 A 
ATOM     23  C   UNL     1       8.171  11.150  17.494  0.00  0.00    +0.000 A 
ATOM     24  C   UNL     1       9.008  11.702  18.465  0.00  0.00    +0.000 A 
ATOM     25  C   UNL     1       9.600  10.879  19.422  0.00  0.00    +0.000 A 
ATOM     26  C   UNL     1       9.347   9.504  19.418  0.00  0.00    +0.000 A 
ENDBRANCH  20  21
ENDBRANCH  19  20
ENDBRANCH   4  19
TORSDOF 6
ENDMDL
MODEL 9
REMARK VINA RESULT:      -7.4      0.716      1.225
REMARK  Name = 
REMARK  8 active torsions:
REMARK  status: ('A' for Active; 'I' for Inactive)
REMARK    1  A    between atoms: C_1  and  N_2
REMARK    2  A    between atoms: N_2  and  C_3
REMARK    3  A    between atoms: N_2  and  C_4
REMARK    4  A    between atoms: C_4  and  C_5
REMARK    5  A    between atoms: C_14  and  O_15
REMARK    6  A    between atoms: C_14  and  C_16
REMARK    7  A    between atoms: C_16  and  C_17
REMARK    8  A    between atoms: C_17  and  C_18
REMARK                            x       y       z     vdW  Elec       q    Type
REMARK                         _______ _______ _______ _____ _____    ______ ____
ROOT
ATOM      1  C   UNL     1       2.214   4.866  19.375  0.00  0.00    +0.000 C 
ATOM      2  C   UNL     1       2.000   4.345  17.905  0.00  0.00    +0.000 C 
ATOM      3  C   UNL     1       2.454   2.902  17.667  0.00  0.00    +0.000 C 
ATOM      4  C   UNL     1       3.945   2.697  17.960  0.00  0.00    +0.000 C 
ATOM      5  C   UNL     1       4.198   3.138  19.409  0.00  0.00    +0.000 C 
ATOM      6  C   UNL     1       3.731   4.568  19.693  0.00  0.00    +0.000 C 
ENDROOT
BRANCH   1   7
ATOM      7  C   UNL     1       1.967   6.409  19.414  0.00  0.00    +0.000 A 
ATOM      8  C   UNL     1       2.212   7.221  18.287  0.00  0.00    +0.000 A 
ATOM      9  C   UNL     1       1.994   8.604  18.312  0.00  0.00    +0.000 A 
ATOM     10  C   UNL     1       1.528   9.205  19.473  0.00  0.00    +0.000 A 
ATOM     11 CL   UNL     1       1.262  10.905  19.509  0.00  0.00    +0.000 Cl
ATOM     12  C   UNL     1       1.286   8.440  20.606  0.00  0.00    +0.000 A 
ATOM     13  C   UNL     1       1.507   7.057  20.578  0.00  0.00    +0.000 A 
ENDBRANCH   1   7
BRANCH   1  15
ATOM     14  C   UNL     1       0.545   3.038  19.743  0.00  0.00    +0.000 C 
ATOM     15  N   UNL     1       1.332   4.124  20.339  0.00  0.00    +0.000 NA
ATOM     16  C   UNL     1       2.010   3.594  21.528  0.00  0.00    +0.000 C 
ENDBRANCH   1  15
BRANCH   4  17
ATOM     17  O   UNL     1       4.226   1.302  17.871  0.00  0.00    +0.000 OA
ATOM     18  H   UNL     1       4.093   0.906  18.753  0.00  0.00    +0.000 HD
ENDBRANCH   4  17
BRANCH   4  19
ATOM     19  C   UNL     1       4.840   3.428  16.923  0.00  0.00    +0.000 C 
BRANCH  19  20
ATOM     20  C   UNL     1       4.628   4.951  16.887  0.00  0.00    +0.000 C 
BRANCH  20  21
ATOM     21  C   UNL     1       5.838   5.713  17.370  0.00  0.00    +0.000 A 
ATOM     22  C   UNL     1       6.016   7.060  17.010  0.00  0.00    +0.000 A 
ATOM     23  C   UNL     1       7.101   7.784  17.489  0.00  0.00    +0.000 A 
ATOM     24  C   UNL     1       8.036   7.170  18.324  0.00  0.00    +0.000 A 
ATOM     25  C   UNL     1       7.882   5.829  18.674  0.00  0.00    +0.000 A 
ATOM     26  C   UNL     1       6.787   5.102  18.198  0.00  0.00    +0.000 A 
ENDBRANCH  20  21
ENDBRANCH  19  20
ENDBRANCH   4  19
TORSDOF 6
ENDMDL
