MODEL 1
REMARK VINA RESULT:      -7.6      0.000      0.000
REMARK  Name = 
REMARK  12 active torsions:
REMARK  status: ('A' for Active; 'I' for Inactive)
REMARK    1  A    between atoms: C_1  and  O_2
REMARK    2  A    between atoms: O_2  and  C_3
REMARK    3  A    between atoms: C_8  and  C_9
REMARK    4  A    between atoms: N_10  and  N_11
REMARK    5  A    between atoms: C_12  and  C_14
REMARK    6  A    between atoms: C_14  and  C_15
REMARK    7  A    between atoms: C_15  and  N_16
REMARK    8  A    between atoms: C_17  and  O_19
REMARK    9  A    between atoms: O_19  and  C_20
REMARK   10  A    between atoms: C_20  and  C_21
REMARK   11  A    between atoms: C_20  and  C_22
REMARK   12  A    between atoms: C_20  and  C_23
REMARK                            x       y       z     vdW  Elec       q    Type
REMARK                         _______ _______ _______ _____ _____    ______ ____
ROOT
ATOM      1  N   UNL     1       4.254   6.893  17.093  0.00  0.00    +0.000 N 
ATOM      2  C   UNL     1       5.080   5.904  17.620  0.00  0.00    +0.000 C 
ATOM      3  O   UNL     1       5.291   5.738  18.820  0.00  0.00    +0.000 OA
ATOM      4  H   UNL     1       4.074   6.963  16.098  0.00  0.00    +0.000 HD
ENDROOT
BRANCH   1   6
ATOM      5  C   UNL     1       2.322   7.909  17.763  0.00  0.00    +0.000 C 
ATOM      6  N   UNL     1       3.588   7.714  17.964  0.00  0.00    +0.000 NA
BRANCH   5  12
ATOM      7  C   UNL     1      -0.638  10.757  22.701  0.00  0.00    +0.000 A 
ATOM      8  C   UNL     1       0.094   9.648  23.111  0.00  0.00    +0.000 A 
ATOM      9  C   UNL     1       0.814   8.892  22.175  0.00  0.00    +0.000 A 
ATOM     10  C   UNL     1       0.829   9.209  20.823  0.00  0.00    +0.000 A 
ATOM     11  N   UNL     1       1.539   8.443  19.970  0.00  0.00    +0.000 NA
ATOM     12  C   UNL     1       1.524   8.786  18.658  0.00  0.00    +0.000 A 
ATOM     13  C   UNL     1       0.825   9.872  18.151  0.00  0.00    +0.000 A 
ATOM     14  C   UNL     1       0.098  10.656  19.043  0.00  0.00    +0.000 A 
ATOM     15  C   UNL     1       0.086  10.335  20.407  0.00  0.00    +0.000 A 
ATOM     16  C   UNL     1      -0.637  11.098  21.348  0.00  0.00    +0.000 A 
BRANCH   7  18
ATOM     17  C   UNL     1      -2.568  12.122  22.955  0.00  0.00    +0.000 C 
ATOM     18  O   UNL     1      -1.378  11.573  23.512  0.00  0.00    +0.000 OA
ENDBRANCH   7  18
ENDBRANCH   5  12
ENDBRANCH   1   6
BRANCH   2  19
ATOM     19  C   UNL     1       5.769   5.052  16.571  0.00  0.00    +0.000 C 
BRANCH  19  20
ATOM     20  C   UNL     1       5.014   3.731  16.376  0.00  0.00    +0.000 C 
BRANCH  20  21
ATOM     21  N   UNL     1       4.568   3.124  17.619  0.00  0.00    +0.000 N 
ATOM     22  C   UNL     1       3.245   2.864  17.835  0.00  0.00    +0.000 C 
ATOM     23  O   UNL     1       2.389   2.980  16.967  0.00  0.00    +0.000 OA
ATOM     24  H   UNL     1       5.159   3.143  18.437  0.00  0.00    +0.000 HD
BRANCH  22  25
ATOM     25  O   UNL     1       3.024   2.464  19.115  0.00  0.00    +0.000 OA
BRANCH  25  26
ATOM     26  C   UNL     1       2.023   3.183  19.892  0.00  0.00    +0.000 C 
ATOM     27  C   UNL     1       2.146   4.697  19.664  0.00  0.00    +0.000 C 
ATOM     28  C   UNL     1       0.641   2.737  19.382  0.00  0.00    +0.000 C 
ATOM     29  C   UNL     1       2.101   2.814  21.382  0.00  0.00    +0.000 C 
ENDBRANCH  25  26
ENDBRANCH  22  25
ENDBRANCH  20  21
ENDBRANCH  19  20
ENDBRANCH   2  19
TORSDOF 8
ENDMDL
MODEL 2
REMARK VINA RESULT:      -7.3      1.016      1.373
REMARK  Name = 
REMARK  12 active torsions:
REMARK  status: ('A' for Active; 'I' for Inactive)
REMARK    1  A    between atoms: C_1  and  O_2
REMARK    2  A    between atoms: O_2  and  C_3
REMARK    3  A    between atoms: C_8  and  C_9
REMARK    4  A    between atoms: N_10  and  N_11
REMARK    5  A    between atoms: C_12  and  C_14
REMARK    6  A    between atoms: C_14  and  C_15
REMARK    7  A    between atoms: C_15  and  N_16
REMARK    8  A    between atoms: C_17  and  O_19
REMARK    9  A    between atoms: O_19  and  C_20
REMARK   10  A    between atoms: C_20  and  C_21
REMARK   11  A    between atoms: C_20  and  C_22
REMARK   12  A    between atoms: C_20  and  C_23
REMARK                            x       y       z     vdW  Elec       q    Type
REMARK                         _______ _______ _______ _____ _____    ______ ____
ROOT
ATOM      1  N   UNL     1       4.295   6.631  17.036  0.00  0.00    +0.000 N 
ATOM      2  C   UNL     1       5.660   6.689  16.770  0.00  0.00    +0.000 C 
ATOM      3  O   UNL     1       6.415   7.568  17.181  0.00  0.00    +0.000 OA
ATOM      4  H   UNL     1       3.721   5.861  16.713  0.00  0.00    +0.000 HD
ENDROOT
BRANCH   1   6
ATOM      5  C   UNL     1       2.463   7.733  17.837  0.00  0.00    +0.000 C 
ATOM      6  N   UNL     1       3.752   7.591  17.849  0.00  0.00    +0.000 NA
BRANCH   5  12
ATOM      7  C   UNL     1      -0.469  11.012  22.517  0.00  0.00    +0.000 A 
ATOM      8  C   UNL     1      -0.183   9.708  22.905  0.00  0.00    +0.000 A 
ATOM      9  C   UNL     1       0.459   8.832  22.018  0.00  0.00    +0.000 A 
ATOM     10  C   UNL     1       0.832   9.220  20.738  0.00  0.00    +0.000 A 
ATOM     11  N   UNL     1       1.446   8.332  19.928  0.00  0.00    +0.000 NA
ATOM     12  C   UNL     1       1.790   8.750  18.685  0.00  0.00    +0.000 A 
ATOM     13  C   UNL     1       1.548  10.029  18.206  0.00  0.00    +0.000 A 
ATOM     14  C   UNL     1       0.916  10.936  19.051  0.00  0.00    +0.000 A 
ATOM     15  C   UNL     1       0.543  10.544  20.344  0.00  0.00    +0.000 A 
ATOM     16  C   UNL     1      -0.102  11.427  21.236  0.00  0.00    +0.000 A 
BRANCH   7  18
ATOM     17  C   UNL     1      -2.506  12.042  23.183  0.00  0.00    +0.000 C 
ATOM     18  O   UNL     1      -1.088  11.959  23.286  0.00  0.00    +0.000 OA
ENDBRANCH   7  18
ENDBRANCH   5  12
ENDBRANCH   1   6
BRANCH   2  19
ATOM     19  C   UNL     1       6.159   5.582  15.861  0.00  0.00    +0.000 C 
BRANCH  19  20
ATOM     20  C   UNL     1       6.442   4.311  16.672  0.00  0.00    +0.000 C 
BRANCH  20  21
ATOM     21  N   UNL     1       5.244   3.666  17.183  0.00  0.00    +0.000 N 
ATOM     22  C   UNL     1       4.976   3.646  18.521  0.00  0.00    +0.000 C 
ATOM     23  O   UNL     1       5.626   4.281  19.344  0.00  0.00    +0.000 OA
ATOM     24  H   UNL     1       4.747   2.992  16.618  0.00  0.00    +0.000 HD
BRANCH  22  25
ATOM     25  O   UNL     1       3.912   2.849  18.800  0.00  0.00    +0.000 OA
BRANCH  25  26
ATOM     26  C   UNL     1       2.636   3.489  19.091  0.00  0.00    +0.000 C 
ATOM     27  C   UNL     1       1.980   3.999  17.799  0.00  0.00    +0.000 C 
ATOM     28  C   UNL     1       1.714   2.417  19.700  0.00  0.00    +0.000 C 
ATOM     29  C   UNL     1       2.796   4.603  20.138  0.00  0.00    +0.000 C 
ENDBRANCH  25  26
ENDBRANCH  22  25
ENDBRANCH  20  21
ENDBRANCH  19  20
ENDBRANCH   2  19
TORSDOF 8
ENDMDL
MODEL 3
REMARK VINA RESULT:      -7.1      7.000      8.284
REMARK  Name = 
REMARK  12 active torsions:
REMARK  status: ('A' for Active; 'I' for Inactive)
REMARK    1  A    between atoms: C_1  and  O_2
REMARK    2  A    between atoms: O_2  and  C_3
REMARK    3  A    between atoms: C_8  and  C_9
REMARK    4  A    between atoms: N_10  and  N_11
REMARK    5  A    between atoms: C_12  and  C_14
REMARK    6  A    between atoms: C_14  and  C_15
REMARK    7  A    between atoms: C_15  and  N_16
REMARK    8  A    between atoms: C_17  and  O_19
REMARK    9  A    between atoms: O_19  and  C_20
REMARK   10  A    between atoms: C_20  and  C_21
REMARK   11  A    between atoms: C_20  and  C_22
REMARK   12  A    between atoms: C_20  and  C_23
REMARK                            x       y       z     vdW  Elec       q    Type
REMARK                         _______ _______ _______ _____ _____    ______ ____
ROOT
ATOM      1  N   UNL     1       8.232   7.588  18.616  0.00  0.00    +0.000 N 
ATOM      2  C   UNL     1       7.489   6.761  17.779  0.00  0.00    +0.000 C 
ATOM      3  O   UNL     1       6.976   7.119  16.720  0.00  0.00    +0.000 OA
ATOM      4  H   UNL     1       8.674   7.237  19.458  0.00  0.00    +0.000 HD
ENDROOT
BRANCH   1   6
ATOM      5  C   UNL     1       9.124   9.651  19.021  0.00  0.00    +0.000 C 
ATOM      6  N   UNL     1       8.453   8.881  18.221  0.00  0.00    +0.000 NA
BRANCH   5  12
ATOM      7  C   UNL     1      11.501  15.593  18.475  0.00  0.00    +0.000 A 
ATOM      8  C   UNL     1      12.246  14.821  19.359  0.00  0.00    +0.000 A 
ATOM      9  C   UNL     1      11.885  13.489  19.611  0.00  0.00    +0.000 A 
ATOM     10  C   UNL     1      10.788  12.893  19.002  0.00  0.00    +0.000 A 
ATOM     11  N   UNL     1      10.489  11.609  19.286  0.00  0.00    +0.000 NA
ATOM     12  C   UNL     1       9.408  11.066  18.672  0.00  0.00    +0.000 A 
ATOM     13  C   UNL     1       8.602  11.754  17.777  0.00  0.00    +0.000 A 
ATOM     14  C   UNL     1       8.923  13.078  17.490  0.00  0.00    +0.000 A 
ATOM     15  C   UNL     1      10.032  13.677  18.104  0.00  0.00    +0.000 A 
ATOM     16  C   UNL     1      10.395  15.016  17.848  0.00  0.00    +0.000 A 
BRANCH   7  18
ATOM     17  C   UNL     1      10.625  17.689  17.774  0.00  0.00    +0.000 C 
ATOM     18  O   UNL     1      11.749  16.897  18.145  0.00  0.00    +0.000 OA
ENDBRANCH   7  18
ENDBRANCH   5  12
ENDBRANCH   1   6
BRANCH   2  19
ATOM     19  C   UNL     1       7.303   5.352  18.309  0.00  0.00    +0.000 C 
BRANCH  19  20
ATOM     20  C   UNL     1       6.114   5.298  19.277  0.00  0.00    +0.000 C 
BRANCH  20  21
ATOM     21  N   UNL     1       4.952   4.615  18.736  0.00  0.00    +0.000 N 
ATOM     22  C   UNL     1       3.688   5.010  19.072  0.00  0.00    +0.000 C 
ATOM     23  O   UNL     1       3.453   6.028  19.711  0.00  0.00    +0.000 OA
ATOM     24  H   UNL     1       5.041   3.689  18.344  0.00  0.00    +0.000 HD
BRANCH  22  25
ATOM     25  O   UNL     1       2.757   4.138  18.603  0.00  0.00    +0.000 OA
BRANCH  25  26
ATOM     26  C   UNL     1       2.096   3.264  19.562  0.00  0.00    +0.000 C 
ATOM     27  C   UNL     1       3.107   2.718  20.582  0.00  0.00    +0.000 C 
ATOM     28  C   UNL     1       1.066   4.116  20.325  0.00  0.00    +0.000 C 
ATOM     29  C   UNL     1       1.325   2.139  18.854  0.00  0.00    +0.000 C 
ENDBRANCH  25  26
ENDBRANCH  22  25
ENDBRANCH  20  21
ENDBRANCH  19  20
ENDBRANCH   2  19
TORSDOF 8
ENDMDL
MODEL 4
REMARK VINA RESULT:      -7.0      1.767      3.749
REMARK  Name = 
REMARK  12 active torsions:
REMARK  status: ('A' for Active; 'I' for Inactive)
REMARK    1  A    between atoms: C_1  and  O_2
REMARK    2  A    between atoms: O_2  and  C_3
REMARK    3  A    between atoms: C_8  and  C_9
REMARK    4  A    between atoms: N_10  and  N_11
REMARK    5  A    between atoms: C_12  and  C_14
REMARK    6  A    between atoms: C_14  and  C_15
REMARK    7  A    between atoms: C_15  and  N_16
REMARK    8  A    between atoms: C_17  and  O_19
REMARK    9  A    between atoms: O_19  and  C_20
REMARK   10  A    between atoms: C_20  and  C_21
REMARK   11  A    between atoms: C_20  and  C_22
REMARK   12  A    between atoms: C_20  and  C_23
REMARK                            x       y       z     vdW  Elec       q    Type
REMARK                         _______ _______ _______ _____ _____    ______ ____
ROOT
ATOM      1  N   UNL     1       2.760   5.256  19.737  0.00  0.00    +0.000 N 
ATOM      2  C   UNL     1       2.321   4.332  18.793  0.00  0.00    +0.000 C 
ATOM      3  O   UNL     1       1.499   4.573  17.911  0.00  0.00    +0.000 OA
ATOM      4  H   UNL     1       3.474   5.024  20.418  0.00  0.00    +0.000 HD
ENDROOT
BRANCH   1   6
ATOM      5  C   UNL     1       1.643   7.007  20.686  0.00  0.00    +0.000 C 
ATOM      6  N   UNL     1       2.284   6.538  19.660  0.00  0.00    +0.000 NA
BRANCH   5  12
ATOM      7  C   UNL     1      -1.246  12.577  22.058  0.00  0.00    +0.000 A 
ATOM      8  C   UNL     1      -1.381  11.660  23.093  0.00  0.00    +0.000 A 
ATOM      9  C   UNL     1      -0.815  10.381  22.982  0.00  0.00    +0.000 A 
ATOM     10  C   UNL     1      -0.108   9.981  21.856  0.00  0.00    +0.000 A 
ATOM     11  N   UNL     1       0.411   8.737  21.807  0.00  0.00    +0.000 NA
ATOM     12  C   UNL     1       1.092   8.386  20.687  0.00  0.00    +0.000 A 
ATOM     13  C   UNL     1       1.280   9.228  19.602  0.00  0.00    +0.000 A 
ATOM     14  C   UNL     1       0.740  10.510  19.666  0.00  0.00    +0.000 A 
ATOM     15  C   UNL     1       0.029  10.912  20.805  0.00  0.00    +0.000 A 
ATOM     16  C   UNL     1      -0.538  12.200  20.915  0.00  0.00    +0.000 A 
BRANCH   7  18
ATOM     17  C   UNL     1      -3.167  13.978  22.032  0.00  0.00    +0.000 C 
ATOM     18  O   UNL     1      -1.748  13.849  22.044  0.00  0.00    +0.000 OA
ENDBRANCH   7  18
ENDBRANCH   5  12
ENDBRANCH   1   6
BRANCH   2  19
ATOM     19  C   UNL     1       2.908   2.944  18.968  0.00  0.00    +0.000 C 
BRANCH  19  20
ATOM     20  C   UNL     1       4.267   3.023  19.673  0.00  0.00    +0.000 C 
BRANCH  20  21
ATOM     21  N   UNL     1       5.377   3.289  18.774  0.00  0.00    +0.000 N 
ATOM     22  C   UNL     1       6.031   4.487  18.803  0.00  0.00    +0.000 C 
ATOM     23  O   UNL     1       5.834   5.337  19.663  0.00  0.00    +0.000 OA
ATOM     24  H   UNL     1       5.504   2.731  17.942  0.00  0.00    +0.000 HD
BRANCH  22  25
ATOM     25  O   UNL     1       6.911   4.595  17.773  0.00  0.00    +0.000 OA
BRANCH  25  26
ATOM     26  C   UNL     1       6.587   5.515  16.691  0.00  0.00    +0.000 C 
ATOM     27  C   UNL     1       5.077   5.795  16.654  0.00  0.00    +0.000 C 
ATOM     28  C   UNL     1       7.310   6.842  16.987  0.00  0.00    +0.000 C 
ATOM     29  C   UNL     1       7.113   4.999  15.342  0.00  0.00    +0.000 C 
ENDBRANCH  25  26
ENDBRANCH  22  25
ENDBRANCH  20  21
ENDBRANCH  19  20
ENDBRANCH   2  19
TORSDOF 8
ENDMDL
MODEL 5
REMARK VINA RESULT:      -7.0      6.632      7.710
REMARK  Name = 
REMARK  12 active torsions:
REMARK  status: ('A' for Active; 'I' for Inactive)
REMARK    1  A    between atoms: C_1  and  O_2
REMARK    2  A    between atoms: O_2  and  C_3
REMARK    3  A    between atoms: C_8  and  C_9
REMARK    4  A    between atoms: N_10  and  N_11
REMARK    5  A    between atoms: C_12  and  C_14
REMARK    6  A    between atoms: C_14  and  C_15
REMARK    7  A    between atoms: C_15  and  N_16
REMARK    8  A    between atoms: C_17  and  O_19
REMARK    9  A    between atoms: O_19  and  C_20
REMARK   10  A    between atoms: C_20  and  C_21
REMARK   11  A    between atoms: C_20  and  C_22
REMARK   12  A    between atoms: C_20  and  C_23
REMARK                            x       y       z     vdW  Elec       q    Type
REMARK                         _______ _______ _______ _____ _____    ______ ____
ROOT
ATOM      1  N   UNL     1       7.295   7.885  17.080  0.00  0.00    +0.000 N 
ATOM      2  C   UNL     1       7.271   6.593  17.596  0.00  0.00    +0.000 C 
ATOM      3  O   UNL     1       7.559   6.299  18.755  0.00  0.00    +0.000 OA
ATOM      4  H   UNL     1       7.005   8.085  16.129  0.00  0.00    +0.000 HD
ENDROOT
BRANCH   1   6
ATOM      5  C   UNL     1       8.722   9.557  17.698  0.00  0.00    +0.000 C 
ATOM      6  N   UNL     1       7.618   8.915  17.923  0.00  0.00    +0.000 NA
BRANCH   5  12
ATOM      7  C   UNL     1      10.290  15.258  20.207  0.00  0.00    +0.000 A 
ATOM      8  C   UNL     1       9.887  15.374  18.881  0.00  0.00    +0.000 A 
ATOM      9  C   UNL     1       9.502  14.235  18.159  0.00  0.00    +0.000 A 
ATOM     10  C   UNL     1       9.506  12.966  18.722  0.00  0.00    +0.000 A 
ATOM     11  N   UNL     1       9.127  11.907  17.976  0.00  0.00    +0.000 NA
ATOM     12  C   UNL     1       9.149  10.685  18.564  0.00  0.00    +0.000 A 
ATOM     13  C   UNL     1       9.536  10.467  19.878  0.00  0.00    +0.000 A 
ATOM     14  C   UNL     1       9.923  11.568  20.638  0.00  0.00    +0.000 A 
ATOM     15  C   UNL     1       9.916  12.848  20.068  0.00  0.00    +0.000 A 
ATOM     16  C   UNL     1      10.302  13.993  20.796  0.00  0.00    +0.000 A 
BRANCH   7  18
ATOM     17  C   UNL     1      12.048  16.695  20.913  0.00  0.00    +0.000 C 
ATOM     18  O   UNL     1      10.687  16.287  21.016  0.00  0.00    +0.000 OA
ENDBRANCH   7  18
ENDBRANCH   5  12
ENDBRANCH   1   6
BRANCH   2  19
ATOM     19  C   UNL     1       6.903   5.528  16.580  0.00  0.00    +0.000 C 
BRANCH  19  20
ATOM     20  C   UNL     1       6.172   4.366  17.264  0.00  0.00    +0.000 C 
BRANCH  20  21
ATOM     21  N   UNL     1       4.971   4.769  17.975  0.00  0.00    +0.000 N 
ATOM     22  C   UNL     1       4.571   4.111  19.103  0.00  0.00    +0.000 C 
ATOM     23  O   UNL     1       5.255   3.261  19.661  0.00  0.00    +0.000 OA
ATOM     24  H   UNL     1       4.272   5.334  17.516  0.00  0.00    +0.000 HD
BRANCH  22  25
ATOM     25  O   UNL     1       3.343   4.528  19.508  0.00  0.00    +0.000 OA
BRANCH  25  26
ATOM     26  C   UNL     1       2.183   3.762  19.071  0.00  0.00    +0.000 C 
ATOM     27  C   UNL     1       2.516   2.264  19.011  0.00  0.00    +0.000 C 
ATOM     28  C   UNL     1       1.079   3.961  20.125  0.00  0.00    +0.000 C 
ATOM     29  C   UNL     1       1.638   4.288  17.733  0.00  0.00    +0.000 C 
ENDBRANCH  25  26
ENDBRANCH  22  25
ENDBRANCH  20  21
ENDBRANCH  19  20
ENDBRANCH   2  19
TORSDOF 8
ENDMDL
MODEL 6
REMARK VINA RESULT:      -7.0      6.861      8.226
REMARK  Name = 
REMARK  12 active torsions:
REMARK  status: ('A' for Active; 'I' for Inactive)
REMARK    1  A    between atoms: C_1  and  O_2
REMARK    2  A    between atoms: O_2  and  C_3
REMARK    3  A    between atoms: C_8  and  C_9
REMARK    4  A    between atoms: N_10  and  N_11
REMARK    5  A    between atoms: C_12  and  C_14
REMARK    6  A    between atoms: C_14  and  C_15
REMARK    7  A    between atoms: C_15  and  N_16
REMARK    8  A    between atoms: C_17  and  O_19
REMARK    9  A    between atoms: O_19  and  C_20
REMARK   10  A    between atoms: C_20  and  C_21
REMARK   11  A    between atoms: C_20  and  C_22
REMARK   12  A    between atoms: C_20  and  C_23
REMARK                            x       y       z     vdW  Elec       q    Type
REMARK                         _______ _______ _______ _____ _____    ______ ____
ROOT
ATOM      1  N   UNL     1       8.208   7.621  18.362  0.00  0.00    +0.000 N 
ATOM      2  C   UNL     1       7.289   7.039  17.495  0.00  0.00    +0.000 C 
ATOM      3  O   UNL     1       6.644   7.652  16.646  0.00  0.00    +0.000 OA
ATOM      4  H   UNL     1       8.750   7.066  19.016  0.00  0.00    +0.000 HD
ENDROOT
BRANCH   1   6
ATOM      5  C   UNL     1       9.170   9.531  19.162  0.00  0.00    +0.000 C 
ATOM      6  N   UNL     1       8.455   8.962  18.241  0.00  0.00    +0.000 NA
BRANCH   5  12
ATOM      7  C   UNL     1      11.165  15.438  17.620  0.00  0.00    +0.000 A 
ATOM      8  C   UNL     1      11.506  14.510  16.643  0.00  0.00    +0.000 A 
ATOM      9  C   UNL     1      11.155  13.161  16.798  0.00  0.00    +0.000 A 
ATOM     10  C   UNL     1      10.464  12.700  17.911  0.00  0.00    +0.000 A 
ATOM     11  N   UNL     1      10.156  11.390  18.005  0.00  0.00    +0.000 NA
ATOM     12  C   UNL     1       9.484  10.982  19.110  0.00  0.00    +0.000 A 
ATOM     13  C   UNL     1       9.101  11.829  20.139  0.00  0.00    +0.000 A 
ATOM     14  C   UNL     1       9.424  13.179  20.029  0.00  0.00    +0.000 A 
ATOM     15  C   UNL     1      10.118  13.643  18.903  0.00  0.00    +0.000 A 
ATOM     16  C   UNL     1      10.470  15.000  18.748  0.00  0.00    +0.000 A 
BRANCH   7  18
ATOM     17  C   UNL     1      10.354  17.657  17.354  0.00  0.00    +0.000 C 
ATOM     18  O   UNL     1      11.448  16.776  17.587  0.00  0.00    +0.000 OA
ENDBRANCH   7  18
ENDBRANCH   5  12
ENDBRANCH   1   6
BRANCH   2  19
ATOM     19  C   UNL     1       7.090   5.551  17.713  0.00  0.00    +0.000 C 
BRANCH  19  20
ATOM     20  C   UNL     1       5.683   5.129  17.272  0.00  0.00    +0.000 C 
BRANCH  20  21
ATOM     21  N   UNL     1       4.828   4.709  18.369  0.00  0.00    +0.000 N 
ATOM     22  C   UNL     1       4.088   3.565  18.282  0.00  0.00    +0.000 C 
ATOM     23  O   UNL     1       4.204   2.760  17.365  0.00  0.00    +0.000 OA
ATOM     24  H   UNL     1       4.546   5.370  19.078  0.00  0.00    +0.000 HD
BRANCH  22  25
ATOM     25  O   UNL     1       3.232   3.449  19.331  0.00  0.00    +0.000 OA
BRANCH  25  26
ATOM     26  C   UNL     1       1.818   3.707  19.092  0.00  0.00    +0.000 C 
ATOM     27  C   UNL     1       1.633   4.581  17.843  0.00  0.00    +0.000 C 
ATOM     28  C   UNL     1       1.144   2.349  18.826  0.00  0.00    +0.000 C 
ATOM     29  C   UNL     1       1.144   4.317  20.331  0.00  0.00    +0.000 C 
ENDBRANCH  25  26
ENDBRANCH  22  25
ENDBRANCH  20  21
ENDBRANCH  19  20
ENDBRANCH   2  19
TORSDOF 8
ENDMDL
MODEL 7
REMARK VINA RESULT:      -7.0      6.712      7.821
REMARK  Name = 
REMARK  12 active torsions:
REMARK  status: ('A' for Active; 'I' for Inactive)
REMARK    1  A    between atoms: C_1  and  O_2
REMARK    2  A    between atoms: O_2  and  C_3
REMARK    3  A    between atoms: C_8  and  C_9
REMARK    4  A    between atoms: N_10  and  N_11
REMARK    5  A    between atoms: C_12  and  C_14
REMARK    6  A    between atoms: C_14  and  C_15
REMARK    7  A    between atoms: C_15  and  N_16
REMARK    8  A    between atoms: C_17  and  O_19
REMARK    9  A    between atoms: O_19  and  C_20
REMARK   10  A    between atoms: C_20  and  C_21
REMARK   11  A    between atoms: C_20  and  C_22
REMARK   12  A    between atoms: C_20  and  C_23
REMARK                            x       y       z     vdW  Elec       q    Type
REMARK                         _______ _______ _______ _____ _____    ______ ____
ROOT
ATOM      1  N   UNL     1       7.474   7.807  17.252  0.00  0.00    +0.000 N 
ATOM      2  C   UNL     1       7.407   6.474  17.647  0.00  0.00    +0.000 C 
ATOM      3  O   UNL     1       7.888   6.030  18.688  0.00  0.00    +0.000 OA
ATOM      4  H   UNL     1       7.023   8.136  16.406  0.00  0.00    +0.000 HD
ENDROOT
BRANCH   1   6
ATOM      5  C   UNL     1       8.418   9.856  17.607  0.00  0.00    +0.000 C 
ATOM      6  N   UNL     1       8.076   8.704  18.095  0.00  0.00    +0.000 NA
BRANCH   5  12
ATOM      7  C   UNL     1      11.025  15.194  20.049  0.00  0.00    +0.000 A 
ATOM      8  C   UNL     1      10.545  15.400  18.761  0.00  0.00    +0.000 A 
ATOM      9  C   UNL     1       9.936  14.350  18.058  0.00  0.00    +0.000 A 
ATOM     10  C   UNL     1       9.789  13.082  18.604  0.00  0.00    +0.000 A 
ATOM     11  N   UNL     1       9.198  12.111  17.878  0.00  0.00    +0.000 NA
ATOM     12  C   UNL     1       9.077  10.886  18.449  0.00  0.00    +0.000 A 
ATOM     13  C   UNL     1       9.525  10.582  19.726  0.00  0.00    +0.000 A 
ATOM     14  C   UNL     1      10.132  11.593  20.465  0.00  0.00    +0.000 A 
ATOM     15  C   UNL     1      10.277  12.872  19.912  0.00  0.00    +0.000 A 
ATOM     16  C   UNL     1      10.888  13.929  20.622  0.00  0.00    +0.000 A 
BRANCH   7  18
ATOM     17  C   UNL     1      10.864  16.667  21.908  0.00  0.00    +0.000 C 
ATOM     18  O   UNL     1      11.634  16.132  20.836  0.00  0.00    +0.000 OA
ENDBRANCH   7  18
ENDBRANCH   5  12
ENDBRANCH   1   6
BRANCH   2  19
ATOM     19  C   UNL     1       6.723   5.566  16.643  0.00  0.00    +0.000 C 
BRANCH  19  20
ATOM     20  C   UNL     1       6.006   4.417  17.363  0.00  0.00    +0.000 C 
BRANCH  20  21
ATOM     21  N   UNL     1       5.045   4.860  18.358  0.00  0.00    +0.000 N 
ATOM     22  C   UNL     1       4.587   4.005  19.319  0.00  0.00    +0.000 C 
ATOM     23  O   UNL     1       5.052   2.886  19.496  0.00  0.00    +0.000 OA
ATOM     24  H   UNL     1       4.493   5.691  18.200  0.00  0.00    +0.000 HD
BRANCH  22  25
ATOM     25  O   UNL     1       3.573   4.562  20.032  0.00  0.00    +0.000 OA
BRANCH  25  26
ATOM     26  C   UNL     1       2.228   4.036  19.834  0.00  0.00    +0.000 C 
ATOM     27  C   UNL     1       1.187   4.953  20.494  0.00  0.00    +0.000 C 
ATOM     28  C   UNL     1       1.960   4.026  18.318  0.00  0.00    +0.000 C 
ATOM     29  C   UNL     1       2.117   2.585  20.327  0.00  0.00    +0.000 C 
ENDBRANCH  25  26
ENDBRANCH  22  25
ENDBRANCH  20  21
ENDBRANCH  19  20
ENDBRANCH   2  19
TORSDOF 8
ENDMDL
MODEL 8
REMARK VINA RESULT:      -7.0      5.741      7.320
REMARK  Name = 
REMARK  12 active torsions:
REMARK  status: ('A' for Active; 'I' for Inactive)
REMARK    1  A    between atoms: C_1  and  O_2
REMARK    2  A    between atoms: O_2  and  C_3
REMARK    3  A    between atoms: C_8  and  C_9
REMARK    4  A    between atoms: N_10  and  N_11
REMARK    5  A    between atoms: C_12  and  C_14
REMARK    6  A    between atoms: C_14  and  C_15
REMARK    7  A    between atoms: C_15  and  N_16
REMARK    8  A    between atoms: C_17  and  O_19
REMARK    9  A    between atoms: O_19  and  C_20
REMARK   10  A    between atoms: C_20  and  C_21
REMARK   11  A    between atoms: C_20  and  C_22
REMARK   12  A    between atoms: C_20  and  C_23
REMARK                            x       y       z     vdW  Elec       q    Type
REMARK                         _______ _______ _______ _____ _____    ______ ____
ROOT
ATOM      1  N   UNL     1       7.241   6.368  16.597  0.00  0.00    +0.000 N 
ATOM      2  C   UNL     1       7.220   5.076  17.113  0.00  0.00    +0.000 C 
ATOM      3  O   UNL     1       7.880   4.700  18.080  0.00  0.00    +0.000 OA
ATOM      4  H   UNL     1       6.644   6.644  15.825  0.00  0.00    +0.000 HD
ENDROOT
BRANCH   1   6
ATOM      5  C   UNL     1       7.501   8.485  17.413  0.00  0.00    +0.000 C 
ATOM      6  N   UNL     1       8.013   7.307  17.229  0.00  0.00    +0.000 NA
BRANCH   5  12
ATOM      7  C   UNL     1      10.258  13.998  19.218  0.00  0.00    +0.000 A 
ATOM      8  C   UNL     1       9.487  14.161  18.073  0.00  0.00    +0.000 A 
ATOM      9  C   UNL     1       8.802  13.068  17.523  0.00  0.00    +0.000 A 
ATOM     10  C   UNL     1       8.861  11.799  18.085  0.00  0.00    +0.000 A 
ATOM     11  N   UNL     1       8.181  10.786  17.508  0.00  0.00    +0.000 NA
ATOM     12  C   UNL     1       8.269   9.563  18.088  0.00  0.00    +0.000 A 
ATOM     13  C   UNL     1       9.011   9.300  19.229  0.00  0.00    +0.000 A 
ATOM     14  C   UNL     1       9.706  10.355  19.815  0.00  0.00    +0.000 A 
ATOM     15  C   UNL     1       9.644  11.634  19.247  0.00  0.00    +0.000 A 
ATOM     16  C   UNL     1      10.332  12.733  19.803  0.00  0.00    +0.000 A 
BRANCH   7  18
ATOM     17  C   UNL     1      11.452  16.046  19.037  0.00  0.00    +0.000 C 
ATOM     18  O   UNL     1      10.971  14.980  19.850  0.00  0.00    +0.000 OA
ENDBRANCH   7  18
ENDBRANCH   5  12
ENDBRANCH   1   6
BRANCH   2  19
ATOM     19  C   UNL     1       6.336   4.116  16.340  0.00  0.00    +0.000 C 
BRANCH  19  20
ATOM     20  C   UNL     1       4.859   4.487  16.520  0.00  0.00    +0.000 C 
BRANCH  20  21
ATOM     21  N   UNL     1       4.270   3.965  17.742  0.00  0.00    +0.000 N 
ATOM     22  C   UNL     1       3.940   4.798  18.772  0.00  0.00    +0.000 C 
ATOM     23  O   UNL     1       3.975   6.019  18.683  0.00  0.00    +0.000 OA
ATOM     24  H   UNL     1       4.353   2.984  17.969  0.00  0.00    +0.000 HD
BRANCH  22  25
ATOM     25  O   UNL     1       3.573   4.096  19.876  0.00  0.00    +0.000 OA
BRANCH  25  26
ATOM     26  C   UNL     1       2.162   4.081  20.239  0.00  0.00    +0.000 C 
ATOM     27  C   UNL     1       1.711   5.472  20.710  0.00  0.00    +0.000 C 
ATOM     28  C   UNL     1       1.367   3.728  18.969  0.00  0.00    +0.000 C 
ATOM     29  C   UNL     1       1.864   2.992  21.282  0.00  0.00    +0.000 C 
ENDBRANCH  25  26
ENDBRANCH  22  25
ENDBRANCH  20  21
ENDBRANCH  19  20
ENDBRANCH   2  19
TORSDOF 8
ENDMDL
MODEL 9
REMARK VINA RESULT:      -7.0      1.970      4.077
REMARK  Name = 
REMARK  12 active torsions:
REMARK  status: ('A' for Active; 'I' for Inactive)
REMARK    1  A    between atoms: C_1  and  O_2
REMARK    2  A    between atoms: O_2  and  C_3
REMARK    3  A    between atoms: C_8  and  C_9
REMARK    4  A    between atoms: N_10  and  N_11
REMARK    5  A    between atoms: C_12  and  C_14
REMARK    6  A    between atoms: C_14  and  C_15
REMARK    7  A    between atoms: C_15  and  N_16
REMARK    8  A    between atoms: C_17  and  O_19
REMARK    9  A    between atoms: O_19  and  C_20
REMARK   10  A    between atoms: C_20  and  C_21
REMARK   11  A    between atoms: C_20  and  C_22
REMARK   12  A    between atoms: C_20  and  C_23
REMARK                            x       y       z     vdW  Elec       q    Type
REMARK                         _______ _______ _______ _____ _____    ______ ____
ROOT
ATOM      1  N   UNL     1       2.555   4.724  20.306  0.00  0.00    +0.000 N 
ATOM      2  C   UNL     1       2.055   3.806  19.387  0.00  0.00    +0.000 C 
ATOM      3  O   UNL     1       0.949   3.883  18.855  0.00  0.00    +0.000 OA
ATOM      4  H   UNL     1       3.492   4.643  20.685  0.00  0.00    +0.000 HD
ENDROOT
BRANCH   1   6
ATOM      5  C   UNL     1       2.146   6.962  20.115  0.00  0.00    +0.000 C 
ATOM      6  N   UNL     1       1.790   5.818  20.612  0.00  0.00    +0.000 NA
BRANCH   5  12
ATOM      7  C   UNL     1      -0.721  12.707  19.953  0.00  0.00    +0.000 A 
ATOM      8  C   UNL     1      -0.022  12.449  18.779  0.00  0.00    +0.000 A 
ATOM      9  C   UNL     1       0.671  11.240  18.622  0.00  0.00    +0.000 A 
ATOM     10  C   UNL     1       0.692  10.266  19.611  0.00  0.00    +0.000 A 
ATOM     11  N   UNL     1       1.379   9.124  19.403  0.00  0.00    +0.000 NA
ATOM     12  C   UNL     1       1.375   8.200  20.397  0.00  0.00    +0.000 A 
ATOM     13  C   UNL     1       0.710   8.365  21.602  0.00  0.00    +0.000 A 
ATOM     14  C   UNL     1       0.003   9.547  21.804  0.00  0.00    +0.000 A 
ATOM     15  C   UNL     1      -0.018  10.528  20.803  0.00  0.00    +0.000 A 
ATOM     16  C   UNL     1      -0.717  11.743  20.962  0.00  0.00    +0.000 A 
BRANCH   7  18
ATOM     17  C   UNL     1      -1.241  14.425  21.512  0.00  0.00    +0.000 C 
ATOM     18  O   UNL     1      -1.434  13.842  20.227  0.00  0.00    +0.000 OA
ENDBRANCH   7  18
ENDBRANCH   5  12
ENDBRANCH   1   6
BRANCH   2  19
ATOM     19  C   UNL     1       2.979   2.633  19.121  0.00  0.00    +0.000 C 
BRANCH  19  20
ATOM     20  C   UNL     1       4.315   2.828  19.849  0.00  0.00    +0.000 C 
BRANCH  20  21
ATOM     21  N   UNL     1       5.410   3.201  18.970  0.00  0.00    +0.000 N 
ATOM     22  C   UNL     1       5.842   4.495  18.900  0.00  0.00    +0.000 C 
ATOM     23  O   UNL     1       5.451   5.374  19.658  0.00  0.00    +0.000 OA
ATOM     24  H   UNL     1       5.679   2.598  18.206  0.00  0.00    +0.000 HD
BRANCH  22  25
ATOM     25  O   UNL     1       6.746   4.659  17.898  0.00  0.00    +0.000 OA
BRANCH  25  26
ATOM     26  C   UNL     1       6.437   5.622  16.850  0.00  0.00    +0.000 C 
ATOM     27  C   UNL     1       7.125   6.967  17.131  0.00  0.00    +0.000 C 
ATOM     28  C   UNL     1       7.006   5.064  15.533  0.00  0.00    +0.000 C 
ATOM     29  C   UNL     1       4.919   5.777  16.663  0.00  0.00    +0.000 C 
ENDBRANCH  25  26
ENDBRANCH  22  25
ENDBRANCH  20  21
ENDBRANCH  19  20
ENDBRANCH   2  19
TORSDOF 8
ENDMDL
