MODEL 1
REMARK VINA RESULT:      -7.9      0.000      0.000
REMARK  Name = 
REMARK  10 active torsions:
REMARK  status: ('A' for Active; 'I' for Inactive)
REMARK    1  A    between atoms: C_1  and  O_2
REMARK    2  A    between atoms: O_2  and  C_3
REMARK    3  A    between atoms: C_5  and  N_6
REMARK    4  A    between atoms: N_12  and  C_13
REMARK    5  A    between atoms: C_18  and  C_19
REMARK    6  A    between atoms: N_21  and  C_22
REMARK    7  A    between atoms: C_29  and  O_30
REMARK    8  A    between atoms: O_30  and  C_31
REMARK    9  A    between atoms: C_32  and  O_33
REMARK   10  A    between atoms: O_33  and  C_34
REMARK                            x       y       z     vdW  Elec       q    Type
REMARK                         _______ _______ _______ _____ _____    ______ ____
ROOT
ATOM      1  N   UNL     1       1.849   8.785  20.070  0.00  0.00    +0.000 N 
ATOM      2  C   UNL     1       1.224   9.347  21.180  0.00  0.00    +0.000 A 
ATOM      3  N   UNL     1       1.008   8.691  22.307  0.00  0.00    +0.000 NA
ATOM      4  C   UNL     1       0.279   9.349  23.200  0.00  0.00    +0.000 A 
ATOM      5  N   UNL     1      -0.257  10.558  23.044  0.00  0.00    +0.000 NA
ATOM      6  C   UNL     1       0.067  11.160  21.907  0.00  0.00    +0.000 A 
ATOM      7  N   UNL     1      -0.408  12.461  21.715  0.00  0.00    +0.000 N 
ATOM      8  N   UNL     1       0.815  10.587  20.976  0.00  0.00    +0.000 NA
ATOM      9  H   UNL     1       1.792   9.454  19.315  0.00  0.00    +0.000 HD
ATOM     10  H   UNL     1      -1.304  12.575  22.176  0.00  0.00    +0.000 HD
ENDROOT
BRANCH   1  13
ATOM     11  C   UNL     1       3.141   5.879  18.155  0.00  0.00    +0.000 A 
ATOM     12  C   UNL     1       2.816   7.189  18.551  0.00  0.00    +0.000 A 
ATOM     13  C   UNL     1       2.062   7.455  19.699  0.00  0.00    +0.000 A 
ATOM     14  C   UNL     1       1.594   6.370  20.426  0.00  0.00    +0.000 A 
ATOM     15  C   UNL     1       1.853   5.052  20.027  0.00  0.00    +0.000 A 
ATOM     16  C   UNL     1       2.629   4.785  18.879  0.00  0.00    +0.000 A 
BRANCH  11  18
ATOM     17  C   UNL     1       5.329   5.850  17.218  0.00  0.00    +0.000 C 
ATOM     18  O   UNL     1       3.923   5.663  17.048  0.00  0.00    +0.000 OA
ENDBRANCH  11  18
BRANCH  15  19
ATOM     19  O   UNL     1       1.221   4.135  20.831  0.00  0.00    +0.000 OA
ATOM     20  C   UNL     1       2.016   3.439  21.784  0.00  0.00    +0.000 C 
ENDBRANCH  15  19
BRANCH  16  21
ATOM     21  O   UNL     1       2.798   3.458  18.599  0.00  0.00    +0.000 OA
ATOM     22  C   UNL     1       3.991   2.773  18.924  0.00  0.00    +0.000 C 
ENDBRANCH  16  21
ENDBRANCH   1  13
BRANCH   7  23
ATOM     23  C   UNL     1      -0.057  13.457  20.779  0.00  0.00    +0.000 A 
ATOM     24  C   UNL     1       0.841  14.497  21.113  0.00  0.00    +0.000 A 
ATOM     25  C   UNL     1       1.160  15.537  20.241  0.00  0.00    +0.000 A 
ATOM     26  C   UNL     1       0.559  15.589  18.999  0.00  0.00    +0.000 A 
ATOM     27  C   UNL     1      -0.344  14.595  18.634  0.00  0.00    +0.000 A 
ATOM     28  C   UNL     1      -0.677  13.544  19.514  0.00  0.00    +0.000 A 
BRANCH  28  29
ATOM     29  C   UNL     1      -1.705  12.595  18.991  0.00  0.00    +0.000 C 
ATOM     30  O   UNL     1      -2.540  12.127  19.760  0.00  0.00    +0.000 OA
ATOM     31  N   UNL     1      -1.636  12.232  17.660  0.00  0.00    +0.000 N 
ATOM     32  H   UNL     1      -0.913  12.628  17.068  0.00  0.00    +0.000 HD
BRANCH  31  33
ATOM     33  C   UNL     1      -2.568  11.267  17.103  0.00  0.00    +0.000 C 
ATOM     34  C   UNL     1      -2.882  11.547  15.638  0.00  0.00    +0.000 C 
ATOM     35  C   UNL     1      -3.421  10.226  15.108  0.00  0.00    +0.000 C 
ATOM     36  C   UNL     1      -2.784   9.134  15.965  0.00  0.00    +0.000 C 
ATOM     37  C   UNL     1      -2.023   9.843  17.083  0.00  0.00    +0.000 C 
ENDBRANCH  31  33
ENDBRANCH  28  29
ENDBRANCH   7  23
TORSDOF 7
ENDMDL
MODEL 2
REMARK VINA RESULT:      -7.7      0.423      2.095
REMARK  Name = 
REMARK  10 active torsions:
REMARK  status: ('A' for Active; 'I' for Inactive)
REMARK    1  A    between atoms: C_1  and  O_2
REMARK    2  A    between atoms: O_2  and  C_3
REMARK    3  A    between atoms: C_5  and  N_6
REMARK    4  A    between atoms: N_12  and  C_13
REMARK    5  A    between atoms: C_18  and  C_19
REMARK    6  A    between atoms: N_21  and  C_22
REMARK    7  A    between atoms: C_29  and  O_30
REMARK    8  A    between atoms: O_30  and  C_31
REMARK    9  A    between atoms: C_32  and  O_33
REMARK   10  A    between atoms: O_33  and  C_34
REMARK                            x       y       z     vdW  Elec       q    Type
REMARK                         _______ _______ _______ _____ _____    ______ ____
ROOT
ATOM      1  N   UNL     1       1.881   8.818  20.124  0.00  0.00    +0.000 N 
ATOM      2  C   UNL     1       1.221   9.357  21.225  0.00  0.00    +0.000 A 
ATOM      3  N   UNL     1       0.996   8.687  22.343  0.00  0.00    +0.000 NA
ATOM      4  C   UNL     1       0.235   9.322  23.225  0.00  0.00    +0.000 A 
ATOM      5  N   UNL     1      -0.324  10.520  23.068  0.00  0.00    +0.000 NA
ATOM      6  C   UNL     1       0.011  11.139  21.942  0.00  0.00    +0.000 A 
ATOM      7  N   UNL     1      -0.488  12.430  21.751  0.00  0.00    +0.000 N 
ATOM      8  N   UNL     1       0.791  10.590  21.023  0.00  0.00    +0.000 NA
ATOM      9  H   UNL     1       1.825   9.491  19.374  0.00  0.00    +0.000 HD
ATOM     10  H   UNL     1      -1.395  12.522  22.194  0.00  0.00    +0.000 HD
ENDROOT
BRANCH   1  13
ATOM     11  C   UNL     1       1.745   5.108  20.177  0.00  0.00    +0.000 A 
ATOM     12  C   UNL     1       1.607   6.462  20.532  0.00  0.00    +0.000 A 
ATOM     13  C   UNL     1       2.130   7.495  19.747  0.00  0.00    +0.000 A 
ATOM     14  C   UNL     1       2.845   7.141  18.612  0.00  0.00    +0.000 A 
ATOM     15  C   UNL     1       3.049   5.800  18.262  0.00  0.00    +0.000 A 
ATOM     16  C   UNL     1       2.505   4.759  19.044  0.00  0.00    +0.000 A 
BRANCH  11  18
ATOM     17  C   UNL     1       2.063   3.389  21.792  0.00  0.00    +0.000 C 
ATOM     18  O   UNL     1       1.176   4.127  20.950  0.00  0.00    +0.000 OA
ENDBRANCH  11  18
BRANCH  15  19
ATOM     19  O   UNL     1       3.859   5.671  17.160  0.00  0.00    +0.000 OA
ATOM     20  C   UNL     1       5.263   5.613  17.381  0.00  0.00    +0.000 C 
ENDBRANCH  15  19
BRANCH  16  21
ATOM     21  O   UNL     1       2.786   3.500  18.594  0.00  0.00    +0.000 OA
ATOM     22  C   UNL     1       1.772   2.626  18.139  0.00  0.00    +0.000 C 
ENDBRANCH  16  21
ENDBRANCH   1  13
BRANCH   7  23
ATOM     23  C   UNL     1      -0.139  13.442  20.831  0.00  0.00    +0.000 A 
ATOM     24  C   UNL     1       0.749  14.484  21.183  0.00  0.00    +0.000 A 
ATOM     25  C   UNL     1       1.064  15.538  20.327  0.00  0.00    +0.000 A 
ATOM     26  C   UNL     1       0.471  15.602  19.082  0.00  0.00    +0.000 A 
ATOM     27  C   UNL     1      -0.422  14.605  18.698  0.00  0.00    +0.000 A 
ATOM     28  C   UNL     1      -0.752  13.540  19.563  0.00  0.00    +0.000 A 
BRANCH  28  29
ATOM     29  C   UNL     1      -1.769  12.590  19.020  0.00  0.00    +0.000 C 
ATOM     30  O   UNL     1      -2.638  12.148  19.767  0.00  0.00    +0.000 OA
ATOM     31  N   UNL     1      -1.652  12.197  17.702  0.00  0.00    +0.000 N 
ATOM     32  H   UNL     1      -0.902  12.572  17.130  0.00  0.00    +0.000 HD
BRANCH  31  33
ATOM     33  C   UNL     1      -2.572  11.228  17.130  0.00  0.00    +0.000 C 
ATOM     34  C   UNL     1      -3.028  11.623  15.730  0.00  0.00    +0.000 C 
ATOM     35  C   UNL     1      -3.536  10.325  15.119  0.00  0.00    +0.000 C 
ATOM     36  C   UNL     1      -2.764   9.202  15.808  0.00  0.00    +0.000 C 
ATOM     37  C   UNL     1      -1.950   9.851  16.925  0.00  0.00    +0.000 C 
ENDBRANCH  31  33
ENDBRANCH  28  29
ENDBRANCH   7  23
TORSDOF 7
ENDMDL
MODEL 3
REMARK VINA RESULT:      -7.6      3.392      9.219
REMARK  Name = 
REMARK  10 active torsions:
REMARK  status: ('A' for Active; 'I' for Inactive)
REMARK    1  A    between atoms: C_1  and  O_2
REMARK    2  A    between atoms: O_2  and  C_3
REMARK    3  A    between atoms: C_5  and  N_6
REMARK    4  A    between atoms: N_12  and  C_13
REMARK    5  A    between atoms: C_18  and  C_19
REMARK    6  A    between atoms: N_21  and  C_22
REMARK    7  A    between atoms: C_29  and  O_30
REMARK    8  A    between atoms: O_30  and  C_31
REMARK    9  A    between atoms: C_32  and  O_33
REMARK   10  A    between atoms: O_33  and  C_34
REMARK                            x       y       z     vdW  Elec       q    Type
REMARK                         _______ _______ _______ _____ _____    ______ ____
ROOT
ATOM      1  N   UNL     1       2.193   7.871  18.535  0.00  0.00    +0.000 N 
ATOM      2  C   UNL     1       2.566   6.622  19.024  0.00  0.00    +0.000 A 
ATOM      3  N   UNL     1       2.024   6.064  20.094  0.00  0.00    +0.000 NA
ATOM      4  C   UNL     1       2.604   4.936  20.484  0.00  0.00    +0.000 A 
ATOM      5  N   UNL     1       3.667   4.360  19.924  0.00  0.00    +0.000 NA
ATOM      6  C   UNL     1       4.100   4.960  18.823  0.00  0.00    +0.000 A 
ATOM      7  N   UNL     1       5.169   4.364  18.150  0.00  0.00    +0.000 N 
ATOM      8  N   UNL     1       3.558   6.071  18.347  0.00  0.00    +0.000 NA
ATOM      9  H   UNL     1       2.828   8.108  17.786  0.00  0.00    +0.000 HD
ATOM     10  H   UNL     1       5.779   3.896  18.811  0.00  0.00    +0.000 HD
ENDROOT
BRANCH   1  13
ATOM     11  C   UNL     1       0.091  10.915  18.845  0.00  0.00    +0.000 A 
ATOM     12  C   UNL     1       0.855   9.859  18.317  0.00  0.00    +0.000 A 
ATOM     13  C   UNL     1       1.521   8.940  19.134  0.00  0.00    +0.000 A 
ATOM     14  C   UNL     1       1.446   9.129  20.507  0.00  0.00    +0.000 A 
ATOM     15  C   UNL     1       0.739  10.203  21.063  0.00  0.00    +0.000 A 
ATOM     16  C   UNL     1       0.053  11.119  20.238  0.00  0.00    +0.000 A 
BRANCH  11  18
ATOM     17  C   UNL     1      -1.930  11.406  17.688  0.00  0.00    +0.000 C 
ATOM     18  O   UNL     1      -0.586  11.767  18.008  0.00  0.00    +0.000 OA
ENDBRANCH  11  18
BRANCH  15  19
ATOM     19  O   UNL     1       0.871  10.257  22.429  0.00  0.00    +0.000 OA
ATOM     20  C   UNL     1      -0.053   9.505  23.208  0.00  0.00    +0.000 C 
ENDBRANCH  15  19
BRANCH  16  21
ATOM     21  O   UNL     1      -0.588  12.122  20.908  0.00  0.00    +0.000 OA
ATOM     22  C   UNL     1      -1.945  12.016  21.292  0.00  0.00    +0.000 C 
ENDBRANCH  16  21
ENDBRANCH   1  13
BRANCH   7  23
ATOM     23  C   UNL     1       5.697   4.574  16.857  0.00  0.00    +0.000 A 
ATOM     24  C   UNL     1       5.446   3.667  15.803  0.00  0.00    +0.000 A 
ATOM     25  C   UNL     1       6.004   3.803  14.533  0.00  0.00    +0.000 A 
ATOM     26  C   UNL     1       6.869   4.848  14.279  0.00  0.00    +0.000 A 
ATOM     27  C   UNL     1       7.158   5.757  15.293  0.00  0.00    +0.000 A 
ATOM     28  C   UNL     1       6.602   5.622  16.583  0.00  0.00    +0.000 A 
BRANCH  28  29
ATOM     29  C   UNL     1       7.061   6.646  17.569  0.00  0.00    +0.000 C 
ATOM     30  O   UNL     1       7.177   6.335  18.751  0.00  0.00    +0.000 OA
ATOM     31  N   UNL     1       7.279   7.932  17.115  0.00  0.00    +0.000 N 
ATOM     32  H   UNL     1       7.148   8.147  16.133  0.00  0.00    +0.000 HD
BRANCH  31  33
ATOM     33  C   UNL     1       7.667   8.989  18.034  0.00  0.00    +0.000 C 
ATOM     34  C   UNL     1       8.925   8.636  18.820  0.00  0.00    +0.000 C 
ATOM     35  C   UNL     1       9.450   9.977  19.313  0.00  0.00    +0.000 C 
ATOM     36  C   UNL     1       8.975  11.016  18.300  0.00  0.00    +0.000 C 
ATOM     37  C   UNL     1       8.041  10.291  17.334  0.00  0.00    +0.000 C 
ENDBRANCH  31  33
ENDBRANCH  28  29
ENDBRANCH   7  23
TORSDOF 7
ENDMDL
MODEL 4
REMARK VINA RESULT:      -7.5      3.383      9.356
REMARK  Name = 
REMARK  10 active torsions:
REMARK  status: ('A' for Active; 'I' for Inactive)
REMARK    1  A    between atoms: C_1  and  O_2
REMARK    2  A    between atoms: O_2  and  C_3
REMARK    3  A    between atoms: C_5  and  N_6
REMARK    4  A    between atoms: N_12  and  C_13
REMARK    5  A    between atoms: C_18  and  C_19
REMARK    6  A    between atoms: N_21  and  C_22
REMARK    7  A    between atoms: C_29  and  O_30
REMARK    8  A    between atoms: O_30  and  C_31
REMARK    9  A    between atoms: C_32  and  O_33
REMARK   10  A    between atoms: O_33  and  C_34
REMARK                            x       y       z     vdW  Elec       q    Type
REMARK                         _______ _______ _______ _____ _____    ______ ____
ROOT
ATOM      1  N   UNL     1       2.053   7.759  18.408  0.00  0.00    +0.000 N 
ATOM      2  C   UNL     1       2.507   6.560  18.952  0.00  0.00    +0.000 A 
ATOM      3  N   UNL     1       1.994   6.010  20.040  0.00  0.00    +0.000 NA
ATOM      4  C   UNL     1       2.647   4.942  20.481  0.00  0.00    +0.000 A 
ATOM      5  N   UNL     1       3.753   4.420  19.954  0.00  0.00    +0.000 NA
ATOM      6  C   UNL     1       4.155   5.003  18.832  0.00  0.00    +0.000 A 
ATOM      7  N   UNL     1       5.270   4.456  18.193  0.00  0.00    +0.000 N 
ATOM      8  N   UNL     1       3.542   6.053  18.306  0.00  0.00    +0.000 NA
ATOM      9  H   UNL     1       2.678   8.009  17.655  0.00  0.00    +0.000 HD
ATOM     10  H   UNL     1       5.904   4.059  18.878  0.00  0.00    +0.000 HD
ENDROOT
BRANCH   1  13
ATOM     11  C   UNL     1       0.710  10.106  20.952  0.00  0.00    +0.000 A 
ATOM     12  C   UNL     1       1.373   9.029  20.336  0.00  0.00    +0.000 A 
ATOM     13  C   UNL     1       1.302   8.801  18.957  0.00  0.00    +0.000 A 
ATOM     14  C   UNL     1       0.506   9.654  18.206  0.00  0.00    +0.000 A 
ATOM     15  C   UNL     1      -0.212  10.701  18.798  0.00  0.00    +0.000 A 
ATOM     16  C   UNL     1      -0.125  10.941  20.186  0.00  0.00    +0.000 A 
BRANCH  11  18
ATOM     17  C   UNL     1       0.008   9.539  23.154  0.00  0.00    +0.000 C 
ATOM     18  O   UNL     1       0.845  10.321  22.301  0.00  0.00    +0.000 OA
ENDBRANCH  11  18
BRANCH  15  19
ATOM     19  O   UNL     1      -1.006  11.361  17.892  0.00  0.00    +0.000 OA
ATOM     20  C   UNL     1      -2.028  10.611  17.246  0.00  0.00    +0.000 C 
ENDBRANCH  15  19
BRANCH  16  21
ATOM     21  O   UNL     1      -0.881  11.988  20.633  0.00  0.00    +0.000 OA
ATOM     22  C   UNL     1      -0.346  13.289  20.772  0.00  0.00    +0.000 C 
ENDBRANCH  16  21
ENDBRANCH   1  13
BRANCH   7  23
ATOM     23  C   UNL     1       5.796   4.649  16.897  0.00  0.00    +0.000 A 
ATOM     24  C   UNL     1       5.530   3.737  15.850  0.00  0.00    +0.000 A 
ATOM     25  C   UNL     1       6.085   3.856  14.577  0.00  0.00    +0.000 A 
ATOM     26  C   UNL     1       6.961   4.889  14.312  0.00  0.00    +0.000 A 
ATOM     27  C   UNL     1       7.265   5.802  15.318  0.00  0.00    +0.000 A 
ATOM     28  C   UNL     1       6.713   5.684  16.611  0.00  0.00    +0.000 A 
BRANCH  28  29
ATOM     29  C   UNL     1       7.187   6.710  17.587  0.00  0.00    +0.000 C 
ATOM     30  O   UNL     1       7.420   6.377  18.746  0.00  0.00    +0.000 OA
ATOM     31  N   UNL     1       7.286   8.018  17.156  0.00  0.00    +0.000 N 
ATOM     32  H   UNL     1       7.060   8.250  16.195  0.00  0.00    +0.000 HD
BRANCH  31  33
ATOM     33  C   UNL     1       7.683   9.075  18.072  0.00  0.00    +0.000 C 
ATOM     34  C   UNL     1       8.966   8.736  18.821  0.00  0.00    +0.000 C 
ATOM     35  C   UNL     1       9.484  10.082  19.309  0.00  0.00    +0.000 C 
ATOM     36  C   UNL     1       8.966  11.121  18.318  0.00  0.00    +0.000 C 
ATOM     37  C   UNL     1       8.017  10.388  17.372  0.00  0.00    +0.000 C 
ENDBRANCH  31  33
ENDBRANCH  28  29
ENDBRANCH   7  23
TORSDOF 7
ENDMDL
MODEL 5
REMARK VINA RESULT:      -7.4      3.479      9.205
REMARK  Name = 
REMARK  10 active torsions:
REMARK  status: ('A' for Active; 'I' for Inactive)
REMARK    1  A    between atoms: C_1  and  O_2
REMARK    2  A    between atoms: O_2  and  C_3
REMARK    3  A    between atoms: C_5  and  N_6
REMARK    4  A    between atoms: N_12  and  C_13
REMARK    5  A    between atoms: C_18  and  C_19
REMARK    6  A    between atoms: N_21  and  C_22
REMARK    7  A    between atoms: C_29  and  O_30
REMARK    8  A    between atoms: O_30  and  C_31
REMARK    9  A    between atoms: C_32  and  O_33
REMARK   10  A    between atoms: O_33  and  C_34
REMARK                            x       y       z     vdW  Elec       q    Type
REMARK                         _______ _______ _______ _____ _____    ______ ____
ROOT
ATOM      1  N   UNL     1       2.271   7.852  18.459  0.00  0.00    +0.000 N 
ATOM      2  C   UNL     1       2.642   6.603  18.950  0.00  0.00    +0.000 A 
ATOM      3  N   UNL     1       2.086   6.039  20.009  0.00  0.00    +0.000 NA
ATOM      4  C   UNL     1       2.664   4.912  20.404  0.00  0.00    +0.000 A 
ATOM      5  N   UNL     1       3.738   4.343  19.859  0.00  0.00    +0.000 NA
ATOM      6  C   UNL     1       4.185   4.948  18.766  0.00  0.00    +0.000 A 
ATOM      7  N   UNL     1       5.267   4.358  18.107  0.00  0.00    +0.000 N 
ATOM      8  N   UNL     1       3.646   6.059  18.286  0.00  0.00    +0.000 NA
ATOM      9  H   UNL     1       2.916   8.094  17.721  0.00  0.00    +0.000 HD
ATOM     10  H   UNL     1       5.868   3.890  18.776  0.00  0.00    +0.000 HD
ENDROOT
BRANCH   1  13
ATOM     11  C   UNL     1       0.961  11.289  18.960  0.00  0.00    +0.000 A 
ATOM     12  C   UNL     1       1.683  10.186  18.472  0.00  0.00    +0.000 A 
ATOM     13  C   UNL     1       1.586   8.916  19.052  0.00  0.00    +0.000 A 
ATOM     14  C   UNL     1       0.780   8.783  20.174  0.00  0.00    +0.000 A 
ATOM     15  C   UNL     1       0.093   9.875  20.718  0.00  0.00    +0.000 A 
ATOM     16  C   UNL     1       0.177  11.151  20.122  0.00  0.00    +0.000 A 
BRANCH  11  18
ATOM     17  C   UNL     1       2.340  13.119  18.313  0.00  0.00    +0.000 C 
ATOM     18  O   UNL     1       1.049  12.507  18.333  0.00  0.00    +0.000 OA
ENDBRANCH  11  18
BRANCH  15  19
ATOM     19  O   UNL     1      -0.568   9.544  21.876  0.00  0.00    +0.000 OA
ATOM     20  C   UNL     1       0.174   9.582  23.090  0.00  0.00    +0.000 C 
ENDBRANCH  15  19
BRANCH  16  21
ATOM     21  O   UNL     1      -0.536  12.127  20.758  0.00  0.00    +0.000 OA
ATOM     22  C   UNL     1       0.088  13.084  21.591  0.00  0.00    +0.000 C 
ENDBRANCH  16  21
ENDBRANCH   1  13
BRANCH   7  23
ATOM     23  C   UNL     1       5.813   4.575  16.824  0.00  0.00    +0.000 A 
ATOM     24  C   UNL     1       5.592   3.664  15.766  0.00  0.00    +0.000 A 
ATOM     25  C   UNL     1       6.169   3.807  14.505  0.00  0.00    +0.000 A 
ATOM     26  C   UNL     1       7.024   4.863  14.265  0.00  0.00    +0.000 A 
ATOM     27  C   UNL     1       7.284   5.777  15.283  0.00  0.00    +0.000 A 
ATOM     28  C   UNL     1       6.709   5.634  16.564  0.00  0.00    +0.000 A 
BRANCH  28  29
ATOM     29  C   UNL     1       7.137   6.665  17.557  0.00  0.00    +0.000 C 
ATOM     30  O   UNL     1       7.227   6.359  18.743  0.00  0.00    +0.000 OA
ATOM     31  N   UNL     1       7.359   7.950  17.103  0.00  0.00    +0.000 N 
ATOM     32  H   UNL     1       7.250   8.162  16.118  0.00  0.00    +0.000 HD
BRANCH  31  33
ATOM     33  C   UNL     1       7.718   9.013  18.028  0.00  0.00    +0.000 C 
ATOM     34  C   UNL     1       8.982   8.689  18.815  0.00  0.00    +0.000 C 
ATOM     35  C   UNL     1       9.473  10.040  19.314  0.00  0.00    +0.000 C 
ATOM     36  C   UNL     1       8.974  11.072  18.305  0.00  0.00    +0.000 C 
ATOM     37  C   UNL     1       8.060  10.327  17.333  0.00  0.00    +0.000 C 
ENDBRANCH  31  33
ENDBRANCH  28  29
ENDBRANCH   7  23
TORSDOF 7
ENDMDL
MODEL 6
REMARK VINA RESULT:      -7.3      2.460      9.435
REMARK  Name = 
REMARK  10 active torsions:
REMARK  status: ('A' for Active; 'I' for Inactive)
REMARK    1  A    between atoms: C_1  and  O_2
REMARK    2  A    between atoms: O_2  and  C_3
REMARK    3  A    between atoms: C_5  and  N_6
REMARK    4  A    between atoms: N_12  and  C_13
REMARK    5  A    between atoms: C_18  and  C_19
REMARK    6  A    between atoms: N_21  and  C_22
REMARK    7  A    between atoms: C_29  and  O_30
REMARK    8  A    between atoms: O_30  and  C_31
REMARK    9  A    between atoms: C_32  and  O_33
REMARK   10  A    between atoms: O_33  and  C_34
REMARK                            x       y       z     vdW  Elec       q    Type
REMARK                         _______ _______ _______ _____ _____    ______ ____
ROOT
ATOM      1  N   UNL     1       0.353   9.429  20.484  0.00  0.00    +0.000 N 
ATOM      2  C   UNL     1       1.275   9.167  19.473  0.00  0.00    +0.000 A 
ATOM      3  N   UNL     1       1.716  10.085  18.630  0.00  0.00    +0.000 NA
ATOM      4  C   UNL     1       2.484   9.618  17.654  0.00  0.00    +0.000 A 
ATOM      5  N   UNL     1       2.807   8.343  17.446  0.00  0.00    +0.000 NA
ATOM      6  C   UNL     1       2.369   7.506  18.378  0.00  0.00    +0.000 A 
ATOM      7  N   UNL     1       2.735   6.163  18.254  0.00  0.00    +0.000 N 
ATOM      8  N   UNL     1       1.624   7.894  19.403  0.00  0.00    +0.000 NA
ATOM      9  H   UNL     1       0.106   8.546  20.908  0.00  0.00    +0.000 HD
ATOM     10  H   UNL     1       2.823   5.916  17.274  0.00  0.00    +0.000 HD
ENDROOT
BRANCH   1  13
ATOM     11  C   UNL     1      -1.384  12.279  22.108  0.00  0.00    +0.000 A 
ATOM     12  C   UNL     1      -0.556  11.166  21.879  0.00  0.00    +0.000 A 
ATOM     13  C   UNL     1      -0.556  10.475  20.663  0.00  0.00    +0.000 A 
ATOM     14  C   UNL     1      -1.446  10.895  19.685  0.00  0.00    +0.000 A 
ATOM     15  C   UNL     1      -2.324  11.966  19.902  0.00  0.00    +0.000 A 
ATOM     16  C   UNL     1      -2.310  12.673  21.123  0.00  0.00    +0.000 A 
BRANCH  11  18
ATOM     17  C   UNL     1      -0.811  14.292  23.241  0.00  0.00    +0.000 C 
ATOM     18  O   UNL     1      -1.319  12.958  23.299  0.00  0.00    +0.000 OA
ENDBRANCH  11  18
BRANCH  15  19
ATOM     19  O   UNL     1      -3.180  12.155  18.845  0.00  0.00    +0.000 OA
ATOM     20  C   UNL     1      -2.892  11.465  17.635  0.00  0.00    +0.000 C 
ENDBRANCH  15  19
BRANCH  16  21
ATOM     21  O   UNL     1      -3.221  13.688  21.205  0.00  0.00    +0.000 OA
ATOM     22  C   UNL     1      -4.470  13.521  21.846  0.00  0.00    +0.000 C 
ENDBRANCH  16  21
ENDBRANCH   1  13
BRANCH   7  23
ATOM     23  C   UNL     1       2.669   5.086  19.164  0.00  0.00    +0.000 A 
ATOM     24  C   UNL     1       1.646   5.004  20.136  0.00  0.00    +0.000 A 
ATOM     25  C   UNL     1       1.586   3.995  21.095  0.00  0.00    +0.000 A 
ATOM     26  C   UNL     1       2.579   3.037  21.136  0.00  0.00    +0.000 A 
ATOM     27  C   UNL     1       3.616   3.088  20.209  0.00  0.00    +0.000 A 
ATOM     28  C   UNL     1       3.687   4.111  19.240  0.00  0.00    +0.000 A 
BRANCH  28  29
ATOM     29  C   UNL     1       4.893   4.052  18.360  0.00  0.00    +0.000 C 
ATOM     30  O   UNL     1       6.010   4.122  18.865  0.00  0.00    +0.000 OA
ATOM     31  N   UNL     1       4.698   3.983  16.995  0.00  0.00    +0.000 N 
ATOM     32  H   UNL     1       3.756   3.951  16.623  0.00  0.00    +0.000 HD
BRANCH  31  33
ATOM     33  C   UNL     1       5.829   3.985  16.082  0.00  0.00    +0.000 C 
ATOM     34  C   UNL     1       5.433   3.560  14.673  0.00  0.00    +0.000 C 
ATOM     35  C   UNL     1       6.552   4.091  13.789  0.00  0.00    +0.000 C 
ATOM     36  C   UNL     1       7.119   5.312  14.511  0.00  0.00    +0.000 C 
ATOM     37  C   UNL     1       6.438   5.368  15.877  0.00  0.00    +0.000 C 
ENDBRANCH  31  33
ENDBRANCH  28  29
ENDBRANCH   7  23
TORSDOF 7
ENDMDL
MODEL 7
REMARK VINA RESULT:      -7.3      2.562      9.347
REMARK  Name = 
REMARK  10 active torsions:
REMARK  status: ('A' for Active; 'I' for Inactive)
REMARK    1  A    between atoms: C_1  and  O_2
REMARK    2  A    between atoms: O_2  and  C_3
REMARK    3  A    between atoms: C_5  and  N_6
REMARK    4  A    between atoms: N_12  and  C_13
REMARK    5  A    between atoms: C_18  and  C_19
REMARK    6  A    between atoms: N_21  and  C_22
REMARK    7  A    between atoms: C_29  and  O_30
REMARK    8  A    between atoms: O_30  and  C_31
REMARK    9  A    between atoms: C_32  and  O_33
REMARK   10  A    between atoms: O_33  and  C_34
REMARK                            x       y       z     vdW  Elec       q    Type
REMARK                         _______ _______ _______ _____ _____    ______ ____
ROOT
ATOM      1  N   UNL     1       0.354   9.427  20.481  0.00  0.00    +0.000 N 
ATOM      2  C   UNL     1       1.276   9.167  19.470  0.00  0.00    +0.000 A 
ATOM      3  N   UNL     1       1.717  10.086  18.628  0.00  0.00    +0.000 NA
ATOM      4  C   UNL     1       2.484   9.621  17.651  0.00  0.00    +0.000 A 
ATOM      5  N   UNL     1       2.808   8.346  17.441  0.00  0.00    +0.000 NA
ATOM      6  C   UNL     1       2.370   7.508  18.372  0.00  0.00    +0.000 A 
ATOM      7  N   UNL     1       2.737   6.165  18.246  0.00  0.00    +0.000 N 
ATOM      8  N   UNL     1       1.625   7.894  19.397  0.00  0.00    +0.000 NA
ATOM      9  H   UNL     1       0.107   8.543  20.903  0.00  0.00    +0.000 HD
ATOM     10  H   UNL     1       2.825   5.920  17.266  0.00  0.00    +0.000 HD
ENDROOT
BRANCH   1  13
ATOM     11  C   UNL     1      -2.329  11.869  19.694  0.00  0.00    +0.000 A 
ATOM     12  C   UNL     1      -1.337  10.880  19.574  0.00  0.00    +0.000 A 
ATOM     13  C   UNL     1      -0.556  10.472  20.661  0.00  0.00    +0.000 A 
ATOM     14  C   UNL     1      -0.756  11.116  21.874  0.00  0.00    +0.000 A 
ATOM     15  C   UNL     1      -1.698  12.145  22.012  0.00  0.00    +0.000 A 
ATOM     16  C   UNL     1      -2.498  12.542  20.919  0.00  0.00    +0.000 A 
BRANCH  11  18
ATOM     17  C   UNL     1      -3.857  11.147  18.018  0.00  0.00    +0.000 C 
ATOM     18  O   UNL     1      -3.106  12.206  18.614  0.00  0.00    +0.000 OA
ENDBRANCH  11  18
BRANCH  15  19
ATOM     19  O   UNL     1      -1.669  12.706  23.265  0.00  0.00    +0.000 OA
ATOM     20  C   UNL     1      -1.044  13.978  23.400  0.00  0.00    +0.000 C 
ENDBRANCH  15  19
BRANCH  16  21
ATOM     21  O   UNL     1      -3.368  13.560  21.190  0.00  0.00    +0.000 OA
ATOM     22  C   UNL     1      -4.712  13.316  21.554  0.00  0.00    +0.000 C 
ENDBRANCH  16  21
ENDBRANCH   1  13
BRANCH   7  23
ATOM     23  C   UNL     1       2.672   5.087  19.154  0.00  0.00    +0.000 A 
ATOM     24  C   UNL     1       1.649   5.004  20.126  0.00  0.00    +0.000 A 
ATOM     25  C   UNL     1       1.589   3.993  21.084  0.00  0.00    +0.000 A 
ATOM     26  C   UNL     1       2.582   3.035  21.123  0.00  0.00    +0.000 A 
ATOM     27  C   UNL     1       3.618   3.087  20.195  0.00  0.00    +0.000 A 
ATOM     28  C   UNL     1       3.689   4.111  19.227  0.00  0.00    +0.000 A 
BRANCH  28  29
ATOM     29  C   UNL     1       4.894   4.054  18.347  0.00  0.00    +0.000 C 
ATOM     30  O   UNL     1       6.012   4.142  18.850  0.00  0.00    +0.000 OA
ATOM     31  N   UNL     1       4.699   3.963  16.983  0.00  0.00    +0.000 N 
ATOM     32  H   UNL     1       3.756   3.916  16.613  0.00  0.00    +0.000 HD
BRANCH  31  33
ATOM     33  C   UNL     1       5.828   3.965  16.069  0.00  0.00    +0.000 C 
ATOM     34  C   UNL     1       5.420   3.587  14.649  0.00  0.00    +0.000 C 
ATOM     35  C   UNL     1       6.550   4.117  13.778  0.00  0.00    +0.000 C 
ATOM     36  C   UNL     1       7.145   5.305  14.532  0.00  0.00    +0.000 C 
ATOM     37  C   UNL     1       6.467   5.339  15.900  0.00  0.00    +0.000 C 
ENDBRANCH  31  33
ENDBRANCH  28  29
ENDBRANCH   7  23
TORSDOF 7
ENDMDL
MODEL 8
REMARK VINA RESULT:      -7.3      3.436      9.380
REMARK  Name = 
REMARK  10 active torsions:
REMARK  status: ('A' for Active; 'I' for Inactive)
REMARK    1  A    between atoms: C_1  and  O_2
REMARK    2  A    between atoms: O_2  and  C_3
REMARK    3  A    between atoms: C_5  and  N_6
REMARK    4  A    between atoms: N_12  and  C_13
REMARK    5  A    between atoms: C_18  and  C_19
REMARK    6  A    between atoms: N_21  and  C_22
REMARK    7  A    between atoms: C_29  and  O_30
REMARK    8  A    between atoms: O_30  and  C_31
REMARK    9  A    between atoms: C_32  and  O_33
REMARK   10  A    between atoms: O_33  and  C_34
REMARK                            x       y       z     vdW  Elec       q    Type
REMARK                         _______ _______ _______ _____ _____    ______ ____
ROOT
ATOM      1  N   UNL     1       2.087   8.510  17.790  0.00  0.00    +0.000 N 
ATOM      2  C   UNL     1       2.391   7.365  18.521  0.00  0.00    +0.000 A 
ATOM      3  N   UNL     1       1.740   7.000  19.613  0.00  0.00    +0.000 NA
ATOM      4  C   UNL     1       2.261   5.957  20.246  0.00  0.00    +0.000 A 
ATOM      5  N   UNL     1       3.362   5.294  19.900  0.00  0.00    +0.000 NA
ATOM      6  C   UNL     1       3.909   5.694  18.759  0.00  0.00    +0.000 A 
ATOM      7  N   UNL     1       5.028   4.990  18.306  0.00  0.00    +0.000 N 
ATOM      8  N   UNL     1       3.434   6.706  18.049  0.00  0.00    +0.000 NA
ATOM      9  H   UNL     1       2.794   8.614  17.077  0.00  0.00    +0.000 HD
ATOM     10  H   UNL     1       5.564   4.644  19.094  0.00  0.00    +0.000 HD
ENDROOT
BRANCH   1  13
ATOM     11  C   UNL     1       1.458  12.020  18.824  0.00  0.00    +0.000 A 
ATOM     12  C   UNL     1       2.091  10.796  18.544  0.00  0.00    +0.000 A 
ATOM     13  C   UNL     1       1.378   9.666  18.128  0.00  0.00    +0.000 A 
ATOM     14  C   UNL     1      -0.003   9.774  18.043  0.00  0.00    +0.000 A 
ATOM     15  C   UNL     1      -0.669  10.962  18.371  0.00  0.00    +0.000 A 
ATOM     16  C   UNL     1       0.053  12.106  18.773  0.00  0.00    +0.000 A 
BRANCH  11  18
ATOM     17  C   UNL     1       2.690  13.929  18.116  0.00  0.00    +0.000 C 
ATOM     18  O   UNL     1       2.199  13.117  19.184  0.00  0.00    +0.000 OA
ENDBRANCH  11  18
BRANCH  15  19
ATOM     19  O   UNL     1      -2.034  10.824  18.309  0.00  0.00    +0.000 OA
ATOM     20  C   UNL     1      -2.665  11.088  17.062  0.00  0.00    +0.000 C 
ENDBRANCH  15  19
BRANCH  16  21
ATOM     21  O   UNL     1      -0.719  13.194  19.069  0.00  0.00    +0.000 OA
ATOM     22  C   UNL     1      -1.085  13.510  20.397  0.00  0.00    +0.000 C 
ENDBRANCH  16  21
ENDBRANCH   1  13
BRANCH   7  23
ATOM     23  C   UNL     1       5.680   4.974  17.054  0.00  0.00    +0.000 A 
ATOM     24  C   UNL     1       5.373   4.001  16.076  0.00  0.00    +0.000 A 
ATOM     25  C   UNL     1       6.041   3.909  14.857  0.00  0.00    +0.000 A 
ATOM     26  C   UNL     1       7.076   4.781  14.583  0.00  0.00    +0.000 A 
ATOM     27  C   UNL     1       7.425   5.745  15.524  0.00  0.00    +0.000 A 
ATOM     28  C   UNL     1       6.758   5.839  16.764  0.00  0.00    +0.000 A 
BRANCH  28  29
ATOM     29  C   UNL     1       7.293   6.889  17.681  0.00  0.00    +0.000 C 
ATOM     30  O   UNL     1       7.655   6.573  18.812  0.00  0.00    +0.000 OA
ATOM     31  N   UNL     1       7.303   8.196  17.237  0.00  0.00    +0.000 N 
ATOM     32  H   UNL     1       6.972   8.412  16.303  0.00  0.00    +0.000 HD
BRANCH  31  33
ATOM     33  C   UNL     1       7.755   9.272  18.103  0.00  0.00    +0.000 C 
ATOM     34  C   UNL     1       9.098   8.963  18.754  0.00  0.00    +0.000 C 
ATOM     35  C   UNL     1       9.633  10.323  19.180  0.00  0.00    +0.000 C 
ATOM     36  C   UNL     1       9.023  11.339  18.216  0.00  0.00    +0.000 C 
ATOM     37  C   UNL     1       8.014  10.578  17.358  0.00  0.00    +0.000 C 
ENDBRANCH  31  33
ENDBRANCH  28  29
ENDBRANCH   7  23
TORSDOF 7
ENDMDL
MODEL 9
REMARK VINA RESULT:      -7.2      1.377      1.598
REMARK  Name = 
REMARK  10 active torsions:
REMARK  status: ('A' for Active; 'I' for Inactive)
REMARK    1  A    between atoms: C_1  and  O_2
REMARK    2  A    between atoms: O_2  and  C_3
REMARK    3  A    between atoms: C_5  and  N_6
REMARK    4  A    between atoms: N_12  and  C_13
REMARK    5  A    between atoms: C_18  and  C_19
REMARK    6  A    between atoms: N_21  and  C_22
REMARK    7  A    between atoms: C_29  and  O_30
REMARK    8  A    between atoms: O_30  and  C_31
REMARK    9  A    between atoms: C_32  and  O_33
REMARK   10  A    between atoms: O_33  and  C_34
REMARK                            x       y       z     vdW  Elec       q    Type
REMARK                         _______ _______ _______ _____ _____    ______ ____
ROOT
ATOM      1  N   UNL     1       2.131   7.856  20.158  0.00  0.00    +0.000 N 
ATOM      2  C   UNL     1       1.294   8.572  21.009  0.00  0.00    +0.000 A 
ATOM      3  N   UNL     1       0.505   8.006  21.907  0.00  0.00    +0.000 NA
ATOM      4  C   UNL     1      -0.316   8.841  22.529  0.00  0.00    +0.000 A 
ATOM      5  N   UNL     1      -0.428  10.149  22.307  0.00  0.00    +0.000 NA
ATOM      6  C   UNL     1       0.446  10.635  21.434  0.00  0.00    +0.000 A 
ATOM      7  N   UNL     1       0.426  12.014  21.211  0.00  0.00    +0.000 N 
ATOM      8  N   UNL     1       1.322   9.876  20.793  0.00  0.00    +0.000 NA
ATOM      9  H   UNL     1       2.536   8.511  19.505  0.00  0.00    +0.000 HD
ATOM     10  H   UNL     1      -0.518  12.370  21.318  0.00  0.00    +0.000 HD
ENDROOT
BRANCH   1  13
ATOM     11  C   UNL     1       2.853   4.832  18.130  0.00  0.00    +0.000 A 
ATOM     12  C   UNL     1       2.747   6.167  18.558  0.00  0.00    +0.000 A 
ATOM     13  C   UNL     1       2.125   6.516  19.762  0.00  0.00    +0.000 A 
ATOM     14  C   UNL     1       1.562   5.494  20.514  0.00  0.00    +0.000 A 
ATOM     15  C   UNL     1       1.602   4.160  20.086  0.00  0.00    +0.000 A 
ATOM     16  C   UNL     1       2.245   3.808  18.881  0.00  0.00    +0.000 A 
BRANCH  11  18
ATOM     17  C   UNL     1       4.815   5.095  16.808  0.00  0.00    +0.000 C 
ATOM     18  O   UNL     1       3.513   4.528  16.965  0.00  0.00    +0.000 OA
ENDBRANCH  11  18
BRANCH  15  19
ATOM     19  O   UNL     1       0.907   3.327  20.928  0.00  0.00    +0.000 OA
ATOM     20  C   UNL     1       1.653   2.605  21.901  0.00  0.00    +0.000 C 
ENDBRANCH  15  19
BRANCH  16  21
ATOM     21  O   UNL     1       2.203   2.476  18.580  0.00  0.00    +0.000 OA
ATOM     22  C   UNL     1       3.371   1.680  18.551  0.00  0.00    +0.000 C 
ENDBRANCH  16  21
ENDBRANCH   1  13
BRANCH   7  23
ATOM     23  C   UNL     1       1.347  12.873  20.574  0.00  0.00    +0.000 A 
ATOM     24  C   UNL     1       2.527  13.300  21.224  0.00  0.00    +0.000 A 
ATOM     25  C   UNL     1       3.427  14.201  20.655  0.00  0.00    +0.000 A 
ATOM     26  C   UNL     1       3.156  14.737  19.412  0.00  0.00    +0.000 A 
ATOM     27  C   UNL     1       1.997  14.357  18.742  0.00  0.00    +0.000 A 
ATOM     28  C   UNL     1       1.079  13.452  19.314  0.00  0.00    +0.000 A 
BRANCH  28  29
ATOM     29  C   UNL     1      -0.140  13.197  18.490  0.00  0.00    +0.000 C 
ATOM     30  O   UNL     1      -0.783  14.149  18.055  0.00  0.00    +0.000 OA
ATOM     31  N   UNL     1      -0.533  11.887  18.299  0.00  0.00    +0.000 N 
ATOM     32  H   UNL     1       0.018  11.134  18.697  0.00  0.00    +0.000 HD
BRANCH  31  33
ATOM     33  C   UNL     1      -1.743  11.574  17.558  0.00  0.00    +0.000 C 
ATOM     34  C   UNL     1      -1.740  10.146  17.025  0.00  0.00    +0.000 C 
ATOM     35  C   UNL     1      -3.205   9.842  16.749  0.00  0.00    +0.000 C 
ATOM     36  C   UNL     1      -4.008  10.713  17.713  0.00  0.00    +0.000 C 
ATOM     37  C   UNL     1      -3.006  11.631  18.412  0.00  0.00    +0.000 C 
ENDBRANCH  31  33
ENDBRANCH  28  29
ENDBRANCH   7  23
TORSDOF 7
ENDMDL
