MODEL 1
REMARK VINA RESULT:      -9.6      0.000      0.000
REMARK  Name = 
REMARK  6 active torsions:
REMARK  status: ('A' for Active; 'I' for Inactive)
REMARK    1  A    between atoms: C_2  and  C_15
REMARK    2  A    between atoms: N_3  and  C_4
REMARK    3  A    between atoms: C_7  and  N_8
REMARK    4  A    between atoms: C_16  and  O_17
REMARK    5  A    between atoms: C_19  and  C_20
REMARK    6  A    between atoms: C_20  and  C_21
REMARK                            x       y       z     vdW  Elec       q    Type
REMARK                         _______ _______ _______ _____ _____    ______ ____
ROOT
ATOM      1  C   UNL     1       7.917   6.803  18.017  0.00  0.00    +0.000 C 
ATOM      2  C   UNL     1       7.532   6.078  19.092  0.00  0.00    +0.000 C 
ATOM      3  C   UNL     1       6.171   5.377  19.194  0.00  0.00    +0.000 C 
ATOM      4  C   UNL     1       5.183   5.650  18.008  0.00  0.00    +0.000 C 
ATOM      5  N   UNL     1       5.768   6.582  17.045  0.00  0.00    +0.000 N 
ATOM      6  C   UNL     1       7.112   6.308  16.866  0.00  0.00    +0.000 C 
ATOM      7  O   UNL     1       7.610   5.612  15.992  0.00  0.00    +0.000 OA
ATOM      8  H   UNL     1       5.606   7.524  17.393  0.00  0.00    +0.000 HD
ENDROOT
BRANCH   1  10
ATOM      9  O   UNL     1       7.291   8.958  17.176  0.00  0.00    +0.000 OA
ATOM     10  C   UNL     1       7.844   8.318  18.060  0.00  0.00    +0.000 C 
ATOM     11  N   UNL     1       8.682   8.803  19.051  0.00  0.00    +0.000 N 
ATOM     12  H   UNL     1       9.045   8.116  19.706  0.00  0.00    +0.000 HD
BRANCH  11  13
ATOM     13  C   UNL     1       9.319  10.064  19.121  0.00  0.00    +0.000 A 
ATOM     14  C   UNL     1       9.661  10.723  20.296  0.00  0.00    +0.000 A 
ATOM     15  C   UNL     1      10.244  12.009  20.255  0.00  0.00    +0.000 A 
ATOM     16  C   UNL     1      10.485  12.655  19.034  0.00  0.00    +0.000 A 
ATOM     17  C   UNL     1      10.140  11.989  17.851  0.00  0.00    +0.000 A 
ATOM     18  C   UNL     1       9.564  10.710  17.903  0.00  0.00    +0.000 A 
BRANCH  16  19
ATOM     19  N   UNL     1      11.069  13.956  18.987  0.00  0.00    +0.000 N 
ATOM     20  C   UNL     1      12.043  14.473  19.821  0.00  0.00    +0.000 A 
ATOM     21  C   UNL     1      12.296  15.751  19.378  0.00  0.00    +0.000 A 
ATOM     22  N   UNL     1      11.509  16.065  18.299  0.00  0.00    +0.000 NA
ATOM     23  C   UNL     1      10.790  14.970  18.096  0.00  0.00    +0.000 A 
ENDBRANCH  16  19
ENDBRANCH  11  13
ENDBRANCH   1  10
BRANCH   2  24
ATOM     24  O   UNL     1       8.502   5.433  19.872  0.00  0.00    +0.000 OA
ATOM     25  H   UNL     1       9.386   5.593  19.488  0.00  0.00    +0.000 HD
ENDBRANCH   2  24
BRANCH   4  26
ATOM     26  C   UNL     1       4.720   4.409  17.230  0.00  0.00    +0.000 C 
BRANCH  26  27
ATOM     27  C   UNL     1       3.519   3.701  17.791  0.00  0.00    +0.000 A 
ATOM     28  C   UNL     1       2.266   4.327  17.807  0.00  0.00    +0.000 A 
ATOM     29  C   UNL     1       1.143   3.642  18.268  0.00  0.00    +0.000 A 
ATOM     30  C   UNL     1       1.270   2.328  18.723  0.00  0.00    +0.000 A 
ATOM     31  C   UNL     1       2.512   1.702  18.716  0.00  0.00    +0.000 A 
ATOM     32  C   UNL     1       3.635   2.387  18.250  0.00  0.00    +0.000 A 
ENDBRANCH  26  27
ENDBRANCH   4  26
TORSDOF 6
ENDMDL
MODEL 2
REMARK VINA RESULT:      -9.5      0.549      1.353
REMARK  Name = 
REMARK  6 active torsions:
REMARK  status: ('A' for Active; 'I' for Inactive)
REMARK    1  A    between atoms: C_2  and  C_15
REMARK    2  A    between atoms: N_3  and  C_4
REMARK    3  A    between atoms: C_7  and  N_8
REMARK    4  A    between atoms: C_16  and  O_17
REMARK    5  A    between atoms: C_19  and  C_20
REMARK    6  A    between atoms: C_20  and  C_21
REMARK                            x       y       z     vdW  Elec       q    Type
REMARK                         _______ _______ _______ _____ _____    ______ ____
ROOT
ATOM      1  C   UNL     1       7.889   6.552  18.033  0.00  0.00    +0.000 C 
ATOM      2  C   UNL     1       7.563   5.872  19.157  0.00  0.00    +0.000 C 
ATOM      3  C   UNL     1       6.231   5.134  19.339  0.00  0.00    +0.000 C 
ATOM      4  C   UNL     1       5.196   5.314  18.176  0.00  0.00    +0.000 C 
ATOM      5  N   UNL     1       5.719   6.213  17.147  0.00  0.00    +0.000 N 
ATOM      6  C   UNL     1       7.065   5.972  16.937  0.00  0.00    +0.000 C 
ATOM      7  O   UNL     1       7.557   5.248  16.083  0.00  0.00    +0.000 OA
ATOM      8  H   UNL     1       5.537   7.165  17.451  0.00  0.00    +0.000 HD
ENDROOT
BRANCH   1  10
ATOM      9  O   UNL     1       7.193   8.641  17.088  0.00  0.00    +0.000 OA
ATOM     10  C   UNL     1       7.767   8.064  18.002  0.00  0.00    +0.000 C 
ATOM     11  N   UNL     1       8.589   8.624  18.967  0.00  0.00    +0.000 N 
ATOM     12  H   UNL     1       8.975   7.983  19.654  0.00  0.00    +0.000 HD
BRANCH  11  13
ATOM     13  C   UNL     1       9.185   9.907  18.972  0.00  0.00    +0.000 A 
ATOM     14  C   UNL     1       9.784  10.514  17.875  0.00  0.00    +0.000 A 
ATOM     15  C   UNL     1      10.404  11.778  18.002  0.00  0.00    +0.000 A 
ATOM     16  C   UNL     1      10.436  12.446  19.235  0.00  0.00    +0.000 A 
ATOM     17  C   UNL     1       9.831  11.832  20.339  0.00  0.00    +0.000 A 
ATOM     18  C   UNL     1       9.216  10.578  20.201  0.00  0.00    +0.000 A 
BRANCH  16  19
ATOM     19  N   UNL     1      11.063  13.721  19.370  0.00  0.00    +0.000 N 
ATOM     20  C   UNL     1      10.979  14.593  20.440  0.00  0.00    +0.000 A 
ATOM     21  C   UNL     1      11.764  15.677  20.120  0.00  0.00    +0.000 A 
ATOM     22  N   UNL     1      12.333  15.527  18.881  0.00  0.00    +0.000 NA
ATOM     23  C   UNL     1      11.891  14.348  18.465  0.00  0.00    +0.000 A 
ENDBRANCH  16  19
ENDBRANCH  11  13
ENDBRANCH   1  10
BRANCH   2  24
ATOM     24  O   UNL     1       8.579   5.300  19.935  0.00  0.00    +0.000 OA
ATOM     25  H   UNL     1       9.353   5.895  19.947  0.00  0.00    +0.000 HD
ENDBRANCH   2  24
BRANCH   4  26
ATOM     26  C   UNL     1       4.751   4.020  17.478  0.00  0.00    +0.000 C 
BRANCH  26  27
ATOM     27  C   UNL     1       3.416   3.478  17.904  0.00  0.00    +0.000 A 
ATOM     28  C   UNL     1       3.334   2.324  18.695  0.00  0.00    +0.000 A 
ATOM     29  C   UNL     1       2.096   1.864  19.142  0.00  0.00    +0.000 A 
ATOM     30  C   UNL     1       0.933   2.552  18.794  0.00  0.00    +0.000 A 
ATOM     31  C   UNL     1       1.005   3.695  18.004  0.00  0.00    +0.000 A 
ATOM     32  C   UNL     1       2.245   4.157  17.561  0.00  0.00    +0.000 A 
ENDBRANCH  26  27
ENDBRANCH   4  26
TORSDOF 6
ENDMDL
MODEL 3
REMARK VINA RESULT:      -9.4      0.530      1.031
REMARK  Name = 
REMARK  6 active torsions:
REMARK  status: ('A' for Active; 'I' for Inactive)
REMARK    1  A    between atoms: C_2  and  C_15
REMARK    2  A    between atoms: N_3  and  C_4
REMARK    3  A    between atoms: C_7  and  N_8
REMARK    4  A    between atoms: C_16  and  O_17
REMARK    5  A    between atoms: C_19  and  C_20
REMARK    6  A    between atoms: C_20  and  C_21
REMARK                            x       y       z     vdW  Elec       q    Type
REMARK                         _______ _______ _______ _____ _____    ______ ____
ROOT
ATOM      1  C   UNL     1       7.939   6.353  18.322  0.00  0.00    +0.000 C 
ATOM      2  C   UNL     1       7.324   5.902  19.439  0.00  0.00    +0.000 C 
ATOM      3  C   UNL     1       5.927   5.268  19.436  0.00  0.00    +0.000 C 
ATOM      4  C   UNL     1       5.186   5.279  18.055  0.00  0.00    +0.000 C 
ATOM      5  N   UNL     1       5.991   5.954  17.036  0.00  0.00    +0.000 N 
ATOM      6  C   UNL     1       7.326   5.620  17.179  0.00  0.00    +0.000 C 
ATOM      7  O   UNL     1       7.928   4.733  16.592  0.00  0.00    +0.000 OA
ATOM      8  H   UNL     1       5.827   6.953  17.128  0.00  0.00    +0.000 HD
ENDROOT
BRANCH   1  10
ATOM      9  O   UNL     1       7.745   8.258  16.882  0.00  0.00    +0.000 OA
ATOM     10  C   UNL     1       7.953   7.838  18.012  0.00  0.00    +0.000 C 
ATOM     11  N   UNL     1       8.469   8.540  19.089  0.00  0.00    +0.000 N 
ATOM     12  H   UNL     1       8.566   8.021  19.957  0.00  0.00    +0.000 HD
BRANCH  11  13
ATOM     13  C   UNL     1       9.132   9.790  19.084  0.00  0.00    +0.000 A 
ATOM     14  C   UNL     1       9.781  10.354  20.176  0.00  0.00    +0.000 A 
ATOM     15  C   UNL     1      10.363  11.638  20.081  0.00  0.00    +0.000 A 
ATOM     16  C   UNL     1      10.295  12.376  18.890  0.00  0.00    +0.000 A 
ATOM     17  C   UNL     1       9.640  11.805  17.792  0.00  0.00    +0.000 A 
ATOM     18  C   UNL     1       9.068  10.528  17.896  0.00  0.00    +0.000 A 
BRANCH  16  19
ATOM     19  N   UNL     1      10.877  13.675  18.790  0.00  0.00    +0.000 N 
ATOM     20  C   UNL     1      11.742  14.282  19.682  0.00  0.00    +0.000 A 
ATOM     21  C   UNL     1      12.043  15.516  19.152  0.00  0.00    +0.000 A 
ATOM     22  N   UNL     1      11.391  15.716  17.962  0.00  0.00    +0.000 NA
ATOM     23  C   UNL     1      10.705  14.596  17.780  0.00  0.00    +0.000 A 
ENDBRANCH  16  19
ENDBRANCH  11  13
ENDBRANCH   1  10
BRANCH   2  24
ATOM     24  O   UNL     1       8.098   5.436  20.512  0.00  0.00    +0.000 OA
ATOM     25  H   UNL     1       8.645   4.684  20.215  0.00  0.00    +0.000 HD
ENDBRANCH   2  24
BRANCH   4  26
ATOM     26  C   UNL     1       4.795   3.901  17.499  0.00  0.00    +0.000 C 
BRANCH  26  27
ATOM     27  C   UNL     1       3.441   3.396  17.909  0.00  0.00    +0.000 A 
ATOM     28  C   UNL     1       3.309   2.169  18.572  0.00  0.00    +0.000 A 
ATOM     29  C   UNL     1       2.057   1.736  19.008  0.00  0.00    +0.000 A 
ATOM     30  C   UNL     1       0.929   2.526  18.775  0.00  0.00    +0.000 A 
ATOM     31  C   UNL     1       1.053   3.743  18.112  0.00  0.00    +0.000 A 
ATOM     32  C   UNL     1       2.307   4.177  17.680  0.00  0.00    +0.000 A 
ENDBRANCH  26  27
ENDBRANCH   4  26
TORSDOF 6
ENDMDL
MODEL 4
REMARK VINA RESULT:      -9.2      6.390      8.038
REMARK  Name = 
REMARK  6 active torsions:
REMARK  status: ('A' for Active; 'I' for Inactive)
REMARK    1  A    between atoms: C_2  and  C_15
REMARK    2  A    between atoms: N_3  and  C_4
REMARK    3  A    between atoms: C_7  and  N_8
REMARK    4  A    between atoms: C_16  and  O_17
REMARK    5  A    between atoms: C_19  and  C_20
REMARK    6  A    between atoms: C_20  and  C_21
REMARK                            x       y       z     vdW  Elec       q    Type
REMARK                         _______ _______ _______ _____ _____    ______ ____
ROOT
ATOM      1  C   UNL     1       4.022   4.286  19.332  0.00  0.00    +0.000 C 
ATOM      2  C   UNL     1       4.036   3.200  18.526  0.00  0.00    +0.000 C 
ATOM      3  C   UNL     1       4.548   3.228  17.080  0.00  0.00    +0.000 C 
ATOM      4  C   UNL     1       4.953   4.641  16.537  0.00  0.00    +0.000 C 
ATOM      5  N   UNL     1       4.707   5.676  17.541  0.00  0.00    +0.000 N 
ATOM      6  C   UNL     1       5.055   5.218  18.799  0.00  0.00    +0.000 C 
ATOM      7  O   UNL     1       6.122   5.383  19.372  0.00  0.00    +0.000 OA
ATOM      8  H   UNL     1       3.727   5.937  17.479  0.00  0.00    +0.000 HD
ENDROOT
BRANCH   1  10
ATOM      9  O   UNL     1       1.653   4.605  19.175  0.00  0.00    +0.000 OA
ATOM     10  C   UNL     1       2.730   5.048  19.552  0.00  0.00    +0.000 C 
ATOM     11  N   UNL     1       3.007   6.339  19.972  0.00  0.00    +0.000 N 
ATOM     12  H   UNL     1       3.965   6.521  20.256  0.00  0.00    +0.000 HD
BRANCH  11  13
ATOM     13  C   UNL     1       2.220   7.503  19.805  0.00  0.00    +0.000 A 
ATOM     14  C   UNL     1       1.411   8.067  20.784  0.00  0.00    +0.000 A 
ATOM     15  C   UNL     1       0.618   9.200  20.496  0.00  0.00    +0.000 A 
ATOM     16  C   UNL     1       0.623   9.780  19.219  0.00  0.00    +0.000 A 
ATOM     17  C   UNL     1       1.440   9.210  18.234  0.00  0.00    +0.000 A 
ATOM     18  C   UNL     1       2.225   8.085  18.532  0.00  0.00    +0.000 A 
BRANCH  16  19
ATOM     19  N   UNL     1      -0.179  10.922  18.921  0.00  0.00    +0.000 N 
ATOM     20  C   UNL     1      -1.546  10.963  18.721  0.00  0.00    +0.000 A 
ATOM     21  C   UNL     1      -1.864  12.281  18.481  0.00  0.00    +0.000 A 
ATOM     22  N   UNL     1      -0.745  13.073  18.511  0.00  0.00    +0.000 NA
ATOM     23  C   UNL     1       0.241  12.226  18.776  0.00  0.00    +0.000 A 
ENDBRANCH  16  19
ENDBRANCH  11  13
ENDBRANCH   1  10
BRANCH   2  24
ATOM     24  O   UNL     1       4.164   1.923  19.092  0.00  0.00    +0.000 OA
ATOM     25  H   UNL     1       3.438   1.776  19.728  0.00  0.00    +0.000 HD
ENDBRANCH   2  24
BRANCH   4  26
ATOM     26  C   UNL     1       6.411   4.782  16.073  0.00  0.00    +0.000 C 
BRANCH  26  27
ATOM     27  C   UNL     1       6.651   4.553  14.608  0.00  0.00    +0.000 A 
ATOM     28  C   UNL     1       5.880   3.625  13.895  0.00  0.00    +0.000 A 
ATOM     29  C   UNL     1       6.063   3.465  12.523  0.00  0.00    +0.000 A 
ATOM     30  C   UNL     1       7.025   4.227  11.856  0.00  0.00    +0.000 A 
ATOM     31  C   UNL     1       7.798   5.146  12.558  0.00  0.00    +0.000 A 
ATOM     32  C   UNL     1       7.611   5.309  13.932  0.00  0.00    +0.000 A 
ENDBRANCH  26  27
ENDBRANCH   4  26
TORSDOF 6
ENDMDL
MODEL 5
REMARK VINA RESULT:      -9.1      6.429      8.021
REMARK  Name = 
REMARK  6 active torsions:
REMARK  status: ('A' for Active; 'I' for Inactive)
REMARK    1  A    between atoms: C_2  and  C_15
REMARK    2  A    between atoms: N_3  and  C_4
REMARK    3  A    between atoms: C_7  and  N_8
REMARK    4  A    between atoms: C_16  and  O_17
REMARK    5  A    between atoms: C_19  and  C_20
REMARK    6  A    between atoms: C_20  and  C_21
REMARK                            x       y       z     vdW  Elec       q    Type
REMARK                         _______ _______ _______ _____ _____    ______ ____
ROOT
ATOM      1  C   UNL     1       3.969   4.130  19.339  0.00  0.00    +0.000 C 
ATOM      2  C   UNL     1       3.938   3.038  18.540  0.00  0.00    +0.000 C 
ATOM      3  C   UNL     1       4.460   3.034  17.098  0.00  0.00    +0.000 C 
ATOM      4  C   UNL     1       4.933   4.423  16.549  0.00  0.00    +0.000 C 
ATOM      5  N   UNL     1       4.729   5.475  17.545  0.00  0.00    +0.000 N 
ATOM      6  C   UNL     1       5.048   5.009  18.808  0.00  0.00    +0.000 C 
ATOM      7  O   UNL     1       6.117   5.128  19.387  0.00  0.00    +0.000 OA
ATOM      8  H   UNL     1       3.763   5.780  17.474  0.00  0.00    +0.000 HD
ENDROOT
BRANCH   1  10
ATOM      9  O   UNL     1       1.603   4.499  19.296  0.00  0.00    +0.000 OA
ATOM     10  C   UNL     1       2.712   4.952  19.546  0.00  0.00    +0.000 C 
ATOM     11  N   UNL     1       3.045   6.275  19.785  0.00  0.00    +0.000 N 
ATOM     12  H   UNL     1       4.024   6.461  19.983  0.00  0.00    +0.000 HD
BRANCH  11  13
ATOM     13  C   UNL     1       2.276   7.434  19.527  0.00  0.00    +0.000 A 
ATOM     14  C   UNL     1       2.185   8.074  18.297  0.00  0.00    +0.000 A 
ATOM     15  C   UNL     1       1.433   9.262  18.159  0.00  0.00    +0.000 A 
ATOM     16  C   UNL     1       0.766   9.827  19.256  0.00  0.00    +0.000 A 
ATOM     17  C   UNL     1       0.859   9.179  20.494  0.00  0.00    +0.000 A 
ATOM     18  C   UNL     1       1.607   7.998  20.619  0.00  0.00    +0.000 A 
BRANCH  16  19
ATOM     19  N   UNL     1       0.008  11.028  19.123  0.00  0.00    +0.000 N 
ATOM     20  C   UNL     1       0.480  12.295  18.830  0.00  0.00    +0.000 A 
ATOM     21  C   UNL     1      -0.621  13.120  18.791  0.00  0.00    +0.000 A 
ATOM     22  N   UNL     1      -1.771  12.423  19.059  0.00  0.00    +0.000 NA
ATOM     23  C   UNL     1      -1.355  11.179  19.253  0.00  0.00    +0.000 A 
ENDBRANCH  16  19
ENDBRANCH  11  13
ENDBRANCH   1  10
BRANCH   2  24
ATOM     24  O   UNL     1       4.003   1.761  19.115  0.00  0.00    +0.000 OA
ATOM     25  H   UNL     1       4.698   1.748  19.800  0.00  0.00    +0.000 HD
ENDBRANCH   2  24
BRANCH   4  26
ATOM     26  C   UNL     1       6.400   4.493  16.094  0.00  0.00    +0.000 C 
BRANCH  26  27
ATOM     27  C   UNL     1       6.621   4.458  14.608  0.00  0.00    +0.000 A 
ATOM     28  C   UNL     1       7.597   5.268  14.013  0.00  0.00    +0.000 A 
ATOM     29  C   UNL     1       7.843   5.182  12.644  0.00  0.00    +0.000 A 
ATOM     30  C   UNL     1       7.107   4.292  11.860  0.00  0.00    +0.000 A 
ATOM     31  C   UNL     1       6.131   3.489  12.443  0.00  0.00    +0.000 A 
ATOM     32  C   UNL     1       5.889   3.572  13.815  0.00  0.00    +0.000 A 
ENDBRANCH  26  27
ENDBRANCH   4  26
TORSDOF 6
ENDMDL
MODEL 6
REMARK VINA RESULT:      -8.7      1.785      2.491
REMARK  Name = 
REMARK  6 active torsions:
REMARK  status: ('A' for Active; 'I' for Inactive)
REMARK    1  A    between atoms: C_2  and  C_15
REMARK    2  A    between atoms: N_3  and  C_4
REMARK    3  A    between atoms: C_7  and  N_8
REMARK    4  A    between atoms: C_16  and  O_17
REMARK    5  A    between atoms: C_19  and  C_20
REMARK    6  A    between atoms: C_20  and  C_21
REMARK                            x       y       z     vdW  Elec       q    Type
REMARK                         _______ _______ _______ _____ _____    ______ ____
ROOT
ATOM      1  C   UNL     1       6.449   6.708  16.739  0.00  0.00    +0.000 C 
ATOM      2  C   UNL     1       6.664   5.539  16.092  0.00  0.00    +0.000 C 
ATOM      3  C   UNL     1       6.051   4.204  16.535  0.00  0.00    +0.000 C 
ATOM      4  C   UNL     1       5.240   4.248  17.875  0.00  0.00    +0.000 C 
ATOM      5  N   UNL     1       5.277   5.586  18.464  0.00  0.00    +0.000 N 
ATOM      6  C   UNL     1       5.165   6.549  17.477  0.00  0.00    +0.000 C 
ATOM      7  O   UNL     1       4.142   7.103  17.104  0.00  0.00    +0.000 OA
ATOM      8  H   UNL     1       6.143   5.666  18.990  0.00  0.00    +0.000 HD
ENDROOT
BRANCH   1  10
ATOM      9  O   UNL     1       7.734   6.725  18.761  0.00  0.00    +0.000 OA
ATOM     10  C   UNL     1       7.503   7.255  17.682  0.00  0.00    +0.000 C 
ATOM     11  N   UNL     1       7.917   8.506  17.254  0.00  0.00    +0.000 N 
ATOM     12  H   UNL     1       7.630   8.776  16.318  0.00  0.00    +0.000 HD
BRANCH  11  13
ATOM     13  C   UNL     1       8.445   9.567  18.027  0.00  0.00    +0.000 A 
ATOM     14  C   UNL     1       9.028   9.428  19.281  0.00  0.00    +0.000 A 
ATOM     15  C   UNL     1       9.473  10.562  19.997  0.00  0.00    +0.000 A 
ATOM     16  C   UNL     1       9.333  11.852  19.465  0.00  0.00    +0.000 A 
ATOM     17  C   UNL     1       8.745  11.990  18.201  0.00  0.00    +0.000 A 
ATOM     18  C   UNL     1       8.309  10.856  17.498  0.00  0.00    +0.000 A 
BRANCH  16  19
ATOM     19  N   UNL     1       9.777  13.002  20.185  0.00  0.00    +0.000 N 
ATOM     20  C   UNL     1      10.415  14.119  19.679  0.00  0.00    +0.000 A 
ATOM     21  C   UNL     1      10.628  14.961  20.746  0.00  0.00    +0.000 A 
ATOM     22  N   UNL     1      10.158  14.412  21.911  0.00  0.00    +0.000 NA
ATOM     23  C   UNL     1       9.657  13.243  21.536  0.00  0.00    +0.000 A 
ENDBRANCH  16  19
ENDBRANCH  11  13
ENDBRANCH   1  10
BRANCH   2  24
ATOM     24  O   UNL     1       6.929   5.552  14.715  0.00  0.00    +0.000 OA
ATOM     25  H   UNL     1       7.654   4.928  14.518  0.00  0.00    +0.000 HD
ENDBRANCH   2  24
BRANCH   4  26
ATOM     26  C   UNL     1       3.766   3.826  17.774  0.00  0.00    +0.000 C 
BRANCH  26  27
ATOM     27  C   UNL     1       3.035   3.700  19.080  0.00  0.00    +0.000 A 
ATOM     28  C   UNL     1       1.847   4.408  19.303  0.00  0.00    +0.000 A 
ATOM     29  C   UNL     1       1.139   4.236  20.492  0.00  0.00    +0.000 A 
ATOM     30  C   UNL     1       1.620   3.361  21.467  0.00  0.00    +0.000 A 
ATOM     31  C   UNL     1       2.802   2.659  21.255  0.00  0.00    +0.000 A 
ATOM     32  C   UNL     1       3.508   2.828  20.063  0.00  0.00    +0.000 A 
ENDBRANCH  26  27
ENDBRANCH   4  26
TORSDOF 6
ENDMDL
MODEL 7
REMARK VINA RESULT:      -8.6      1.765      2.556
REMARK  Name = 
REMARK  6 active torsions:
REMARK  status: ('A' for Active; 'I' for Inactive)
REMARK    1  A    between atoms: C_2  and  C_15
REMARK    2  A    between atoms: N_3  and  C_4
REMARK    3  A    between atoms: C_7  and  N_8
REMARK    4  A    between atoms: C_16  and  O_17
REMARK    5  A    between atoms: C_19  and  C_20
REMARK    6  A    between atoms: C_20  and  C_21
REMARK                            x       y       z     vdW  Elec       q    Type
REMARK                         _______ _______ _______ _____ _____    ______ ____
ROOT
ATOM      1  C   UNL     1       6.686   6.686  16.733  0.00  0.00    +0.000 C 
ATOM      2  C   UNL     1       6.902   5.456  16.212  0.00  0.00    +0.000 C 
ATOM      3  C   UNL     1       6.184   4.194  16.706  0.00  0.00    +0.000 C 
ATOM      4  C   UNL     1       5.255   4.391  17.953  0.00  0.00    +0.000 C 
ATOM      5  N   UNL     1       5.304   5.774  18.426  0.00  0.00    +0.000 N 
ATOM      6  C   UNL     1       5.333   6.649  17.355  0.00  0.00    +0.000 C 
ATOM      7  O   UNL     1       4.378   7.210  16.838  0.00  0.00    +0.000 OA
ATOM      8  H   UNL     1       6.120   5.865  19.025  0.00  0.00    +0.000 HD
ENDROOT
BRANCH   1  10
ATOM      9  O   UNL     1       7.869   6.753  18.815  0.00  0.00    +0.000 OA
ATOM     10  C   UNL     1       7.674   7.272  17.724  0.00  0.00    +0.000 C 
ATOM     11  N   UNL     1       8.067   8.534  17.310  0.00  0.00    +0.000 N 
ATOM     12  H   UNL     1       7.819   8.791  16.359  0.00  0.00    +0.000 HD
BRANCH  11  13
ATOM     13  C   UNL     1       8.522   9.614  18.103  0.00  0.00    +0.000 A 
ATOM     14  C   UNL     1       9.067   9.497  19.376  0.00  0.00    +0.000 A 
ATOM     15  C   UNL     1       9.438  10.647  20.108  0.00  0.00    +0.000 A 
ATOM     16  C   UNL     1       9.260  11.932  19.574  0.00  0.00    +0.000 A 
ATOM     17  C   UNL     1       8.710  12.047  18.291  0.00  0.00    +0.000 A 
ATOM     18  C   UNL     1       8.348  10.898  17.572  0.00  0.00    +0.000 A 
BRANCH  16  19
ATOM     19  N   UNL     1       9.628  13.097  20.311  0.00  0.00    +0.000 N 
ATOM     20  C   UNL     1       8.912  13.719  21.317  0.00  0.00    +0.000 A 
ATOM     21  C   UNL     1       9.675  14.787  21.733  0.00  0.00    +0.000 A 
ATOM     22  N   UNL     1      10.842  14.869  21.018  0.00  0.00    +0.000 NA
ATOM     23  C   UNL     1      10.778  13.844  20.179  0.00  0.00    +0.000 A 
ENDBRANCH  16  19
ENDBRANCH  11  13
ENDBRANCH   1  10
BRANCH   2  24
ATOM     24  O   UNL     1       7.294   5.334  14.872  0.00  0.00    +0.000 OA
ATOM     25  H   UNL     1       7.498   4.400  14.677  0.00  0.00    +0.000 HD
ENDBRANCH   2  24
BRANCH   4  26
ATOM     26  C   UNL     1       3.777   4.024  17.745  0.00  0.00    +0.000 C 
BRANCH  26  27
ATOM     27  C   UNL     1       3.003   3.716  18.995  0.00  0.00    +0.000 A 
ATOM     28  C   UNL     1       3.555   2.902  19.993  0.00  0.00    +0.000 A 
ATOM     29  C   UNL     1       2.859   2.672  21.179  0.00  0.00    +0.000 A 
ATOM     30  C   UNL     1       1.602   3.250  21.369  0.00  0.00    +0.000 A 
ATOM     31  C   UNL     1       1.045   4.054  20.380  0.00  0.00    +0.000 A 
ATOM     32  C   UNL     1       1.745   4.287  19.195  0.00  0.00    +0.000 A 
ENDBRANCH  26  27
ENDBRANCH   4  26
TORSDOF 6
ENDMDL
MODEL 8
REMARK VINA RESULT:      -8.4      6.160      8.111
REMARK  Name = 
REMARK  6 active torsions:
REMARK  status: ('A' for Active; 'I' for Inactive)
REMARK    1  A    between atoms: C_2  and  C_15
REMARK    2  A    between atoms: N_3  and  C_4
REMARK    3  A    between atoms: C_7  and  N_8
REMARK    4  A    between atoms: C_16  and  O_17
REMARK    5  A    between atoms: C_19  and  C_20
REMARK    6  A    between atoms: C_20  and  C_21
REMARK                            x       y       z     vdW  Elec       q    Type
REMARK                         _______ _______ _______ _____ _____    ______ ____
ROOT
ATOM      1  C   UNL     1       3.974   5.790  18.820  0.00  0.00    +0.000 C 
ATOM      2  C   UNL     1       3.493   4.542  18.614  0.00  0.00    +0.000 C 
ATOM      3  C   UNL     1       3.782   3.725  17.348  0.00  0.00    +0.000 C 
ATOM      4  C   UNL     1       4.583   4.476  16.230  0.00  0.00    +0.000 C 
ATOM      5  N   UNL     1       4.858   5.857  16.624  0.00  0.00    +0.000 N 
ATOM      6  C   UNL     1       5.187   5.919  17.966  0.00  0.00    +0.000 C 
ATOM      7  O   UNL     1       6.310   5.909  18.448  0.00  0.00    +0.000 OA
ATOM      8  H   UNL     1       4.035   6.409  16.399  0.00  0.00    +0.000 HD
ENDROOT
BRANCH   1  10
ATOM      9  O   UNL     1       3.325   7.825  17.735  0.00  0.00    +0.000 OA
ATOM     10  C   UNL     1       3.076   6.992  18.596  0.00  0.00    +0.000 C 
ATOM     11  N   UNL     1       2.166   7.102  19.635  0.00  0.00    +0.000 N 
ATOM     12  H   UNL     1       2.092   6.299  20.252  0.00  0.00    +0.000 HD
BRANCH  11  13
ATOM     13  C   UNL     1       1.525   8.267  20.119  0.00  0.00    +0.000 A 
ATOM     14  C   UNL     1       1.127   9.344  19.336  0.00  0.00    +0.000 A 
ATOM     15  C   UNL     1       0.546  10.487  19.928  0.00  0.00    +0.000 A 
ATOM     16  C   UNL     1       0.364  10.569  21.317  0.00  0.00    +0.000 A 
ATOM     17  C   UNL     1       0.767   9.482  22.104  0.00  0.00    +0.000 A 
ATOM     18  C   UNL     1       1.340   8.350  21.504  0.00  0.00    +0.000 A 
BRANCH  16  19
ATOM     19  N   UNL     1      -0.218  11.723  21.921  0.00  0.00    +0.000 N 
ATOM     20  C   UNL     1       0.073  13.049  21.658  0.00  0.00    +0.000 A 
ATOM     21  C   UNL     1      -0.751  13.795  22.469  0.00  0.00    +0.000 A 
ATOM     22  N   UNL     1      -1.545  12.989  23.245  0.00  0.00    +0.000 NA
ATOM     23  C   UNL     1      -1.197  11.759  22.889  0.00  0.00    +0.000 A 
ENDBRANCH  16  19
ENDBRANCH  11  13
ENDBRANCH   1  10
BRANCH   2  24
ATOM     24  O   UNL     1       3.235   3.712  19.714  0.00  0.00    +0.000 OA
ATOM     25  H   UNL     1       3.008   2.817  19.400  0.00  0.00    +0.000 HD
ENDBRANCH   2  24
BRANCH   4  26
ATOM     26  C   UNL     1       5.920   3.834  15.826  0.00  0.00    +0.000 C 
BRANCH  26  27
ATOM     27  C   UNL     1       6.364   4.092  14.415  0.00  0.00    +0.000 A 
ATOM     28  C   UNL     1       7.365   5.034  14.143  0.00  0.00    +0.000 A 
ATOM     29  C   UNL     1       7.818   5.222  12.838  0.00  0.00    +0.000 A 
ATOM     30  C   UNL     1       7.267   4.473  11.796  0.00  0.00    +0.000 A 
ATOM     31  C   UNL     1       6.268   3.541  12.058  0.00  0.00    +0.000 A 
ATOM     32  C   UNL     1       5.818   3.350  13.365  0.00  0.00    +0.000 A 
ENDBRANCH  26  27
ENDBRANCH   4  26
TORSDOF 6
ENDMDL
MODEL 9
REMARK VINA RESULT:      -8.4      1.806      2.465
REMARK  Name = 
REMARK  6 active torsions:
REMARK  status: ('A' for Active; 'I' for Inactive)
REMARK    1  A    between atoms: C_2  and  C_15
REMARK    2  A    between atoms: N_3  and  C_4
REMARK    3  A    between atoms: C_7  and  N_8
REMARK    4  A    between atoms: C_16  and  O_17
REMARK    5  A    between atoms: C_19  and  C_20
REMARK    6  A    between atoms: C_20  and  C_21
REMARK                            x       y       z     vdW  Elec       q    Type
REMARK                         _______ _______ _______ _____ _____    ______ ____
ROOT
ATOM      1  C   UNL     1       6.857   6.706  16.786  0.00  0.00    +0.000 C 
ATOM      2  C   UNL     1       7.187   5.471  16.340  0.00  0.00    +0.000 C 
ATOM      3  C   UNL     1       6.577   4.181  16.900  0.00  0.00    +0.000 C 
ATOM      4  C   UNL     1       5.617   4.366  18.125  0.00  0.00    +0.000 C 
ATOM      5  N   UNL     1       5.537   5.773  18.517  0.00  0.00    +0.000 N 
ATOM      6  C   UNL     1       5.504   6.584  17.397  0.00  0.00    +0.000 C 
ATOM      7  O   UNL     1       4.511   7.027  16.839  0.00  0.00    +0.000 OA
ATOM      8  H   UNL     1       6.334   5.970  19.117  0.00  0.00    +0.000 HD
ENDROOT
BRANCH   1  10
ATOM      9  O   UNL     1       7.993   7.002  18.874  0.00  0.00    +0.000 OA
ATOM     10  C   UNL     1       7.776   7.432  17.749  0.00  0.00    +0.000 C 
ATOM     11  N   UNL     1       8.073   8.694  17.260  0.00  0.00    +0.000 N 
ATOM     12  H   UNL     1       7.821   8.868  16.291  0.00  0.00    +0.000 HD
BRANCH  11  13
ATOM     13  C   UNL     1       8.424   9.856  17.986  0.00  0.00    +0.000 A 
ATOM     14  C   UNL     1       8.248  11.160  17.539  0.00  0.00    +0.000 A 
ATOM     15  C   UNL     1       8.687  12.252  18.321  0.00  0.00    +0.000 A 
ATOM     16  C   UNL     1       9.315  12.050  19.558  0.00  0.00    +0.000 A 
ATOM     17  C   UNL     1       9.491  10.734  20.006  0.00  0.00    +0.000 A 
ATOM     18  C   UNL     1       9.048   9.657  19.223  0.00  0.00    +0.000 A 
BRANCH  16  19
ATOM     19  N   UNL     1       9.764  13.149  20.349  0.00  0.00    +0.000 N 
ATOM     20  C   UNL     1       9.427  13.439  21.658  0.00  0.00    +0.000 A 
ATOM     21  C   UNL     1      10.118  14.581  21.994  0.00  0.00    +0.000 A 
ATOM     22  N   UNL     1      10.872  15.030  20.940  0.00  0.00    +0.000 NA
ATOM     23  C   UNL     1      10.635  14.150  19.977  0.00  0.00    +0.000 A 
ENDBRANCH  16  19
ENDBRANCH  11  13
ENDBRANCH   1  10
BRANCH   2  24
ATOM     24  O   UNL     1       7.607   5.308  15.012  0.00  0.00    +0.000 OA
ATOM     25  H   UNL     1       8.583   5.320  14.976  0.00  0.00    +0.000 HD
ENDBRANCH   2  24
BRANCH   4  26
ATOM     26  C   UNL     1       4.180   3.858  17.926  0.00  0.00    +0.000 C 
BRANCH  26  27
ATOM     27  C   UNL     1       3.342   3.778  19.170  0.00  0.00    +0.000 A 
ATOM     28  C   UNL     1       2.267   4.656  19.363  0.00  0.00    +0.000 A 
ATOM     29  C   UNL     1       1.452   4.535  20.488  0.00  0.00    +0.000 A 
ATOM     30  C   UNL     1       1.714   3.538  21.431  0.00  0.00    +0.000 A 
ATOM     31  C   UNL     1       2.784   2.668  21.249  0.00  0.00    +0.000 A 
ATOM     32  C   UNL     1       3.596   2.787  20.120  0.00  0.00    +0.000 A 
ENDBRANCH  26  27
ENDBRANCH   4  26
TORSDOF 6
ENDMDL
