MODEL 1
REMARK VINA RESULT:      -8.6      0.000      0.000
REMARK  Name = 
REMARK  7 active torsions:
REMARK  status: ('A' for Active; 'I' for Inactive)
REMARK    1  A    between atoms: C_1  and  C_2
REMARK    2  A    between atoms: C_2  and  N_3
REMARK    3  A    between atoms: N_3  and  C_23
REMARK    4  A    between atoms: C_4  and  C_6
REMARK    5  A    between atoms: C_6  and  O_7
REMARK    6  A    between atoms: O_7  and  C_8
REMARK    7  A    between atoms: C_8  and  C_10
REMARK                            x       y       z     vdW  Elec       q    Type
REMARK                         _______ _______ _______ _____ _____    ______ ____
ROOT
ATOM      1  C   UNL     1       2.736   5.313  19.165  0.00  0.00    +0.000 C 
ATOM      2  O   UNL     1       2.265   4.481  18.409  0.00  0.00    +0.000 OA
ENDROOT
BRANCH   1   3
ATOM      3  C   UNL     1       2.292   6.729  19.197  0.00  0.00    +0.000 A 
ATOM      4  C   UNL     1       2.613   7.615  18.163  0.00  0.00    +0.000 A 
ATOM      5  C   UNL     1       2.159   8.933  18.178  0.00  0.00    +0.000 A 
ATOM      6  C   UNL     1       1.385   9.341  19.269  0.00  0.00    +0.000 A 
ATOM      7  N   UNL     1       0.853  10.577  19.548  0.00  0.00    +0.000 N 
ATOM      8  C   UNL     1       0.213  10.541  20.753  0.00  0.00    +0.000 A 
ATOM      9  C   UNL     1       0.272   9.251  21.241  0.00  0.00    +0.000 A 
ATOM     10  C   UNL     1       1.035   8.481  20.316  0.00  0.00    +0.000 A 
ATOM     11  C   UNL     1       1.484   7.150  20.272  0.00  0.00    +0.000 A 
ATOM     12  C   UNL     1      -0.345   8.881  22.547  0.00  0.00    +0.000 C 
ATOM     13  C   UNL     1      -0.476  10.127  23.445  0.00  0.00    +0.000 C 
ATOM     14  C   UNL     1      -1.132  11.306  22.700  0.00  0.00    +0.000 C 
ATOM     15  C   UNL     1      -0.360  11.727  21.435  0.00  0.00    +0.000 C 
ATOM     16  H   UNL     1       0.974  11.396  18.972  0.00  0.00    +0.000 HD
ENDBRANCH   1   3
BRANCH   1  17
ATOM     17  O   UNL     1       3.799   5.132  19.989  0.00  0.00    +0.000 OA
BRANCH  17  18
ATOM     18  C   UNL     1       4.884   4.431  19.390  0.00  0.00    +0.000 C 
BRANCH  18  20
ATOM     19  N   UNL     1       6.211   5.908  17.799  0.00  0.00    +0.000 N 
ATOM     20  C   UNL     1       6.145   5.264  19.061  0.00  0.00    +0.000 C 
ATOM     21  O   UNL     1       7.019   5.384  19.922  0.00  0.00    +0.000 OA
BRANCH  19  22
ATOM     22  C   UNL     1       5.311   5.473  16.694  0.00  0.00    +0.000 C 
ATOM     23  C   UNL     1       5.232   3.940  16.557  0.00  0.00    +0.000 C 
ATOM     24  C   UNL     1       6.333   3.493  15.617  0.00  0.00    +0.000 C 
ATOM     25  S   UNL     1       6.402   4.756  14.371  0.00  0.00    +0.000 S 
ATOM     26  O   UNL     1       5.549   4.360  13.271  0.00  0.00    +0.000 OA
ATOM     27  O   UNL     1       7.782   5.142  14.177  0.00  0.00    +0.000 OA
ATOM     28  C   UNL     1       5.563   6.035  15.292  0.00  0.00    +0.000 C 
ENDBRANCH  19  22
BRANCH  19  30
ATOM     29  C   UNL     1       7.464   8.144  17.516  0.00  0.00    +0.000 C 
ATOM     30  C   UNL     1       7.458   6.621  17.447  0.00  0.00    +0.000 C 
ENDBRANCH  19  30
ENDBRANCH  18  20
ENDBRANCH  17  18
ENDBRANCH   1  17
TORSDOF 6
ENDMDL
MODEL 2
REMARK VINA RESULT:      -8.0      2.159      3.783
REMARK  Name = 
REMARK  7 active torsions:
REMARK  status: ('A' for Active; 'I' for Inactive)
REMARK    1  A    between atoms: C_1  and  C_2
REMARK    2  A    between atoms: C_2  and  N_3
REMARK    3  A    between atoms: N_3  and  C_23
REMARK    4  A    between atoms: C_4  and  C_6
REMARK    5  A    between atoms: C_6  and  O_7
REMARK    6  A    between atoms: O_7  and  C_8
REMARK    7  A    between atoms: C_8  and  C_10
REMARK                            x       y       z     vdW  Elec       q    Type
REMARK                         _______ _______ _______ _____ _____    ______ ____
ROOT
ATOM      1  C   UNL     1       1.754   8.788  18.641  0.00  0.00    +0.000 C 
ATOM      2  O   UNL     1       1.811   9.471  17.634  0.00  0.00    +0.000 OA
ENDROOT
BRANCH   1   3
ATOM      3  C   UNL     1       1.058   9.218  19.879  0.00  0.00    +0.000 A 
ATOM      4  C   UNL     1       1.306   8.593  21.107  0.00  0.00    +0.000 A 
ATOM      5  C   UNL     1       0.681   9.029  22.275  0.00  0.00    +0.000 A 
ATOM      6  C   UNL     1      -0.212  10.101  22.173  0.00  0.00    +0.000 A 
ATOM      7  N   UNL     1      -0.981  10.691  23.147  0.00  0.00    +0.000 N 
ATOM      8  C   UNL     1      -1.752  11.670  22.592  0.00  0.00    +0.000 A 
ATOM      9  C   UNL     1      -1.441  11.766  21.250  0.00  0.00    +0.000 A 
ATOM     10  C   UNL     1      -0.477  10.756  20.966  0.00  0.00    +0.000 A 
ATOM     11  C   UNL     1       0.179  10.317  19.803  0.00  0.00    +0.000 A 
ATOM     12  C   UNL     1      -2.114  12.755  20.361  0.00  0.00    +0.000 C 
ATOM     13  C   UNL     1      -3.482  13.155  20.949  0.00  0.00    +0.000 C 
ATOM     14  C   UNL     1      -3.376  13.548  22.435  0.00  0.00    +0.000 C 
ATOM     15  C   UNL     1      -2.804  12.424  23.320  0.00  0.00    +0.000 C 
ATOM     16  H   UNL     1      -1.008  10.398  24.111  0.00  0.00    +0.000 HD
ENDBRANCH   1   3
BRANCH   1  17
ATOM     17  O   UNL     1       2.403   7.613  18.848  0.00  0.00    +0.000 OA
BRANCH  17  18
ATOM     18  C   UNL     1       2.095   6.604  17.892  0.00  0.00    +0.000 C 
BRANCH  18  20
ATOM     19  N   UNL     1       3.789   4.706  17.908  0.00  0.00    +0.000 N 
ATOM     20  C   UNL     1       2.492   5.157  18.264  0.00  0.00    +0.000 C 
ATOM     21  O   UNL     1       1.694   4.468  18.902  0.00  0.00    +0.000 OA
BRANCH  19  22
ATOM     22  C   UNL     1       4.573   5.437  16.873  0.00  0.00    +0.000 C 
ATOM     23  C   UNL     1       5.555   4.525  16.113  0.00  0.00    +0.000 C 
ATOM     24  C   UNL     1       6.869   4.514  16.865  0.00  0.00    +0.000 C 
ATOM     25  S   UNL     1       7.066   6.178  17.451  0.00  0.00    +0.000 S 
ATOM     26  O   UNL     1       7.838   6.918  16.475  0.00  0.00    +0.000 OA
ATOM     27  O   UNL     1       7.427   6.138  18.851  0.00  0.00    +0.000 OA
ATOM     28  C   UNL     1       5.359   6.679  17.303  0.00  0.00    +0.000 C 
ENDBRANCH  19  22
BRANCH  19  30
ATOM     29  C   UNL     1       4.513   2.898  19.599  0.00  0.00    +0.000 C 
ATOM     30  C   UNL     1       4.132   3.292  18.176  0.00  0.00    +0.000 C 
ENDBRANCH  19  30
ENDBRANCH  18  20
ENDBRANCH  17  18
ENDBRANCH   1  17
TORSDOF 6
ENDMDL
MODEL 3
REMARK VINA RESULT:      -7.9      3.062      4.319
REMARK  Name = 
REMARK  7 active torsions:
REMARK  status: ('A' for Active; 'I' for Inactive)
REMARK    1  A    between atoms: C_1  and  C_2
REMARK    2  A    between atoms: C_2  and  N_3
REMARK    3  A    between atoms: N_3  and  C_23
REMARK    4  A    between atoms: C_4  and  C_6
REMARK    5  A    between atoms: C_6  and  O_7
REMARK    6  A    between atoms: O_7  and  C_8
REMARK    7  A    between atoms: C_8  and  C_10
REMARK                            x       y       z     vdW  Elec       q    Type
REMARK                         _______ _______ _______ _____ _____    ______ ____
ROOT
ATOM      1  C   UNL     1       1.641   9.481  18.273  0.00  0.00    +0.000 C 
ATOM      2  O   UNL     1       2.368   9.974  17.428  0.00  0.00    +0.000 OA
ENDROOT
BRANCH   1   3
ATOM      3  C   UNL     1       0.561  10.233  18.959  0.00  0.00    +0.000 A 
ATOM      4  C   UNL     1       0.743  10.756  20.244  0.00  0.00    +0.000 A 
ATOM      5  C   UNL     1      -0.259  11.498  20.868  0.00  0.00    +0.000 A 
ATOM      6  C   UNL     1      -1.456  11.687  20.169  0.00  0.00    +0.000 A 
ATOM      7  N   UNL     1      -2.603  12.334  20.564  0.00  0.00    +0.000 N 
ATOM      8  C   UNL     1      -3.550  12.228  19.587  0.00  0.00    +0.000 A 
ATOM      9  C   UNL     1      -2.997  11.558  18.513  0.00  0.00    +0.000 A 
ATOM     10  C   UNL     1      -1.671  11.189  18.880  0.00  0.00    +0.000 A 
ATOM     11  C   UNL     1      -0.640  10.462  18.260  0.00  0.00    +0.000 A 
ATOM     12  C   UNL     1      -3.782  11.286  17.275  0.00  0.00    +0.000 C 
ATOM     13  C   UNL     1      -5.291  11.295  17.589  0.00  0.00    +0.000 C 
ATOM     14  C   UNL     1      -5.704  12.547  18.387  0.00  0.00    +0.000 C 
ATOM     15  C   UNL     1      -4.954  12.687  19.725  0.00  0.00    +0.000 C 
ATOM     16  H   UNL     1      -2.736  12.766  21.466  0.00  0.00    +0.000 HD
ENDBRANCH   1   3
BRANCH   1  17
ATOM     17  O   UNL     1       1.769   8.241  18.812  0.00  0.00    +0.000 OA
BRANCH  17  18
ATOM     18  C   UNL     1       2.845   7.482  18.272  0.00  0.00    +0.000 C 
BRANCH  18  20
ATOM     19  N   UNL     1       3.872   5.166  18.037  0.00  0.00    +0.000 N 
ATOM     20  C   UNL     1       2.903   5.988  18.667  0.00  0.00    +0.000 C 
ATOM     21  O   UNL     1       2.147   5.579  19.550  0.00  0.00    +0.000 OA
BRANCH  19  22
ATOM     22  C   UNL     1       4.519   5.614  16.772  0.00  0.00    +0.000 C 
ATOM     23  C   UNL     1       4.589   4.499  15.711  0.00  0.00    +0.000 C 
ATOM     24  C   UNL     1       5.883   3.737  15.910  0.00  0.00    +0.000 C 
ATOM     25  S   UNL     1       7.072   4.978  16.354  0.00  0.00    +0.000 S 
ATOM     26  O   UNL     1       7.734   5.428  15.147  0.00  0.00    +0.000 OA
ATOM     27  O   UNL     1       7.807   4.524  17.513  0.00  0.00    +0.000 OA
ATOM     28  C   UNL     1       5.914   6.241  16.855  0.00  0.00    +0.000 C 
ENDBRANCH  19  22
BRANCH  19  30
ATOM     29  C   UNL     1       4.765   3.209  19.460  0.00  0.00    +0.000 C 
ATOM     30  C   UNL     1       3.860   3.719  18.343  0.00  0.00    +0.000 C 
ENDBRANCH  19  30
ENDBRANCH  18  20
ENDBRANCH  17  18
ENDBRANCH   1  17
TORSDOF 6
ENDMDL
MODEL 4
REMARK VINA RESULT:      -7.8      2.932      4.255
REMARK  Name = 
REMARK  7 active torsions:
REMARK  status: ('A' for Active; 'I' for Inactive)
REMARK    1  A    between atoms: C_1  and  C_2
REMARK    2  A    between atoms: C_2  and  N_3
REMARK    3  A    between atoms: N_3  and  C_23
REMARK    4  A    between atoms: C_4  and  C_6
REMARK    5  A    between atoms: C_6  and  O_7
REMARK    6  A    between atoms: O_7  and  C_8
REMARK    7  A    between atoms: C_8  and  C_10
REMARK                            x       y       z     vdW  Elec       q    Type
REMARK                         _______ _______ _______ _____ _____    ______ ____
ROOT
ATOM      1  C   UNL     1       1.646   8.857  18.345  0.00  0.00    +0.000 C 
ATOM      2  O   UNL     1       2.256   9.132  17.327  0.00  0.00    +0.000 OA
ENDROOT
BRANCH   1   3
ATOM      3  C   UNL     1       0.637   9.756  18.958  0.00  0.00    +0.000 A 
ATOM      4  C   UNL     1       0.883  10.405  20.173  0.00  0.00    +0.000 A 
ATOM      5  C   UNL     1      -0.052  11.281  20.724  0.00  0.00    +0.000 A 
ATOM      6  C   UNL     1      -1.249  11.475  20.027  0.00  0.00    +0.000 A 
ATOM      7  N   UNL     1      -2.340  12.240  20.364  0.00  0.00    +0.000 N 
ATOM      8  C   UNL     1      -3.313  12.093  19.419  0.00  0.00    +0.000 A 
ATOM      9  C   UNL     1      -2.833  11.270  18.420  0.00  0.00    +0.000 A 
ATOM     10  C   UNL     1      -1.527  10.851  18.806  0.00  0.00    +0.000 A 
ATOM     11  C   UNL     1      -0.563   9.989  18.256  0.00  0.00    +0.000 A 
ATOM     12  C   UNL     1      -3.662  10.917  17.233  0.00  0.00    +0.000 C 
ATOM     13  C   UNL     1      -5.160  11.067  17.566  0.00  0.00    +0.000 C 
ATOM     14  C   UNL     1      -5.468  12.427  18.224  0.00  0.00    +0.000 C 
ATOM     15  C   UNL     1      -4.679  12.662  19.526  0.00  0.00    +0.000 C 
ATOM     16  H   UNL     1      -2.421  12.779  21.213  0.00  0.00    +0.000 HD
ENDBRANCH   1   3
BRANCH   1  17
ATOM     17  O   UNL     1       1.867   7.781  19.143  0.00  0.00    +0.000 OA
BRANCH  17  18
ATOM     18  C   UNL     1       3.021   7.025  18.791  0.00  0.00    +0.000 C 
BRANCH  18  20
ATOM     19  N   UNL     1       3.898   4.803  17.915  0.00  0.00    +0.000 N 
ATOM     20  C   UNL     1       2.774   5.583  18.289  0.00  0.00    +0.000 C 
ATOM     21  O   UNL     1       1.622   5.146  18.284  0.00  0.00    +0.000 OA
BRANCH  19  22
ATOM     22  C   UNL     1       5.201   5.466  17.627  0.00  0.00    +0.000 C 
ATOM     23  C   UNL     1       5.075   6.607  16.598  0.00  0.00    +0.000 C 
ATOM     24  C   UNL     1       5.256   6.017  15.214  0.00  0.00    +0.000 C 
ATOM     25  S   UNL     1       6.515   4.781  15.412  0.00  0.00    +0.000 S 
ATOM     26  O   UNL     1       7.798   5.387  15.125  0.00  0.00    +0.000 OA
ATOM     27  O   UNL     1       6.075   3.563  14.770  0.00  0.00    +0.000 OA
ATOM     28  C   UNL     1       6.376   4.590  17.182  0.00  0.00    +0.000 C 
ENDBRANCH  19  22
BRANCH  19  30
ATOM     29  C   UNL     1       3.623   2.266  18.289  0.00  0.00    +0.000 C 
ATOM     30  C   UNL     1       3.653   3.462  17.342  0.00  0.00    +0.000 C 
ENDBRANCH  19  30
ENDBRANCH  18  20
ENDBRANCH  17  18
ENDBRANCH   1  17
TORSDOF 6
ENDMDL
MODEL 5
REMARK VINA RESULT:      -7.7      5.074      9.619
REMARK  Name = 
REMARK  7 active torsions:
REMARK  status: ('A' for Active; 'I' for Inactive)
REMARK    1  A    between atoms: C_1  and  C_2
REMARK    2  A    between atoms: C_2  and  N_3
REMARK    3  A    between atoms: N_3  and  C_23
REMARK    4  A    between atoms: C_4  and  C_6
REMARK    5  A    between atoms: C_6  and  O_7
REMARK    6  A    between atoms: O_7  and  C_8
REMARK    7  A    between atoms: C_8  and  C_10
REMARK                            x       y       z     vdW  Elec       q    Type
REMARK                         _______ _______ _______ _____ _____    ______ ____
ROOT
ATOM      1  C   UNL     1       0.551  10.588  18.393  0.00  0.00    +0.000 C 
ATOM      2  O   UNL     1      -0.628  10.643  18.089  0.00  0.00    +0.000 OA
ENDROOT
BRANCH   1   3
ATOM      3  C   UNL     1       1.195   9.370  18.944  0.00  0.00    +0.000 A 
ATOM      4  C   UNL     1       0.891   8.904  20.229  0.00  0.00    +0.000 A 
ATOM      5  C   UNL     1       1.467   7.736  20.726  0.00  0.00    +0.000 A 
ATOM      6  C   UNL     1       2.370   7.056  19.902  0.00  0.00    +0.000 A 
ATOM      7  N   UNL     1       3.099   5.920  20.159  0.00  0.00    +0.000 N 
ATOM      8  C   UNL     1       3.900   5.637  19.091  0.00  0.00    +0.000 A 
ATOM      9  C   UNL     1       3.648   6.562  18.097  0.00  0.00    +0.000 A 
ATOM     10  C   UNL     1       2.691   7.485  18.610  0.00  0.00    +0.000 A 
ATOM     11  C   UNL     1       2.083   8.653  18.118  0.00  0.00    +0.000 A 
ATOM     12  C   UNL     1       4.365   6.520  16.791  0.00  0.00    +0.000 C 
ATOM     13  C   UNL     1       5.708   5.780  16.945  0.00  0.00    +0.000 C 
ATOM     14  C   UNL     1       5.540   4.427  17.665  0.00  0.00    +0.000 C 
ATOM     15  C   UNL     1       4.924   4.562  19.070  0.00  0.00    +0.000 C 
ATOM     16  H   UNL     1       3.083   5.413  21.031  0.00  0.00    +0.000 HD
ENDBRANCH   1   3
BRANCH   1  17
ATOM     17  O   UNL     1       1.422  11.629  18.406  0.00  0.00    +0.000 OA
BRANCH  17  18
ATOM     18  C   UNL     1       0.967  12.757  19.145  0.00  0.00    +0.000 C 
BRANCH  18  20
ATOM     19  N   UNL     1      -0.658  12.590  21.096  0.00  0.00    +0.000 N 
ATOM     20  C   UNL     1       0.687  12.529  20.649  0.00  0.00    +0.000 C 
ATOM     21  O   UNL     1       1.629  12.248  21.392  0.00  0.00    +0.000 OA
BRANCH  19  22
ATOM     22  C   UNL     1      -1.694  13.245  20.250  0.00  0.00    +0.000 C 
ATOM     23  C   UNL     1      -2.044  14.667  20.728  0.00  0.00    +0.000 C 
ATOM     24  C   UNL     1      -3.169  14.564  21.738  0.00  0.00    +0.000 C 
ATOM     25  S   UNL     1      -4.214  13.271  21.115  0.00  0.00    +0.000 S 
ATOM     26  O   UNL     1      -5.246  13.872  20.297  0.00  0.00    +0.000 OA
ATOM     27  O   UNL     1      -4.519  12.359  22.196  0.00  0.00    +0.000 OA
ATOM     28  C   UNL     1      -3.020  12.509  20.030  0.00  0.00    +0.000 C 
ENDBRANCH  19  22
BRANCH  19  30
ATOM     29  C   UNL     1      -1.319  11.108  23.100  0.00  0.00    +0.000 C 
ATOM     30  C   UNL     1      -0.913  12.470  22.548  0.00  0.00    +0.000 C 
ENDBRANCH  19  30
ENDBRANCH  18  20
ENDBRANCH  17  18
ENDBRANCH   1  17
TORSDOF 6
ENDMDL
MODEL 6
REMARK VINA RESULT:      -7.7      3.656      8.931
REMARK  Name = 
REMARK  7 active torsions:
REMARK  status: ('A' for Active; 'I' for Inactive)
REMARK    1  A    between atoms: C_1  and  C_2
REMARK    2  A    between atoms: C_2  and  N_3
REMARK    3  A    between atoms: N_3  and  C_23
REMARK    4  A    between atoms: C_4  and  C_6
REMARK    5  A    between atoms: C_6  and  O_7
REMARK    6  A    between atoms: O_7  and  C_8
REMARK    7  A    between atoms: C_8  and  C_10
REMARK                            x       y       z     vdW  Elec       q    Type
REMARK                         _______ _______ _______ _____ _____    ______ ____
ROOT
ATOM      1  C   UNL     1       3.638   5.351  18.878  0.00  0.00    +0.000 C 
ATOM      2  O   UNL     1       3.104   4.294  19.164  0.00  0.00    +0.000 OA
ENDROOT
BRANCH   1   3
ATOM      3  C   UNL     1       4.732   5.469  17.882  0.00  0.00    +0.000 A 
ATOM      4  C   UNL     1       5.881   6.223  18.149  0.00  0.00    +0.000 A 
ATOM      5  C   UNL     1       6.924   6.296  17.227  0.00  0.00    +0.000 A 
ATOM      6  C   UNL     1       6.775   5.602  16.022  0.00  0.00    +0.000 A 
ATOM      7  N   UNL     1       7.621   5.541  14.940  0.00  0.00    +0.000 N 
ATOM      8  C   UNL     1       7.051   4.791  13.953  0.00  0.00    +0.000 A 
ATOM      9  C   UNL     1       5.845   4.303  14.415  0.00  0.00    +0.000 A 
ATOM     10  C   UNL     1       5.647   4.831  15.724  0.00  0.00    +0.000 A 
ATOM     11  C   UNL     1       4.615   4.752  16.675  0.00  0.00    +0.000 A 
ATOM     12  C   UNL     1       4.976   3.437  13.567  0.00  0.00    +0.000 C 
ATOM     13  C   UNL     1       5.285   3.672  12.075  0.00  0.00    +0.000 C 
ATOM     14  C   UNL     1       6.797   3.601  11.784  0.00  0.00    +0.000 C 
ATOM     15  C   UNL     1       7.618   4.624  12.592  0.00  0.00    +0.000 C 
ATOM     16  H   UNL     1       8.501   6.029  14.873  0.00  0.00    +0.000 HD
ENDBRANCH   1   3
BRANCH   1  17
ATOM     17  O   UNL     1       3.428   6.545  19.491  0.00  0.00    +0.000 OA
BRANCH  17  18
ATOM     18  C   UNL     1       2.152   7.117  19.222  0.00  0.00    +0.000 C 
BRANCH  18  20
ATOM     19  N   UNL     1       1.495   9.553  18.892  0.00  0.00    +0.000 N 
ATOM     20  C   UNL     1       2.140   8.405  18.366  0.00  0.00    +0.000 C 
ATOM     21  O   UNL     1       2.736   8.406  17.287  0.00  0.00    +0.000 OA
BRANCH  19  22
ATOM     22  C   UNL     1       0.527   9.412  20.017  0.00  0.00    +0.000 C 
ATOM     23  C   UNL     1      -0.863   9.987  19.683  0.00  0.00    +0.000 C 
ATOM     24  C   UNL     1      -0.876  11.451  20.072  0.00  0.00    +0.000 C 
ATOM     25  S   UNL     1       0.069  11.526  21.573  0.00  0.00    +0.000 S 
ATOM     26  O   UNL     1      -0.842  11.407  22.692  0.00  0.00    +0.000 OA
ATOM     27  O   UNL     1       1.025  12.606  21.467  0.00  0.00    +0.000 OA
ATOM     28  C   UNL     1       0.924   9.970  21.387  0.00  0.00    +0.000 C 
ENDBRANCH  19  22
BRANCH  19  30
ATOM     29  C   UNL     1       2.350  11.913  18.301  0.00  0.00    +0.000 C 
ATOM     30  C   UNL     1       1.398  10.752  18.032  0.00  0.00    +0.000 C 
ENDBRANCH  19  30
ENDBRANCH  18  20
ENDBRANCH  17  18
ENDBRANCH   1  17
TORSDOF 6
ENDMDL
MODEL 7
REMARK VINA RESULT:      -7.7      1.999      3.633
REMARK  Name = 
REMARK  7 active torsions:
REMARK  status: ('A' for Active; 'I' for Inactive)
REMARK    1  A    between atoms: C_1  and  C_2
REMARK    2  A    between atoms: C_2  and  N_3
REMARK    3  A    between atoms: N_3  and  C_23
REMARK    4  A    between atoms: C_4  and  C_6
REMARK    5  A    between atoms: C_6  and  O_7
REMARK    6  A    between atoms: O_7  and  C_8
REMARK    7  A    between atoms: C_8  and  C_10
REMARK                            x       y       z     vdW  Elec       q    Type
REMARK                         _______ _______ _______ _____ _____    ______ ____
ROOT
ATOM      1  C   UNL     1       1.726   9.042  18.277  0.00  0.00    +0.000 C 
ATOM      2  O   UNL     1       2.298   9.876  17.597  0.00  0.00    +0.000 OA
ENDROOT
BRANCH   1   3
ATOM      3  C   UNL     1       1.061   9.357  19.566  0.00  0.00    +0.000 A 
ATOM      4  C   UNL     1       1.322   8.611  20.721  0.00  0.00    +0.000 A 
ATOM      5  C   UNL     1       0.726   8.937  21.938  0.00  0.00    +0.000 A 
ATOM      6  C   UNL     1      -0.152  10.026  21.960  0.00  0.00    +0.000 A 
ATOM      7  N   UNL     1      -0.893  10.528  23.003  0.00  0.00    +0.000 N 
ATOM      8  C   UNL     1      -1.660  11.568  22.564  0.00  0.00    +0.000 A 
ATOM      9  C   UNL     1      -1.372  11.791  21.232  0.00  0.00    +0.000 A 
ATOM     10  C   UNL     1      -0.429  10.802  20.829  0.00  0.00    +0.000 A 
ATOM     11  C   UNL     1       0.198  10.470  19.616  0.00  0.00    +0.000 A 
ATOM     12  C   UNL     1      -2.047  12.872  20.458  0.00  0.00    +0.000 C 
ATOM     13  C   UNL     1      -3.397  13.231  21.110  0.00  0.00    +0.000 C 
ATOM     14  C   UNL     1      -3.256  13.474  22.626  0.00  0.00    +0.000 C 
ATOM     15  C   UNL     1      -2.685  12.260  23.383  0.00  0.00    +0.000 C 
ATOM     16  H   UNL     1      -0.907  10.141  23.935  0.00  0.00    +0.000 HD
ENDBRANCH   1   3
BRANCH   1  17
ATOM     17  O   UNL     1       1.710   7.703  18.053  0.00  0.00    +0.000 OA
BRANCH  17  18
ATOM     18  C   UNL     1       2.979   7.075  18.203  0.00  0.00    +0.000 C 
BRANCH  18  20
ATOM     19  N   UNL     1       4.233   4.862  18.167  0.00  0.00    +0.000 N 
ATOM     20  C   UNL     1       2.983   5.529  18.234  0.00  0.00    +0.000 C 
ATOM     21  O   UNL     1       1.912   4.935  18.372  0.00  0.00    +0.000 OA
BRANCH  19  22
ATOM     22  C   UNL     1       5.439   5.588  17.677  0.00  0.00    +0.000 C 
ATOM     23  C   UNL     1       5.116   6.586  16.548  0.00  0.00    +0.000 C 
ATOM     24  C   UNL     1       5.221   5.854  15.226  0.00  0.00    +0.000 C 
ATOM     25  S   UNL     1       6.600   4.754  15.429  0.00  0.00    +0.000 S 
ATOM     26  O   UNL     1       7.791   5.422  14.948  0.00  0.00    +0.000 OA
ATOM     27  O   UNL     1       6.216   3.438  14.971  0.00  0.00    +0.000 OA
ATOM     28  C   UNL     1       6.642   4.762  17.213  0.00  0.00    +0.000 C 
ENDBRANCH  19  22
BRANCH  19  30
ATOM     29  C   UNL     1       4.251   2.599  19.405  0.00  0.00    +0.000 C 
ATOM     30  C   UNL     1       4.230   3.384  18.098  0.00  0.00    +0.000 C 
ENDBRANCH  19  30
ENDBRANCH  18  20
ENDBRANCH  17  18
ENDBRANCH   1  17
TORSDOF 6
ENDMDL
MODEL 8
REMARK VINA RESULT:      -7.7      2.210      3.955
REMARK  Name = 
REMARK  7 active torsions:
REMARK  status: ('A' for Active; 'I' for Inactive)
REMARK    1  A    between atoms: C_1  and  C_2
REMARK    2  A    between atoms: C_2  and  N_3
REMARK    3  A    between atoms: N_3  and  C_23
REMARK    4  A    between atoms: C_4  and  C_6
REMARK    5  A    between atoms: C_6  and  O_7
REMARK    6  A    between atoms: O_7  and  C_8
REMARK    7  A    between atoms: C_8  and  C_10
REMARK                            x       y       z     vdW  Elec       q    Type
REMARK                         _______ _______ _______ _____ _____    ______ ____
ROOT
ATOM      1  C   UNL     1       1.429   8.963  19.314  0.00  0.00    +0.000 C 
ATOM      2  O   UNL     1       1.602   9.566  18.269  0.00  0.00    +0.000 OA
ENDROOT
BRANCH   1   3
ATOM      3  C   UNL     1       0.604   9.488  20.431  0.00  0.00    +0.000 A 
ATOM      4  C   UNL     1       0.381   8.733  21.588  0.00  0.00    +0.000 A 
ATOM      5  C   UNL     1      -0.360   9.247  22.651  0.00  0.00    +0.000 A 
ATOM      6  C   UNL     1      -0.884  10.536  22.514  0.00  0.00    +0.000 A 
ATOM      7  N   UNL     1      -1.673  11.254  23.381  0.00  0.00    +0.000 N 
ATOM      8  C   UNL     1      -2.003  12.452  22.817  0.00  0.00    +0.000 A 
ATOM      9  C   UNL     1      -1.373  12.548  21.592  0.00  0.00    +0.000 A 
ATOM     10  C   UNL     1      -0.674  11.325  21.377  0.00  0.00    +0.000 A 
ATOM     11  C   UNL     1       0.094  10.797  20.325  0.00  0.00    +0.000 A 
ATOM     12  C   UNL     1      -1.530  13.750  20.725  0.00  0.00    +0.000 C 
ATOM     13  C   UNL     1      -2.839  14.487  21.070  0.00  0.00    +0.000 C 
ATOM     14  C   UNL     1      -2.982  14.726  22.586  0.00  0.00    +0.000 C 
ATOM     15  C   UNL     1      -2.955  13.424  23.409  0.00  0.00    +0.000 C 
ATOM     16  H   UNL     1      -2.002  10.913  24.271  0.00  0.00    +0.000 HD
ENDBRANCH   1   3
BRANCH   1  17
ATOM     17  O   UNL     1       2.043   7.810  19.683  0.00  0.00    +0.000 OA
BRANCH  17  18
ATOM     18  C   UNL     1       2.460   7.000  18.589  0.00  0.00    +0.000 C 
BRANCH  18  20
ATOM     19  N   UNL     1       3.694   4.801  18.247  0.00  0.00    +0.000 N 
ATOM     20  C   UNL     1       2.621   5.488  18.871  0.00  0.00    +0.000 C 
ATOM     21  O   UNL     1       1.850   4.948  19.666  0.00  0.00    +0.000 OA
BRANCH  19  22
ATOM     22  C   UNL     1       4.377   5.402  17.067  0.00  0.00    +0.000 C 
ATOM     23  C   UNL     1       4.570   4.398  15.914  0.00  0.00    +0.000 C 
ATOM     24  C   UNL     1       5.896   3.694  16.117  0.00  0.00    +0.000 C 
ATOM     25  S   UNL     1       6.982   4.953  16.739  0.00  0.00    +0.000 S 
ATOM     26  O   UNL     1       7.676   5.552  15.618  0.00  0.00    +0.000 OA
ATOM     27  O   UNL     1       7.683   4.434  17.892  0.00  0.00    +0.000 OA
ATOM     28  C   UNL     1       5.725   6.096  17.286  0.00  0.00    +0.000 C 
ENDBRANCH  19  22
BRANCH  19  30
ATOM     29  C   UNL     1       4.504   2.816  19.681  0.00  0.00    +0.000 C 
ATOM     30  C   UNL     1       3.788   3.338  18.440  0.00  0.00    +0.000 C 
ENDBRANCH  19  30
ENDBRANCH  18  20
ENDBRANCH  17  18
ENDBRANCH   1  17
TORSDOF 6
ENDMDL
MODEL 9
REMARK VINA RESULT:      -7.7      2.566      4.327
REMARK  Name = 
REMARK  7 active torsions:
REMARK  status: ('A' for Active; 'I' for Inactive)
REMARK    1  A    between atoms: C_1  and  C_2
REMARK    2  A    between atoms: C_2  and  N_3
REMARK    3  A    between atoms: N_3  and  C_23
REMARK    4  A    between atoms: C_4  and  C_6
REMARK    5  A    between atoms: C_6  and  O_7
REMARK    6  A    between atoms: O_7  and  C_8
REMARK    7  A    between atoms: C_8  and  C_10
REMARK                            x       y       z     vdW  Elec       q    Type
REMARK                         _______ _______ _______ _____ _____    ______ ____
ROOT
ATOM      1  C   UNL     1       1.877   8.848  18.237  0.00  0.00    +0.000 C 
ATOM      2  O   UNL     1       2.143   9.691  17.399  0.00  0.00    +0.000 OA
ENDROOT
BRANCH   1   3
ATOM      3  C   UNL     1       1.199   9.159  19.520  0.00  0.00    +0.000 A 
ATOM      4  C   UNL     1       1.413   8.379  20.663  0.00  0.00    +0.000 A 
ATOM      5  C   UNL     1       0.806   8.700  21.876  0.00  0.00    +0.000 A 
ATOM      6  C   UNL     1      -0.033   9.819  21.907  0.00  0.00    +0.000 A 
ATOM      7  N   UNL     1      -0.775  10.324  22.947  0.00  0.00    +0.000 N 
ATOM      8  C   UNL     1      -1.497  11.399  22.518  0.00  0.00    +0.000 A 
ATOM      9  C   UNL     1      -1.178  11.641  21.196  0.00  0.00    +0.000 A 
ATOM     10  C   UNL     1      -0.263  10.627  20.789  0.00  0.00    +0.000 A 
ATOM     11  C   UNL     1       0.375  10.300  19.579  0.00  0.00    +0.000 A 
ATOM     12  C   UNL     1      -1.800  12.761  20.434  0.00  0.00    +0.000 C 
ATOM     13  C   UNL     1      -3.148  13.153  21.070  0.00  0.00    +0.000 C 
ATOM     14  C   UNL     1      -3.027  13.358  22.593  0.00  0.00    +0.000 C 
ATOM     15  C   UNL     1      -2.513  12.109  23.334  0.00  0.00    +0.000 C 
ATOM     16  H   UNL     1      -0.819   9.918  23.870  0.00  0.00    +0.000 HD
ENDBRANCH   1   3
BRANCH   1  17
ATOM     17  O   UNL     1       2.255   7.544  18.207  0.00  0.00    +0.000 OA
BRANCH  17  18
ATOM     18  C   UNL     1       3.666   7.350  18.183  0.00  0.00    +0.000 C 
BRANCH  18  20
ATOM     19  N   UNL     1       4.078   4.946  17.461  0.00  0.00    +0.000 N 
ATOM     20  C   UNL     1       4.204   6.326  17.157  0.00  0.00    +0.000 C 
ATOM     21  O   UNL     1       4.670   6.739  16.094  0.00  0.00    +0.000 OA
BRANCH  19  22
ATOM     22  C   UNL     1       3.822   4.513  18.864  0.00  0.00    +0.000 C 
ATOM     23  C   UNL     1       4.460   3.149  19.193  0.00  0.00    +0.000 C 
ATOM     24  C   UNL     1       3.460   2.064  18.849  0.00  0.00    +0.000 C 
ATOM     25  S   UNL     1       1.886   2.739  19.315  0.00  0.00    +0.000 S 
ATOM     26  O   UNL     1       1.595   2.326  20.672  0.00  0.00    +0.000 OA
ATOM     27  O   UNL     1       0.953   2.534  18.230  0.00  0.00    +0.000 OA
ATOM     28  C   UNL     1       2.371   4.457  19.350  0.00  0.00    +0.000 C 
ENDBRANCH  19  22
BRANCH  19  30
ATOM     29  C   UNL     1       6.170   4.087  16.222  0.00  0.00    +0.000 C 
ATOM     30  C   UNL     1       4.681   3.970  16.527  0.00  0.00    +0.000 C 
ENDBRANCH  19  30
ENDBRANCH  18  20
ENDBRANCH  17  18
ENDBRANCH   1  17
TORSDOF 6
ENDMDL
