MODEL 1
REMARK VINA RESULT:      -8.0      0.000      0.000
REMARK  Name = 
REMARK  6 active torsions:
REMARK  status: ('A' for Active; 'I' for Inactive)
REMARK    1  A    between atoms: C_2  and  C_18
REMARK    2  A    between atoms: N_3  and  N_4
REMARK    3  A    between atoms: C_5  and  C_6
REMARK    4  A    between atoms: C_5  and  C_12
REMARK    5  A    between atoms: C_18  and  C_19
REMARK    6  A    between atoms: C_18  and  C_21
REMARK                            x       y       z     vdW  Elec       q    Type
REMARK                         _______ _______ _______ _____ _____    ______ ____
ROOT
ATOM      1  N   UNL     1       2.959   7.797  18.040  0.00  0.00    +0.000 NA
ATOM      2  C   UNL     1       3.203   6.516  18.155  0.00  0.00    +0.000 C 
ENDROOT
BRANCH   2   3
ATOM      3  C   UNL     1       2.311   5.451  18.731  0.00  0.00    +0.000 A 
ATOM      4  C   UNL     1       1.806   4.415  17.935  0.00  0.00    +0.000 A 
ATOM      5  C   UNL     1       1.085   3.364  18.513  0.00  0.00    +0.000 A 
ATOM      6  C   UNL     1       0.922   3.297  19.895  0.00  0.00    +0.000 A 
ATOM      7  C   UNL     1       1.422   4.314  20.700  0.00  0.00    +0.000 A 
ATOM      8  C   UNL     1       2.072   5.404  20.117  0.00  0.00    +0.000 A 
ENDBRANCH   2   3
BRANCH   2   9
ATOM      9  C   UNL     1       4.557   6.054  17.619  0.00  0.00    +0.000 A 
ATOM     10  C   UNL     1       5.455   5.400  18.472  0.00  0.00    +0.000 A 
ATOM     11  C   UNL     1       6.660   4.888  17.976  0.00  0.00    +0.000 A 
ATOM     12  C   UNL     1       6.979   5.023  16.624  0.00  0.00    +0.000 A 
ATOM     13  C   UNL     1       6.111   5.700  15.773  0.00  0.00    +0.000 A 
ATOM     14  C   UNL     1       4.919   6.237  16.272  0.00  0.00    +0.000 A 
ENDBRANCH   2   9
BRANCH   1  17
ATOM     15  O   UNL     1       2.413  10.460  17.614  0.00  0.00    +0.000 OA
ATOM     16  C   UNL     1       1.583   9.734  18.175  0.00  0.00    +0.000 C 
ATOM     17  N   UNL     1       1.809   8.399  18.484  0.00  0.00    +0.000 N 
ATOM     18  H   UNL     1       1.162   7.876  19.063  0.00  0.00    +0.000 HD
BRANCH  16  19
ATOM     19  C   UNL     1       0.167  10.307  18.423  0.00  0.00    +0.000 C 
BRANCH  19  20
ATOM     20  C   UNL     1      -0.272  10.569  19.897  0.00  0.00    +0.000 C 
ATOM     21  C   UNL     1       0.880  11.103  20.772  0.00  0.00    +0.000 C 
ATOM     22  C   UNL     1       1.315  12.527  20.406  0.00  0.00    +0.000 C 
ATOM     23  C   UNL     1       0.158  13.523  20.328  0.00  0.00    +0.000 C 
ATOM     24  C   UNL     1      -1.056  12.986  19.574  0.00  0.00    +0.000 C 
ATOM     25  C   UNL     1      -1.438  11.579  20.034  0.00  0.00    +0.000 C 
ENDBRANCH  19  20
BRANCH  19  26
ATOM     26  C   UNL     1      -0.828   9.488  17.587  0.00  0.00    +0.000 C 
ATOM     27 CL   UNL     1      -2.070  10.484  16.789  0.00  0.00    +0.000 Cl
ENDBRANCH  19  26
ENDBRANCH  16  19
ENDBRANCH   1  17
TORSDOF 6
ENDMDL
MODEL 2
REMARK VINA RESULT:      -7.9      1.413      2.455
REMARK  Name = 
REMARK  6 active torsions:
REMARK  status: ('A' for Active; 'I' for Inactive)
REMARK    1  A    between atoms: C_2  and  C_18
REMARK    2  A    between atoms: N_3  and  N_4
REMARK    3  A    between atoms: C_5  and  C_6
REMARK    4  A    between atoms: C_5  and  C_12
REMARK    5  A    between atoms: C_18  and  C_19
REMARK    6  A    between atoms: C_18  and  C_21
REMARK                            x       y       z     vdW  Elec       q    Type
REMARK                         _______ _______ _______ _____ _____    ______ ____
ROOT
ATOM      1  N   UNL     1       2.887   7.538  18.302  0.00  0.00    +0.000 NA
ATOM      2  C   UNL     1       3.127   6.254  18.369  0.00  0.00    +0.000 C 
ENDROOT
BRANCH   2   3
ATOM      3  C   UNL     1       2.235   5.171  18.912  0.00  0.00    +0.000 A 
ATOM      4  C   UNL     1       1.694   4.186  18.076  0.00  0.00    +0.000 A 
ATOM      5  C   UNL     1       0.974   3.115  18.617  0.00  0.00    +0.000 A 
ATOM      6  C   UNL     1       0.847   2.976  19.997  0.00  0.00    +0.000 A 
ATOM      7  C   UNL     1       1.384   3.942  20.841  0.00  0.00    +0.000 A 
ATOM      8  C   UNL     1       2.034   5.053  20.299  0.00  0.00    +0.000 A 
ENDBRANCH   2   3
BRANCH   2   9
ATOM      9  C   UNL     1       4.476   5.808  17.807  0.00  0.00    +0.000 A 
ATOM     10  C   UNL     1       4.828   6.146  16.494  0.00  0.00    +0.000 A 
ATOM     11  C   UNL     1       6.096   5.825  15.995  0.00  0.00    +0.000 A 
ATOM     12  C   UNL     1       7.025   5.167  16.802  0.00  0.00    +0.000 A 
ATOM     13  C   UNL     1       6.676   4.796  18.097  0.00  0.00    +0.000 A 
ATOM     14  C   UNL     1       5.399   5.091  18.589  0.00  0.00    +0.000 A 
ENDBRANCH   2   9
BRANCH   1  17
ATOM     15  O   UNL     1       2.050  10.031  17.490  0.00  0.00    +0.000 OA
ATOM     16  C   UNL     1       1.358   9.363  18.269  0.00  0.00    +0.000 C 
ATOM     17  N   UNL     1       1.741   8.127  18.775  0.00  0.00    +0.000 N 
ATOM     18  H   UNL     1       1.214   7.675  19.513  0.00  0.00    +0.000 HD
BRANCH  16  19
ATOM     19  C   UNL     1      -0.069   9.868  18.589  0.00  0.00    +0.000 C 
BRANCH  19  20
ATOM     20  C   UNL     1      -0.794  10.747  17.522  0.00  0.00    +0.000 C 
ATOM     21  C   UNL     1      -1.921   9.985  16.796  0.00  0.00    +0.000 C 
ATOM     22  C   UNL     1      -3.125   9.675  17.694  0.00  0.00    +0.000 C 
ATOM     23  C   UNL     1      -3.661  10.892  18.447  0.00  0.00    +0.000 C 
ATOM     24  C   UNL     1      -2.565  11.745  19.079  0.00  0.00    +0.000 C 
ATOM     25  C   UNL     1      -1.429  12.036  18.099  0.00  0.00    +0.000 C 
ENDBRANCH  19  20
BRANCH  19  26
ATOM     26  C   UNL     1      -0.057  10.454  20.008  0.00  0.00    +0.000 C 
ATOM     27 CL   UNL     1      -0.342   9.238  21.278  0.00  0.00    +0.000 Cl
ENDBRANCH  19  26
ENDBRANCH  16  19
ENDBRANCH   1  17
TORSDOF 6
ENDMDL
MODEL 3
REMARK VINA RESULT:      -7.9      4.233      6.384
REMARK  Name = 
REMARK  6 active torsions:
REMARK  status: ('A' for Active; 'I' for Inactive)
REMARK    1  A    between atoms: C_2  and  C_18
REMARK    2  A    between atoms: N_3  and  N_4
REMARK    3  A    between atoms: C_5  and  C_6
REMARK    4  A    between atoms: C_5  and  C_12
REMARK    5  A    between atoms: C_18  and  C_19
REMARK    6  A    between atoms: C_18  and  C_21
REMARK                            x       y       z     vdW  Elec       q    Type
REMARK                         _______ _______ _______ _____ _____    ______ ____
ROOT
ATOM      1  N   UNL     1       4.251   4.164  15.585  0.00  0.00    +0.000 NA
ATOM      2  C   UNL     1       5.465   4.650  15.562  0.00  0.00    +0.000 C 
ENDROOT
BRANCH   2   3
ATOM      3  C   UNL     1       6.202   5.355  16.668  0.00  0.00    +0.000 A 
ATOM      4  C   UNL     1       7.005   4.650  17.573  0.00  0.00    +0.000 A 
ATOM      5  C   UNL     1       7.783   5.334  18.513  0.00  0.00    +0.000 A 
ATOM      6  C   UNL     1       7.825   6.727  18.514  0.00  0.00    +0.000 A 
ATOM      7  C   UNL     1       7.039   7.442  17.618  0.00  0.00    +0.000 A 
ATOM      8  C   UNL     1       6.201   6.760  16.733  0.00  0.00    +0.000 A 
ENDBRANCH   2   3
BRANCH   2   9
ATOM      9  C   UNL     1       6.226   4.458  14.251  0.00  0.00    +0.000 A 
ATOM     10  C   UNL     1       5.764   3.529  13.310  0.00  0.00    +0.000 A 
ATOM     11  C   UNL     1       6.395   3.406  12.066  0.00  0.00    +0.000 A 
ATOM     12  C   UNL     1       7.490   4.212  11.749  0.00  0.00    +0.000 A 
ATOM     13  C   UNL     1       7.979   5.115  12.688  0.00  0.00    +0.000 A 
ATOM     14  C   UNL     1       7.367   5.220  13.942  0.00  0.00    +0.000 A 
ENDBRANCH   2   9
BRANCH   1  17
ATOM     15  O   UNL     1       3.984   2.156  17.448  0.00  0.00    +0.000 OA
ATOM     16  C   UNL     1       3.378   3.225  17.591  0.00  0.00    +0.000 C 
ATOM     17  N   UNL     1       3.409   4.260  16.664  0.00  0.00    +0.000 N 
ATOM     18  H   UNL     1       2.795   5.061  16.749  0.00  0.00    +0.000 HD
BRANCH  16  19
ATOM     19  C   UNL     1       2.657   3.477  18.936  0.00  0.00    +0.000 C 
BRANCH  19  20
ATOM     20  C   UNL     1       3.425   4.259  20.047  0.00  0.00    +0.000 C 
ATOM     21  C   UNL     1       4.085   5.547  19.513  0.00  0.00    +0.000 C 
ATOM     22  C   UNL     1       3.076   6.634  19.124  0.00  0.00    +0.000 C 
ATOM     23  C   UNL     1       2.047   6.937  20.212  0.00  0.00    +0.000 C 
ATOM     24  C   UNL     1       1.457   5.684  20.855  0.00  0.00    +0.000 C 
ATOM     25  C   UNL     1       2.538   4.678  21.245  0.00  0.00    +0.000 C 
ENDBRANCH  19  20
BRANCH  19  26
ATOM     26  C   UNL     1       2.032   2.150  19.394  0.00  0.00    +0.000 C 
ATOM     27 CL   UNL     1       0.346   1.941  18.859  0.00  0.00    +0.000 Cl
ENDBRANCH  19  26
ENDBRANCH  16  19
ENDBRANCH   1  17
TORSDOF 6
ENDMDL
MODEL 4
REMARK VINA RESULT:      -7.8      5.222      7.148
REMARK  Name = 
REMARK  6 active torsions:
REMARK  status: ('A' for Active; 'I' for Inactive)
REMARK    1  A    between atoms: C_2  and  C_18
REMARK    2  A    between atoms: N_3  and  N_4
REMARK    3  A    between atoms: C_5  and  C_6
REMARK    4  A    between atoms: C_5  and  C_12
REMARK    5  A    between atoms: C_18  and  C_19
REMARK    6  A    between atoms: C_18  and  C_21
REMARK                            x       y       z     vdW  Elec       q    Type
REMARK                         _______ _______ _______ _____ _____    ______ ____
ROOT
ATOM      1  N   UNL     1       5.078   3.356  16.384  0.00  0.00    +0.000 NA
ATOM      2  C   UNL     1       5.933   4.296  16.071  0.00  0.00    +0.000 C 
ENDROOT
BRANCH   2   3
ATOM      3  C   UNL     1       6.578   5.303  16.982  0.00  0.00    +0.000 A 
ATOM      4  C   UNL     1       7.418   4.904  18.029  0.00  0.00    +0.000 A 
ATOM      5  C   UNL     1       8.110   5.857  18.785  0.00  0.00    +0.000 A 
ATOM      6  C   UNL     1       8.029   7.210  18.460  0.00  0.00    +0.000 A 
ATOM      7  C   UNL     1       7.204   7.622  17.420  0.00  0.00    +0.000 A 
ATOM      8  C   UNL     1       6.451   6.679  16.716  0.00  0.00    +0.000 A 
ENDBRANCH   2   3
BRANCH   2   9
ATOM      9  C   UNL     1       6.331   4.358  14.596  0.00  0.00    +0.000 A 
ATOM     10  C   UNL     1       7.388   5.186  14.197  0.00  0.00    +0.000 A 
ATOM     11  C   UNL     1       7.825   5.186  12.867  0.00  0.00    +0.000 A 
ATOM     12  C   UNL     1       7.213   4.358  11.924  0.00  0.00    +0.000 A 
ATOM     13  C   UNL     1       6.141   3.555  12.302  0.00  0.00    +0.000 A 
ATOM     14  C   UNL     1       5.684   3.574  13.624  0.00  0.00    +0.000 A 
ENDBRANCH   2   9
BRANCH   1  17
ATOM     15  O   UNL     1       2.625   2.204  16.868  0.00  0.00    +0.000 OA
ATOM     16  C   UNL     1       3.366   2.517  17.809  0.00  0.00    +0.000 C 
ATOM     17  N   UNL     1       4.587   3.160  17.650  0.00  0.00    +0.000 N 
ATOM     18  H   UNL     1       5.099   3.521  18.446  0.00  0.00    +0.000 HD
BRANCH  16  19
ATOM     19  C   UNL     1       2.974   2.045  19.229  0.00  0.00    +0.000 C 
BRANCH  19  20
ATOM     20  C   UNL     1       1.555   2.415  19.762  0.00  0.00    +0.000 C 
ATOM     21  C   UNL     1       1.561   2.773  21.262  0.00  0.00    +0.000 C 
ATOM     22  C   UNL     1       2.274   4.094  21.572  0.00  0.00    +0.000 C 
ATOM     23  C   UNL     1       1.798   5.267  20.715  0.00  0.00    +0.000 C 
ATOM     24  C   UNL     1       1.659   4.920  19.235  0.00  0.00    +0.000 C 
ATOM     25  C   UNL     1       0.901   3.610  19.024  0.00  0.00    +0.000 C 
ENDBRANCH  19  20
BRANCH  19  26
ATOM     26  C   UNL     1       4.131   2.389  20.180  0.00  0.00    +0.000 C 
ATOM     27 CL   UNL     1       5.167   0.994  20.567  0.00  0.00    +0.000 Cl
ENDBRANCH  19  26
ENDBRANCH  16  19
ENDBRANCH   1  17
TORSDOF 6
ENDMDL
MODEL 5
REMARK VINA RESULT:      -7.7      3.916      6.586
REMARK  Name = 
REMARK  6 active torsions:
REMARK  status: ('A' for Active; 'I' for Inactive)
REMARK    1  A    between atoms: C_2  and  C_18
REMARK    2  A    between atoms: N_3  and  N_4
REMARK    3  A    between atoms: C_5  and  C_6
REMARK    4  A    between atoms: C_5  and  C_12
REMARK    5  A    between atoms: C_18  and  C_19
REMARK    6  A    between atoms: C_18  and  C_21
REMARK                            x       y       z     vdW  Elec       q    Type
REMARK                         _______ _______ _______ _____ _____    ______ ____
ROOT
ATOM      1  N   UNL     1       4.858   4.061  16.038  0.00  0.00    +0.000 NA
ATOM      2  C   UNL     1       6.006   4.648  15.818  0.00  0.00    +0.000 C 
ENDROOT
BRANCH   2   3
ATOM      3  C   UNL     1       6.863   5.404  16.796  0.00  0.00    +0.000 A 
ATOM      4  C   UNL     1       6.941   6.802  16.768  0.00  0.00    +0.000 A 
ATOM      5  C   UNL     1       7.639   7.494  17.764  0.00  0.00    +0.000 A 
ATOM      6  C   UNL     1       8.205   6.806  18.835  0.00  0.00    +0.000 A 
ATOM      7  C   UNL     1       8.132   5.419  18.882  0.00  0.00    +0.000 A 
ATOM      8  C   UNL     1       7.504   4.722  17.846  0.00  0.00    +0.000 A 
ENDBRANCH   2   3
BRANCH   2   9
ATOM      9  C   UNL     1       6.541   4.532  14.391  0.00  0.00    +0.000 A 
ATOM     10  C   UNL     1       5.963   3.614  13.506  0.00  0.00    +0.000 A 
ATOM     11  C   UNL     1       6.379   3.559  12.170  0.00  0.00    +0.000 A 
ATOM     12  C   UNL     1       7.374   4.422  11.705  0.00  0.00    +0.000 A 
ATOM     13  C   UNL     1       7.979   5.315  12.584  0.00  0.00    +0.000 A 
ATOM     14  C   UNL     1       7.584   5.353  13.926  0.00  0.00    +0.000 A 
ENDBRANCH   2   9
BRANCH   1  17
ATOM     15  O   UNL     1       3.615   6.307  17.032  0.00  0.00    +0.000 OA
ATOM     16  C   UNL     1       3.557   5.236  17.649  0.00  0.00    +0.000 C 
ATOM     17  N   UNL     1       4.210   4.077  17.248  0.00  0.00    +0.000 N 
ATOM     18  H   UNL     1       4.251   3.261  17.847  0.00  0.00    +0.000 HD
BRANCH  16  19
ATOM     19  C   UNL     1       2.595   5.145  18.858  0.00  0.00    +0.000 C 
BRANCH  19  20
ATOM     20  C   UNL     1       1.695   3.877  18.988  0.00  0.00    +0.000 C 
ATOM     21  C   UNL     1       2.511   2.568  18.965  0.00  0.00    +0.000 C 
ATOM     22  C   UNL     1       3.375   2.366  20.216  0.00  0.00    +0.000 C 
ATOM     23  C   UNL     1       2.606   2.529  21.527  0.00  0.00    +0.000 C 
ATOM     24  C   UNL     1       1.689   3.749  21.546  0.00  0.00    +0.000 C 
ATOM     25  C   UNL     1       0.840   3.845  20.279  0.00  0.00    +0.000 C 
ENDBRANCH  19  20
BRANCH  19  26
ATOM     26  C   UNL     1       1.848   6.483  18.970  0.00  0.00    +0.000 C 
ATOM     27 CL   UNL     1       1.983   7.236  20.578  0.00  0.00    +0.000 Cl
ENDBRANCH  19  26
ENDBRANCH  16  19
ENDBRANCH   1  17
TORSDOF 6
ENDMDL
MODEL 6
REMARK VINA RESULT:      -7.7      4.418      6.563
REMARK  Name = 
REMARK  6 active torsions:
REMARK  status: ('A' for Active; 'I' for Inactive)
REMARK    1  A    between atoms: C_2  and  C_18
REMARK    2  A    between atoms: N_3  and  N_4
REMARK    3  A    between atoms: C_5  and  C_6
REMARK    4  A    between atoms: C_5  and  C_12
REMARK    5  A    between atoms: C_18  and  C_19
REMARK    6  A    between atoms: C_18  and  C_21
REMARK                            x       y       z     vdW  Elec       q    Type
REMARK                         _______ _______ _______ _____ _____    ______ ____
ROOT
ATOM      1  N   UNL     1       4.847   3.825  16.127  0.00  0.00    +0.000 NA
ATOM      2  C   UNL     1       5.908   4.525  15.818  0.00  0.00    +0.000 C 
ENDROOT
BRANCH   2   3
ATOM      3  C   UNL     1       6.754   5.375  16.725  0.00  0.00    +0.000 A 
ATOM      4  C   UNL     1       6.722   6.773  16.652  0.00  0.00    +0.000 A 
ATOM      5  C   UNL     1       7.417   7.548  17.587  0.00  0.00    +0.000 A 
ATOM      6  C   UNL     1       8.091   6.941  18.645  0.00  0.00    +0.000 A 
ATOM      7  C   UNL     1       8.128   5.554  18.735  0.00  0.00    +0.000 A 
ATOM      8  C   UNL     1       7.501   4.779  17.757  0.00  0.00    +0.000 A 
ENDBRANCH   2   3
BRANCH   2   9
ATOM      9  C   UNL     1       6.341   4.450  14.354  0.00  0.00    +0.000 A 
ATOM     10  C   UNL     1       7.418   5.228  13.908  0.00  0.00    +0.000 A 
ATOM     11  C   UNL     1       7.886   5.103  12.595  0.00  0.00    +0.000 A 
ATOM     12  C   UNL     1       7.287   4.199  11.715  0.00  0.00    +0.000 A 
ATOM     13  C   UNL     1       6.196   3.445  12.137  0.00  0.00    +0.000 A 
ATOM     14  C   UNL     1       5.708   3.589  13.441  0.00  0.00    +0.000 A 
ENDBRANCH   2   9
BRANCH   1  17
ATOM     15  O   UNL     1       2.133   3.659  16.558  0.00  0.00    +0.000 OA
ATOM     16  C   UNL     1       2.920   3.642  17.514  0.00  0.00    +0.000 C 
ATOM     17  N   UNL     1       4.296   3.787  17.383  0.00  0.00    +0.000 N 
ATOM     18  H   UNL     1       4.892   3.904  18.194  0.00  0.00    +0.000 HD
BRANCH  16  19
ATOM     19  C   UNL     1       2.355   3.306  18.914  0.00  0.00    +0.000 C 
BRANCH  19  20
ATOM     20  C   UNL     1       3.024   3.973  20.156  0.00  0.00    +0.000 C 
ATOM     21  C   UNL     1       3.905   5.180  19.775  0.00  0.00    +0.000 C 
ATOM     22  C   UNL     1       3.104   6.386  19.271  0.00  0.00    +0.000 C 
ATOM     23  C   UNL     1       1.957   6.794  20.196  0.00  0.00    +0.000 C 
ATOM     24  C   UNL     1       1.131   5.612  20.697  0.00  0.00    +0.000 C 
ATOM     25  C   UNL     1       2.014   4.477  21.216  0.00  0.00    +0.000 C 
ENDBRANCH  19  20
BRANCH  19  26
ATOM     26  C   UNL     1       2.196   1.781  19.007  0.00  0.00    +0.000 C 
ATOM     27 CL   UNL     1       3.717   0.893  18.740  0.00  0.00    +0.000 Cl
ENDBRANCH  19  26
ENDBRANCH  16  19
ENDBRANCH   1  17
TORSDOF 6
ENDMDL
MODEL 7
REMARK VINA RESULT:      -7.7      1.575      2.180
REMARK  Name = 
REMARK  6 active torsions:
REMARK  status: ('A' for Active; 'I' for Inactive)
REMARK    1  A    between atoms: C_2  and  C_18
REMARK    2  A    between atoms: N_3  and  N_4
REMARK    3  A    between atoms: C_5  and  C_6
REMARK    4  A    between atoms: C_5  and  C_12
REMARK    5  A    between atoms: C_18  and  C_19
REMARK    6  A    between atoms: C_18  and  C_21
REMARK                            x       y       z     vdW  Elec       q    Type
REMARK                         _______ _______ _______ _____ _____    ______ ____
ROOT
ATOM      1  N   UNL     1       2.928   7.369  18.184  0.00  0.00    +0.000 NA
ATOM      2  C   UNL     1       3.040   6.067  18.242  0.00  0.00    +0.000 C 
ENDROOT
BRANCH   2   3
ATOM      3  C   UNL     1       2.318   5.114  19.154  0.00  0.00    +0.000 A 
ATOM      4  C   UNL     1       1.381   4.199  18.657  0.00  0.00    +0.000 A 
ATOM      5  C   UNL     1       0.815   3.236  19.500  0.00  0.00    +0.000 A 
ATOM      6  C   UNL     1       1.229   3.128  20.826  0.00  0.00    +0.000 A 
ATOM      7  C   UNL     1       2.162   4.024  21.333  0.00  0.00    +0.000 A 
ATOM      8  C   UNL     1       2.668   5.037  20.514  0.00  0.00    +0.000 A 
ENDBRANCH   2   3
BRANCH   2   9
ATOM      9  C   UNL     1       4.017   5.445  17.244  0.00  0.00    +0.000 A 
ATOM     10  C   UNL     1       4.768   6.274  16.400  0.00  0.00    +0.000 A 
ATOM     11  C   UNL     1       5.733   5.728  15.546  0.00  0.00    +0.000 A 
ATOM     12  C   UNL     1       5.960   4.350  15.528  0.00  0.00    +0.000 A 
ATOM     13  C   UNL     1       5.198   3.514  16.337  0.00  0.00    +0.000 A 
ATOM     14  C   UNL     1       4.213   4.055  17.172  0.00  0.00    +0.000 A 
ENDBRANCH   2   9
BRANCH   1  17
ATOM     15  O   UNL     1       2.101   9.922  17.575  0.00  0.00    +0.000 OA
ATOM     16  C   UNL     1       1.698   9.363  18.603  0.00  0.00    +0.000 C 
ATOM     17  N   UNL     1       2.119   8.104  19.013  0.00  0.00    +0.000 N 
ATOM     18  H   UNL     1       1.874   7.738  19.925  0.00  0.00    +0.000 HD
BRANCH  16  19
ATOM     19  C   UNL     1       0.564  10.046  19.404  0.00  0.00    +0.000 C 
BRANCH  19  20
ATOM     20  C   UNL     1       0.270  11.552  19.124  0.00  0.00    +0.000 C 
ATOM     21  C   UNL     1      -0.896  11.753  18.134  0.00  0.00    +0.000 C 
ATOM     22  C   UNL     1      -2.261  11.356  18.710  0.00  0.00    +0.000 C 
ATOM     23  C   UNL     1      -2.561  11.985  20.070  0.00  0.00    +0.000 C 
ATOM     24  C   UNL     1      -1.386  11.918  21.043  0.00  0.00    +0.000 C 
ATOM     25  C   UNL     1      -0.079  12.369  20.392  0.00  0.00    +0.000 C 
ENDBRANCH  19  20
BRANCH  19  26
ATOM     26  C   UNL     1       0.749   9.689  20.887  0.00  0.00    +0.000 C 
ATOM     27 CL   UNL     1      -0.403   8.462  21.468  0.00  0.00    +0.000 Cl
ENDBRANCH  19  26
ENDBRANCH  16  19
ENDBRANCH   1  17
TORSDOF 6
ENDMDL
MODEL 8
REMARK VINA RESULT:      -7.7      1.410      2.480
REMARK  Name = 
REMARK  6 active torsions:
REMARK  status: ('A' for Active; 'I' for Inactive)
REMARK    1  A    between atoms: C_2  and  C_18
REMARK    2  A    between atoms: N_3  and  N_4
REMARK    3  A    between atoms: C_5  and  C_6
REMARK    4  A    between atoms: C_5  and  C_12
REMARK    5  A    between atoms: C_18  and  C_19
REMARK    6  A    between atoms: C_18  and  C_21
REMARK                            x       y       z     vdW  Elec       q    Type
REMARK                         _______ _______ _______ _____ _____    ______ ____
ROOT
ATOM      1  N   UNL     1       2.814   7.701  18.069  0.00  0.00    +0.000 NA
ATOM      2  C   UNL     1       3.221   6.467  18.214  0.00  0.00    +0.000 C 
ENDROOT
BRANCH   2   3
ATOM      3  C   UNL     1       2.484   5.315  18.839  0.00  0.00    +0.000 A 
ATOM      4  C   UNL     1       2.227   5.276  20.216  0.00  0.00    +0.000 A 
ATOM      5  C   UNL     1       1.430   4.263  20.760  0.00  0.00    +0.000 A 
ATOM      6  C   UNL     1       0.822   3.322  19.931  0.00  0.00    +0.000 A 
ATOM      7  C   UNL     1       1.061   3.350  18.562  0.00  0.00    +0.000 A 
ATOM      8  C   UNL     1       1.921   4.313  18.028  0.00  0.00    +0.000 A 
ENDBRANCH   2   3
BRANCH   2   9
ATOM      9  C   UNL     1       4.614   6.164  17.662  0.00  0.00    +0.000 A 
ATOM     10  C   UNL     1       5.607   5.668  18.516  0.00  0.00    +0.000 A 
ATOM     11  C   UNL     1       6.859   5.299  18.009  0.00  0.00    +0.000 A 
ATOM     12  C   UNL     1       7.130   5.419  16.645  0.00  0.00    +0.000 A 
ATOM     13  C   UNL     1       6.163   5.942  15.792  0.00  0.00    +0.000 A 
ATOM     14  C   UNL     1       4.921   6.338  16.300  0.00  0.00    +0.000 A 
ENDBRANCH   2   9
BRANCH   1  17
ATOM     15  O   UNL     1       2.115  10.362  17.983  0.00  0.00    +0.000 OA
ATOM     16  C   UNL     1       1.306   9.516  18.386  0.00  0.00    +0.000 C 
ATOM     17  N   UNL     1       1.605   8.166  18.521  0.00  0.00    +0.000 N 
ATOM     18  H   UNL     1       0.965   7.529  18.981  0.00  0.00    +0.000 HD
BRANCH  16  19
ATOM     19  C   UNL     1      -0.156   9.964  18.624  0.00  0.00    +0.000 C 
BRANCH  19  20
ATOM     20  C   UNL     1      -0.865  10.782  17.501  0.00  0.00    +0.000 C 
ATOM     21  C   UNL     1      -1.955   9.967  16.775  0.00  0.00    +0.000 C 
ATOM     22  C   UNL     1      -3.179   9.669  17.649  0.00  0.00    +0.000 C 
ATOM     23  C   UNL     1      -3.761  10.904  18.335  0.00  0.00    +0.000 C 
ATOM     24  C   UNL     1      -2.702  11.806  18.963  0.00  0.00    +0.000 C 
ATOM     25  C   UNL     1      -1.543  12.080  18.005  0.00  0.00    +0.000 C 
ENDBRANCH  19  20
BRANCH  19  26
ATOM     26  C   UNL     1      -0.239  10.584  20.027  0.00  0.00    +0.000 C 
ATOM     27 CL   UNL     1      -0.249   9.377  21.335  0.00  0.00    +0.000 Cl
ENDBRANCH  19  26
ENDBRANCH  16  19
ENDBRANCH   1  17
TORSDOF 6
ENDMDL
MODEL 9
REMARK VINA RESULT:      -7.5      1.894      2.128
REMARK  Name = 
REMARK  6 active torsions:
REMARK  status: ('A' for Active; 'I' for Inactive)
REMARK    1  A    between atoms: C_2  and  C_18
REMARK    2  A    between atoms: N_3  and  N_4
REMARK    3  A    between atoms: C_5  and  C_6
REMARK    4  A    between atoms: C_5  and  C_12
REMARK    5  A    between atoms: C_18  and  C_19
REMARK    6  A    between atoms: C_18  and  C_21
REMARK                            x       y       z     vdW  Elec       q    Type
REMARK                         _______ _______ _______ _____ _____    ______ ____
ROOT
ATOM      1  N   UNL     1       2.701   7.759  18.562  0.00  0.00    +0.000 NA
ATOM      2  C   UNL     1       3.011   6.487  18.551  0.00  0.00    +0.000 C 
ENDROOT
BRANCH   2   3
ATOM      3  C   UNL     1       2.147   5.320  18.943  0.00  0.00    +0.000 A 
ATOM      4  C   UNL     1       1.726   4.376  17.998  0.00  0.00    +0.000 A 
ATOM      5  C   UNL     1       1.032   3.230  18.402  0.00  0.00    +0.000 A 
ATOM      6  C   UNL     1       0.815   2.976  19.755  0.00  0.00    +0.000 A 
ATOM      7  C   UNL     1       1.233   3.900  20.706  0.00  0.00    +0.000 A 
ATOM      8  C   UNL     1       1.854   5.083  20.299  0.00  0.00    +0.000 A 
ENDBRANCH   2   3
BRANCH   2   9
ATOM      9  C   UNL     1       4.421   6.158  18.062  0.00  0.00    +0.000 A 
ATOM     10  C   UNL     1       5.294   5.445  18.892  0.00  0.00    +0.000 A 
ATOM     11  C   UNL     1       6.556   5.055  18.426  0.00  0.00    +0.000 A 
ATOM     12  C   UNL     1       6.955   5.371  17.126  0.00  0.00    +0.000 A 
ATOM     13  C   UNL     1       6.109   6.107  16.303  0.00  0.00    +0.000 A 
ATOM     14  C   UNL     1       4.859   6.522  16.776  0.00  0.00    +0.000 A 
ENDBRANCH   2   9
BRANCH   1  17
ATOM     15  O   UNL     1       2.229   8.483  21.175  0.00  0.00    +0.000 OA
ATOM     16  C   UNL     1       1.355   8.646  20.314  0.00  0.00    +0.000 C 
ATOM     17  N   UNL     1       1.493   8.248  18.990  0.00  0.00    +0.000 N 
ATOM     18  H   UNL     1       0.709   8.274  18.349  0.00  0.00    +0.000 HD
BRANCH  16  19
ATOM     19  C   UNL     1       0.098   9.461  20.700  0.00  0.00    +0.000 C 
BRANCH  19  20
ATOM     20  C   UNL     1       0.252  11.001  20.899  0.00  0.00    +0.000 C 
ATOM     21  C   UNL     1       1.109  11.656  19.797  0.00  0.00    +0.000 C 
ATOM     22  C   UNL     1       0.431  11.670  18.422  0.00  0.00    +0.000 C 
ATOM     23  C   UNL     1      -0.989  12.234  18.443  0.00  0.00    +0.000 C 
ATOM     24  C   UNL     1      -1.837  11.703  19.595  0.00  0.00    +0.000 C 
ATOM     25  C   UNL     1      -1.094  11.766  20.929  0.00  0.00    +0.000 C 
ENDBRANCH  19  20
BRANCH  19  26
ATOM     26  C   UNL     1      -0.606   8.727  21.852  0.00  0.00    +0.000 C 
ATOM     27 CL   UNL     1      -0.206   9.384  23.458  0.00  0.00    +0.000 Cl
ENDBRANCH  19  26
ENDBRANCH  16  19
ENDBRANCH   1  17
TORSDOF 6
ENDMDL
