MODEL 1
REMARK VINA RESULT:      -9.0      0.000      0.000
REMARK  Name = 
REMARK  7 active torsions:
REMARK  status: ('A' for Active; 'I' for Inactive)
REMARK    1  A    between atoms: N_1  and  C_2
REMARK    2  A    between atoms: C_7  and  O_8
REMARK    3  A    between atoms: O_8  and  C_9
REMARK    4  A    between atoms: C_12  and  C_13
REMARK    5  A    between atoms: N_18  and  C_19
REMARK    6  A    between atoms: C_23  and  S_24
REMARK    7  A    between atoms: S_24  and  N_25
REMARK                            x       y       z     vdW  Elec       q    Type
REMARK                         _______ _______ _______ _____ _____    ______ ____
ROOT
ATOM      1  C   UNL     1       1.282   8.531  20.744  0.00  0.00    +0.000 A 
ATOM      2  C   UNL     1       1.571   8.693  22.083  0.00  0.00    +0.000 A 
ATOM      3  C   UNL     1       0.988   9.767  22.708  0.00  0.00    +0.000 A 
ATOM      4  N   UNL     1       0.179  10.640  22.088  0.00  0.00    +0.000 NA
ATOM      5  C   UNL     1      -0.055  10.416  20.788  0.00  0.00    +0.000 A 
ATOM      6  N   UNL     1      -0.876  11.335  20.130  0.00  0.00    +0.000 N 
ATOM      7  N   UNL     1       0.466   9.384  20.100  0.00  0.00    +0.000 NA
ATOM      8  H   UNL     1      -1.288  11.949  20.819  0.00  0.00    +0.000 HD
ENDROOT
BRANCH   1  12
ATOM      9  C   UNL     1       2.888   5.267  18.436  0.00  0.00    +0.000 A 
ATOM     10  C   UNL     1       2.883   6.558  17.912  0.00  0.00    +0.000 A 
ATOM     11  C   UNL     1       2.371   7.628  18.657  0.00  0.00    +0.000 A 
ATOM     12  C   UNL     1       1.849   7.425  19.952  0.00  0.00    +0.000 A 
ATOM     13  C   UNL     1       1.882   6.117  20.458  0.00  0.00    +0.000 A 
ATOM     14  C   UNL     1       2.339   5.043  19.700  0.00  0.00    +0.000 A 
BRANCH   9  15
ATOM     15  O   UNL     1       3.431   4.293  17.641  0.00  0.00    +0.000 OA
BRANCH  15  21
ATOM     16  C   UNL     1       5.886   4.514  17.988  0.00  0.00    +0.000 A 
ATOM     17  C   UNL     1       7.123   4.654  17.342  0.00  0.00    +0.000 A 
ATOM     18  C   UNL     1       7.220   4.720  15.950  0.00  0.00    +0.000 A 
ATOM     19  C   UNL     1       6.076   4.602  15.171  0.00  0.00    +0.000 A 
ATOM     20  C   UNL     1       4.837   4.423  15.789  0.00  0.00    +0.000 A 
ATOM     21  C   UNL     1       4.736   4.354  17.189  0.00  0.00    +0.000 A 
BRANCH  16  22
ATOM     22  N   UNL     1       5.910   4.319  19.379  0.00  0.00    +0.000 N 
ATOM     23  H   UNL     1       5.320   3.569  19.717  0.00  0.00    +0.000 HD
ATOM     24  H   UNL     1       6.838   4.305  19.789  0.00  0.00    +0.000 HD
ENDBRANCH  16  22
ENDBRANCH  15  21
ENDBRANCH   9  15
ENDBRANCH   1  12
BRANCH   6  25
ATOM     25  C   UNL     1      -1.694  11.048  19.027  0.00  0.00    +0.000 A 
ATOM     26  C   UNL     1      -1.182  10.308  17.956  0.00  0.00    +0.000 A 
ATOM     27  C   UNL     1      -1.989   9.973  16.862  0.00  0.00    +0.000 A 
ATOM     28  C   UNL     1      -3.312  10.404  16.815  0.00  0.00    +0.000 A 
ATOM     29  C   UNL     1      -3.804  11.192  17.856  0.00  0.00    +0.000 A 
ATOM     30  C   UNL     1      -3.006  11.518  18.950  0.00  0.00    +0.000 A 
BRANCH  29  31
ATOM     31  S   UNL     1      -5.429  11.860  17.774  0.00  0.00    +0.000 S 
ATOM     32  O   UNL     1      -5.592  12.576  16.524  0.00  0.00    +0.000 OA
ATOM     33  O   UNL     1      -6.385  10.889  18.241  0.00  0.00    +0.000 OA
BRANCH  31  34
ATOM     34  N   UNL     1      -5.296  13.019  18.979  0.00  0.00    +0.000 NA
ATOM     35  H   UNL     1      -6.207  13.297  19.332  0.00  0.00    +0.000 HD
ATOM     36  H   UNL     1      -4.594  12.759  19.669  0.00  0.00    +0.000 HD
ENDBRANCH  31  34
ENDBRANCH  29  31
ENDBRANCH   6  25
TORSDOF 7
ENDMDL
MODEL 2
REMARK VINA RESULT:      -8.8      4.783      6.230
REMARK  Name = 
REMARK  7 active torsions:
REMARK  status: ('A' for Active; 'I' for Inactive)
REMARK    1  A    between atoms: N_1  and  C_2
REMARK    2  A    between atoms: C_7  and  O_8
REMARK    3  A    between atoms: O_8  and  C_9
REMARK    4  A    between atoms: C_12  and  C_13
REMARK    5  A    between atoms: N_18  and  C_19
REMARK    6  A    between atoms: C_23  and  S_24
REMARK    7  A    between atoms: S_24  and  N_25
REMARK                            x       y       z     vdW  Elec       q    Type
REMARK                         _______ _______ _______ _____ _____    ______ ____
ROOT
ATOM      1  C   UNL     1       0.385  10.430  18.677  0.00  0.00    +0.000 A 
ATOM      2  C   UNL     1      -0.847  10.387  18.058  0.00  0.00    +0.000 A 
ATOM      3  C   UNL     1      -1.476  11.591  17.866  0.00  0.00    +0.000 A 
ATOM      4  N   UNL     1      -0.960  12.770  18.248  0.00  0.00    +0.000 NA
ATOM      5  C   UNL     1       0.240  12.731  18.841  0.00  0.00    +0.000 A 
ATOM      6  N   UNL     1       0.772  13.951  19.265  0.00  0.00    +0.000 N 
ATOM      7  N   UNL     1       0.931  11.598  19.061  0.00  0.00    +0.000 NA
ATOM      8  H   UNL     1       0.199  14.697  18.896  0.00  0.00    +0.000 HD
ENDROOT
BRANCH   1  12
ATOM      9  C   UNL     1       2.708   6.886  19.455  0.00  0.00    +0.000 A 
ATOM     10  C   UNL     1       1.963   7.473  20.478  0.00  0.00    +0.000 A 
ATOM     11  C   UNL     1       1.198   8.621  20.233  0.00  0.00    +0.000 A 
ATOM     12  C   UNL     1       1.163   9.209  18.951  0.00  0.00    +0.000 A 
ATOM     13  C   UNL     1       1.911   8.586  17.940  0.00  0.00    +0.000 A 
ATOM     14  C   UNL     1       2.715   7.479  18.191  0.00  0.00    +0.000 A 
BRANCH   9  15
ATOM     15  O   UNL     1       3.404   5.754  19.788  0.00  0.00    +0.000 OA
BRANCH  15  21
ATOM     16  C   UNL     1       4.146   3.736  18.533  0.00  0.00    +0.000 A 
ATOM     17  C   UNL     1       3.711   2.581  17.867  0.00  0.00    +0.000 A 
ATOM     18  C   UNL     1       2.354   2.267  17.755  0.00  0.00    +0.000 A 
ATOM     19  C   UNL     1       1.403   3.088  18.347  0.00  0.00    +0.000 A 
ATOM     20  C   UNL     1       1.814   4.223  19.048  0.00  0.00    +0.000 A 
ATOM     21  C   UNL     1       3.177   4.541  19.166  0.00  0.00    +0.000 A 
BRANCH  16  22
ATOM     22  N   UNL     1       5.531   3.888  18.711  0.00  0.00    +0.000 N 
ATOM     23  H   UNL     1       5.979   4.528  18.069  0.00  0.00    +0.000 HD
ATOM     24  H   UNL     1       5.821   4.028  19.674  0.00  0.00    +0.000 HD
ENDBRANCH  16  22
ENDBRANCH  15  21
ENDBRANCH   9  15
ENDBRANCH   1  12
BRANCH   6  25
ATOM     25  C   UNL     1       2.139  14.249  19.365  0.00  0.00    +0.000 A 
ATOM     26  C   UNL     1       2.893  14.457  18.205  0.00  0.00    +0.000 A 
ATOM     27  C   UNL     1       4.249  14.797  18.278  0.00  0.00    +0.000 A 
ATOM     28  C   UNL     1       4.875  14.900  19.517  0.00  0.00    +0.000 A 
ATOM     29  C   UNL     1       4.137  14.634  20.671  0.00  0.00    +0.000 A 
ATOM     30  C   UNL     1       2.785  14.307  20.601  0.00  0.00    +0.000 A 
BRANCH  29  31
ATOM     31  S   UNL     1       4.921  14.633  22.246  0.00  0.00    +0.000 S 
ATOM     32  O   UNL     1       4.975  13.277  22.755  0.00  0.00    +0.000 OA
ATOM     33  O   UNL     1       6.070  15.500  22.225  0.00  0.00    +0.000 OA
BRANCH  31  34
ATOM     34  N   UNL     1       3.736  15.430  23.127  0.00  0.00    +0.000 NA
ATOM     35  H   UNL     1       3.507  16.330  22.717  0.00  0.00    +0.000 HD
ATOM     36  H   UNL     1       2.957  14.812  23.345  0.00  0.00    +0.000 HD
ENDBRANCH  31  34
ENDBRANCH  29  31
ENDBRANCH   6  25
TORSDOF 7
ENDMDL
MODEL 3
REMARK VINA RESULT:      -8.8      0.663      1.185
REMARK  Name = 
REMARK  7 active torsions:
REMARK  status: ('A' for Active; 'I' for Inactive)
REMARK    1  A    between atoms: N_1  and  C_2
REMARK    2  A    between atoms: C_7  and  O_8
REMARK    3  A    between atoms: O_8  and  C_9
REMARK    4  A    between atoms: C_12  and  C_13
REMARK    5  A    between atoms: N_18  and  C_19
REMARK    6  A    between atoms: C_23  and  S_24
REMARK    7  A    between atoms: S_24  and  N_25
REMARK                            x       y       z     vdW  Elec       q    Type
REMARK                         _______ _______ _______ _____ _____    ______ ____
ROOT
ATOM      1  C   UNL     1       1.258   8.591  20.784  0.00  0.00    +0.000 A 
ATOM      2  C   UNL     1       1.548   8.688  22.130  0.00  0.00    +0.000 A 
ATOM      3  C   UNL     1       0.966   9.731  22.806  0.00  0.00    +0.000 A 
ATOM      4  N   UNL     1       0.157  10.634  22.228  0.00  0.00    +0.000 NA
ATOM      5  C   UNL     1      -0.078  10.472  20.920  0.00  0.00    +0.000 A 
ATOM      6  N   UNL     1      -0.899  11.421  20.307  0.00  0.00    +0.000 N 
ATOM      7  N   UNL     1       0.442   9.474  20.182  0.00  0.00    +0.000 NA
ATOM      8  H   UNL     1      -1.310  12.003  21.024  0.00  0.00    +0.000 HD
ENDROOT
BRANCH   1  12
ATOM      9  C   UNL     1       2.960   5.500  18.313  0.00  0.00    +0.000 A 
ATOM     10  C   UNL     1       2.430   5.183  19.563  0.00  0.00    +0.000 A 
ATOM     11  C   UNL     1       1.867   6.180  20.371  0.00  0.00    +0.000 A 
ATOM     12  C   UNL     1       1.823   7.523  19.941  0.00  0.00    +0.000 A 
ATOM     13  C   UNL     1       2.351   7.807  18.671  0.00  0.00    +0.000 A 
ATOM     14  C   UNL     1       2.960   6.830  17.890  0.00  0.00    +0.000 A 
BRANCH   9  15
ATOM     15  O   UNL     1       3.467   4.453  17.588  0.00  0.00    +0.000 OA
BRANCH  15  21
ATOM     16  C   UNL     1       5.939   4.568  17.853  0.00  0.00    +0.000 A 
ATOM     17  C   UNL     1       7.159   4.652  17.164  0.00  0.00    +0.000 A 
ATOM     18  C   UNL     1       7.211   4.711  15.769  0.00  0.00    +0.000 A 
ATOM     19  C   UNL     1       6.038   4.642  15.030  0.00  0.00    +0.000 A 
ATOM     20  C   UNL     1       4.814   4.518  15.690  0.00  0.00    +0.000 A 
ATOM     21  C   UNL     1       4.757   4.456  17.093  0.00  0.00    +0.000 A 
BRANCH  16  22
ATOM     22  N   UNL     1       6.001   4.374  19.242  0.00  0.00    +0.000 N 
ATOM     23  H   UNL     1       5.919   5.217  19.797  0.00  0.00    +0.000 HD
ATOM     24  H   UNL     1       5.424   3.615  19.590  0.00  0.00    +0.000 HD
ENDBRANCH  16  22
ENDBRANCH  15  21
ENDBRANCH   9  15
ENDBRANCH   1  12
BRANCH   6  25
ATOM     25  C   UNL     1      -1.718  11.188  19.192  0.00  0.00    +0.000 A 
ATOM     26  C   UNL     1      -1.216  10.478  18.097  0.00  0.00    +0.000 A 
ATOM     27  C   UNL     1      -2.025  10.195  16.989  0.00  0.00    +0.000 A 
ATOM     28  C   UNL     1      -3.340  10.650  16.954  0.00  0.00    +0.000 A 
ATOM     29  C   UNL     1      -3.821  11.410  18.021  0.00  0.00    +0.000 A 
ATOM     30  C   UNL     1      -3.022  11.683  19.128  0.00  0.00    +0.000 A 
BRANCH  29  31
ATOM     31  S   UNL     1      -5.434  12.109  17.957  0.00  0.00    +0.000 S 
ATOM     32  O   UNL     1      -5.626  12.979  19.099  0.00  0.00    +0.000 OA
ATOM     33  O   UNL     1      -5.742  12.516  16.610  0.00  0.00    +0.000 OA
BRANCH  31  34
ATOM     34  N   UNL     1      -6.330  10.721  18.254  0.00  0.00    +0.000 NA
ATOM     35  H   UNL     1      -6.919  10.480  17.461  0.00  0.00    +0.000 HD
ATOM     36  H   UNL     1      -5.749   9.979  18.637  0.00  0.00    +0.000 HD
ENDBRANCH  31  34
ENDBRANCH  29  31
ENDBRANCH   6  25
TORSDOF 7
ENDMDL
MODEL 4
REMARK VINA RESULT:      -8.7      4.536      5.972
REMARK  Name = 
REMARK  7 active torsions:
REMARK  status: ('A' for Active; 'I' for Inactive)
REMARK    1  A    between atoms: N_1  and  C_2
REMARK    2  A    between atoms: C_7  and  O_8
REMARK    3  A    between atoms: O_8  and  C_9
REMARK    4  A    between atoms: C_12  and  C_13
REMARK    5  A    between atoms: N_18  and  C_19
REMARK    6  A    between atoms: C_23  and  S_24
REMARK    7  A    between atoms: S_24  and  N_25
REMARK                            x       y       z     vdW  Elec       q    Type
REMARK                         _______ _______ _______ _____ _____    ______ ____
ROOT
ATOM      1  C   UNL     1       0.170  10.411  18.750  0.00  0.00    +0.000 A 
ATOM      2  C   UNL     1      -0.981  10.350  17.991  0.00  0.00    +0.000 A 
ATOM      3  C   UNL     1      -1.706  11.511  17.888  0.00  0.00    +0.000 A 
ATOM      4  N   UNL     1      -1.355  12.663  18.480  0.00  0.00    +0.000 NA
ATOM      5  C   UNL     1      -0.225  12.643  19.199  0.00  0.00    +0.000 A 
ATOM      6  N   UNL     1       0.133  13.832  19.839  0.00  0.00    +0.000 N 
ATOM      7  N   UNL     1       0.552  11.555  19.345  0.00  0.00    +0.000 NA
ATOM      8  H   UNL     1      -0.472  14.571  19.508  0.00  0.00    +0.000 HD
ENDROOT
BRANCH   1  12
ATOM      9  C   UNL     1       2.748   7.005  19.309  0.00  0.00    +0.000 A 
ATOM     10  C   UNL     1       1.979   7.482  20.370  0.00  0.00    +0.000 A 
ATOM     11  C   UNL     1       1.132   8.584  20.196  0.00  0.00    +0.000 A 
ATOM     12  C   UNL     1       1.036   9.236  18.948  0.00  0.00    +0.000 A 
ATOM     13  C   UNL     1       1.811   8.722  17.896  0.00  0.00    +0.000 A 
ATOM     14  C   UNL     1       2.695   7.663  18.079  0.00  0.00    +0.000 A 
BRANCH   9  15
ATOM     15  O   UNL     1       3.527   5.909  19.572  0.00  0.00    +0.000 OA
BRANCH  15  21
ATOM     16  C   UNL     1       4.160   3.693  18.630  0.00  0.00    +0.000 A 
ATOM     17  C   UNL     1       3.664   2.512  18.059  0.00  0.00    +0.000 A 
ATOM     18  C   UNL     1       2.297   2.316  17.848  0.00  0.00    +0.000 A 
ATOM     19  C   UNL     1       1.390   3.288  18.248  0.00  0.00    +0.000 A 
ATOM     20  C   UNL     1       1.855   4.457  18.854  0.00  0.00    +0.000 A 
ATOM     21  C   UNL     1       3.229   4.656  19.071  0.00  0.00    +0.000 A 
BRANCH  16  22
ATOM     22  N   UNL     1       5.531   3.734  18.927  0.00  0.00    +0.000 N 
ATOM     23  H   UNL     1       6.060   2.925  18.626  0.00  0.00    +0.000 HD
ATOM     24  H   UNL     1       5.988   4.611  18.697  0.00  0.00    +0.000 HD
ENDBRANCH  16  22
ENDBRANCH  15  21
ENDBRANCH   9  15
ENDBRANCH   1  12
BRANCH   6  25
ATOM     25  C   UNL     1       1.445  14.231  20.137  0.00  0.00    +0.000 A 
ATOM     26  C   UNL     1       1.852  14.340  21.471  0.00  0.00    +0.000 A 
ATOM     27  C   UNL     1       3.168  14.696  21.795  0.00  0.00    +0.000 A 
ATOM     28  C   UNL     1       4.082  14.978  20.784  0.00  0.00    +0.000 A 
ATOM     29  C   UNL     1       3.657  14.927  19.455  0.00  0.00    +0.000 A 
ATOM     30  C   UNL     1       2.354  14.563  19.130  0.00  0.00    +0.000 A 
BRANCH  29  31
ATOM     31  S   UNL     1       4.747  15.397  18.157  0.00  0.00    +0.000 S 
ATOM     32  O   UNL     1       5.255  16.730  18.414  0.00  0.00    +0.000 OA
ATOM     33  O   UNL     1       5.605  14.294  17.809  0.00  0.00    +0.000 OA
BRANCH  31  34
ATOM     34  N   UNL     1       3.626  15.541  16.916  0.00  0.00    +0.000 NA
ATOM     35  H   UNL     1       3.456  16.514  16.678  0.00  0.00    +0.000 HD
ATOM     36  H   UNL     1       3.840  14.910  16.147  0.00  0.00    +0.000 HD
ENDBRANCH  31  34
ENDBRANCH  29  31
ENDBRANCH   6  25
TORSDOF 7
ENDMDL
MODEL 5
REMARK VINA RESULT:      -8.7      3.400      4.990
REMARK  Name = 
REMARK  7 active torsions:
REMARK  status: ('A' for Active; 'I' for Inactive)
REMARK    1  A    between atoms: N_1  and  C_2
REMARK    2  A    between atoms: C_7  and  O_8
REMARK    3  A    between atoms: O_8  and  C_9
REMARK    4  A    between atoms: C_12  and  C_13
REMARK    5  A    between atoms: N_18  and  C_19
REMARK    6  A    between atoms: C_23  and  S_24
REMARK    7  A    between atoms: S_24  and  N_25
REMARK                            x       y       z     vdW  Elec       q    Type
REMARK                         _______ _______ _______ _____ _____    ______ ____
ROOT
ATOM      1  C   UNL     1       3.235   5.279  19.232  0.00  0.00    +0.000 A 
ATOM      2  C   UNL     1       2.760   4.078  19.718  0.00  0.00    +0.000 A 
ATOM      3  C   UNL     1       1.775   4.152  20.670  0.00  0.00    +0.000 A 
ATOM      4  N   UNL     1       1.275   5.307  21.136  0.00  0.00    +0.000 NA
ATOM      5  C   UNL     1       1.786   6.430  20.616  0.00  0.00    +0.000 A 
ATOM      6  N   UNL     1       1.288   7.636  21.115  0.00  0.00    +0.000 N 
ATOM      7  N   UNL     1       2.745   6.451  19.673  0.00  0.00    +0.000 NA
ATOM      8  H   UNL     1       0.488   7.438  21.699  0.00  0.00    +0.000 HD
ENDROOT
BRANCH   1  12
ATOM      9  C   UNL     1       6.353   5.520  16.269  0.00  0.00    +0.000 A 
ATOM     10  C   UNL     1       6.364   4.496  17.214  0.00  0.00    +0.000 A 
ATOM     11  C   UNL     1       5.351   4.404  18.177  0.00  0.00    +0.000 A 
ATOM     12  C   UNL     1       4.298   5.343  18.213  0.00  0.00    +0.000 A 
ATOM     13  C   UNL     1       4.306   6.352  17.239  0.00  0.00    +0.000 A 
ATOM     14  C   UNL     1       5.340   6.479  16.316  0.00  0.00    +0.000 A 
BRANCH   9  15
ATOM     15  O   UNL     1       7.374   5.511  15.355  0.00  0.00    +0.000 OA
BRANCH  15  21
ATOM     16  C   UNL     1       7.917   5.301  12.935  0.00  0.00    +0.000 A 
ATOM     17  C   UNL     1       7.585   4.640  11.743  0.00  0.00    +0.000 A 
ATOM     18  C   UNL     1       6.563   3.687  11.692  0.00  0.00    +0.000 A 
ATOM     19  C   UNL     1       5.879   3.345  12.852  0.00  0.00    +0.000 A 
ATOM     20  C   UNL     1       6.218   3.960  14.058  0.00  0.00    +0.000 A 
ATOM     21  C   UNL     1       7.246   4.917  14.114  0.00  0.00    +0.000 A 
BRANCH  16  22
ATOM     22  N   UNL     1       9.046   6.134  12.910  0.00  0.00    +0.000 N 
ATOM     23  H   UNL     1       9.319   6.461  11.991  0.00  0.00    +0.000 HD
ATOM     24  H   UNL     1       9.042   6.874  13.605  0.00  0.00    +0.000 HD
ENDBRANCH  16  22
ENDBRANCH  15  21
ENDBRANCH   9  15
ENDBRANCH   1  12
BRANCH   6  25
ATOM     25  C   UNL     1       1.216   8.842  20.401  0.00  0.00    +0.000 A 
ATOM     26  C   UNL     1       1.559   8.868  19.045  0.00  0.00    +0.000 A 
ATOM     27  C   UNL     1       1.456  10.049  18.299  0.00  0.00    +0.000 A 
ATOM     28  C   UNL     1       1.038  11.226  18.914  0.00  0.00    +0.000 A 
ATOM     29  C   UNL     1       0.755  11.212  20.280  0.00  0.00    +0.000 A 
ATOM     30  C   UNL     1       0.846  10.036  21.021  0.00  0.00    +0.000 A 
BRANCH  29  31
ATOM     31  S   UNL     1       0.346  12.703  21.118  0.00  0.00    +0.000 S 
ATOM     32  O   UNL     1       1.563  13.397  21.487  0.00  0.00    +0.000 OA
ATOM     33  O   UNL     1      -0.749  13.359  20.450  0.00  0.00    +0.000 OA
BRANCH  31  34
ATOM     34  N   UNL     1      -0.280  12.046  22.529  0.00  0.00    +0.000 NA
ATOM     35  H   UNL     1      -1.294  12.100  22.550  0.00  0.00    +0.000 HD
ATOM     36  H   UNL     1       0.137  11.139  22.733  0.00  0.00    +0.000 HD
ENDBRANCH  31  34
ENDBRANCH  29  31
ENDBRANCH   6  25
TORSDOF 7
ENDMDL
MODEL 6
REMARK VINA RESULT:      -8.7      3.791      9.772
REMARK  Name = 
REMARK  7 active torsions:
REMARK  status: ('A' for Active; 'I' for Inactive)
REMARK    1  A    between atoms: N_1  and  C_2
REMARK    2  A    between atoms: C_7  and  O_8
REMARK    3  A    between atoms: O_8  and  C_9
REMARK    4  A    between atoms: C_12  and  C_13
REMARK    5  A    between atoms: N_18  and  C_19
REMARK    6  A    between atoms: C_23  and  S_24
REMARK    7  A    between atoms: S_24  and  N_25
REMARK                            x       y       z     vdW  Elec       q    Type
REMARK                         _______ _______ _______ _____ _____    ______ ____
ROOT
ATOM      1  C   UNL     1       2.264   5.602  20.260  0.00  0.00    +0.000 A 
ATOM      2  C   UNL     1       1.690   4.834  21.253  0.00  0.00    +0.000 A 
ATOM      3  C   UNL     1       2.148   3.545  21.369  0.00  0.00    +0.000 A 
ATOM      4  N   UNL     1       3.096   3.018  20.579  0.00  0.00    +0.000 NA
ATOM      5  C   UNL     1       3.605   3.825  19.639  0.00  0.00    +0.000 A 
ATOM      6  N   UNL     1       4.574   3.275  18.797  0.00  0.00    +0.000 N 
ATOM      7  N   UNL     1       3.224   5.103  19.461  0.00  0.00    +0.000 NA
ATOM      8  H   UNL     1       4.839   2.369  19.159  0.00  0.00    +0.000 HD
ENDROOT
BRANCH   1  12
ATOM      9  C   UNL     1       1.053   9.669  19.517  0.00  0.00    +0.000 A 
ATOM     10  C   UNL     1       0.758   9.063  20.738  0.00  0.00    +0.000 A 
ATOM     11  C   UNL     1       1.154   7.743  20.992  0.00  0.00    +0.000 A 
ATOM     12  C   UNL     1       1.859   6.998  20.023  0.00  0.00    +0.000 A 
ATOM     13  C   UNL     1       2.154   7.641  18.811  0.00  0.00    +0.000 A 
ATOM     14  C   UNL     1       1.715   8.932  18.533  0.00  0.00    +0.000 A 
BRANCH   9  15
ATOM     15  O   UNL     1       0.644  10.968  19.373  0.00  0.00    +0.000 OA
BRANCH  15  21
ATOM     16  C   UNL     1      -1.608  11.189  18.335  0.00  0.00    +0.000 A 
ATOM     17  C   UNL     1      -2.902  11.701  18.511  0.00  0.00    +0.000 A 
ATOM     18  C   UNL     1      -3.261  12.404  19.664  0.00  0.00    +0.000 A 
ATOM     19  C   UNL     1      -2.338  12.572  20.688  0.00  0.00    +0.000 A 
ATOM     20  C   UNL     1      -1.055  12.037  20.553  0.00  0.00    +0.000 A 
ATOM     21  C   UNL     1      -0.691  11.327  19.396  0.00  0.00    +0.000 A 
BRANCH  16  22
ATOM     22  N   UNL     1      -1.389  10.380  17.208  0.00  0.00    +0.000 N 
ATOM     23  H   UNL     1      -2.085  10.462  16.478  0.00  0.00    +0.000 HD
ATOM     24  H   UNL     1      -0.439  10.402  16.849  0.00  0.00    +0.000 HD
ENDBRANCH  16  22
ENDBRANCH  15  21
ENDBRANCH   9  15
ENDBRANCH   1  12
BRANCH   6  25
ATOM     25  C   UNL     1       5.609   3.990  18.174  0.00  0.00    +0.000 A 
ATOM     26  C   UNL     1       6.553   4.667  18.954  0.00  0.00    +0.000 A 
ATOM     27  C   UNL     1       7.619   5.353  18.359  0.00  0.00    +0.000 A 
ATOM     28  C   UNL     1       7.732   5.395  16.972  0.00  0.00    +0.000 A 
ATOM     29  C   UNL     1       6.756   4.770  16.195  0.00  0.00    +0.000 A 
ATOM     30  C   UNL     1       5.702   4.078  16.784  0.00  0.00    +0.000 A 
BRANCH  29  31
ATOM     31  S   UNL     1       6.795   4.907  14.442  0.00  0.00    +0.000 S 
ATOM     32  O   UNL     1       8.014   5.580  14.039  0.00  0.00    +0.000 OA
ATOM     33  O   UNL     1       6.355   3.675  13.841  0.00  0.00    +0.000 OA
BRANCH  31  34
ATOM     34  N   UNL     1       5.548   6.011  14.239  0.00  0.00    +0.000 NA
ATOM     35  H   UNL     1       5.191   6.001  13.288  0.00  0.00    +0.000 HD
ATOM     36  H   UNL     1       4.863   5.939  14.989  0.00  0.00    +0.000 HD
ENDBRANCH  31  34
ENDBRANCH  29  31
ENDBRANCH   6  25
TORSDOF 7
ENDMDL
MODEL 7
REMARK VINA RESULT:      -8.7      3.650      9.693
REMARK  Name = 
REMARK  7 active torsions:
REMARK  status: ('A' for Active; 'I' for Inactive)
REMARK    1  A    between atoms: N_1  and  C_2
REMARK    2  A    between atoms: C_7  and  O_8
REMARK    3  A    between atoms: O_8  and  C_9
REMARK    4  A    between atoms: C_12  and  C_13
REMARK    5  A    between atoms: N_18  and  C_19
REMARK    6  A    between atoms: C_23  and  S_24
REMARK    7  A    between atoms: S_24  and  N_25
REMARK                            x       y       z     vdW  Elec       q    Type
REMARK                         _______ _______ _______ _____ _____    ______ ____
ROOT
ATOM      1  C   UNL     1       2.273   5.568  20.275  0.00  0.00    +0.000 A 
ATOM      2  C   UNL     1       1.702   4.805  21.273  0.00  0.00    +0.000 A 
ATOM      3  C   UNL     1       2.163   3.518  21.397  0.00  0.00    +0.000 A 
ATOM      4  N   UNL     1       3.111   2.988  20.610  0.00  0.00    +0.000 NA
ATOM      5  C   UNL     1       3.618   3.791  19.664  0.00  0.00    +0.000 A 
ATOM      6  N   UNL     1       4.587   3.238  18.824  0.00  0.00    +0.000 N 
ATOM      7  N   UNL     1       3.233   5.066  19.478  0.00  0.00    +0.000 NA
ATOM      8  H   UNL     1       4.855   2.335  19.192  0.00  0.00    +0.000 HD
ENDROOT
BRANCH   1  12
ATOM      9  C   UNL     1       1.051   9.627  19.507  0.00  0.00    +0.000 A 
ATOM     10  C   UNL     1       0.735   9.020  20.721  0.00  0.00    +0.000 A 
ATOM     11  C   UNL     1       1.135   7.702  20.984  0.00  0.00    +0.000 A 
ATOM     12  C   UNL     1       1.864   6.962  20.029  0.00  0.00    +0.000 A 
ATOM     13  C   UNL     1       2.179   7.606  18.823  0.00  0.00    +0.000 A 
ATOM     14  C   UNL     1       1.738   8.894  18.537  0.00  0.00    +0.000 A 
BRANCH   9  15
ATOM     15  O   UNL     1       0.637  10.924  19.354  0.00  0.00    +0.000 OA
BRANCH  15  21
ATOM     16  C   UNL     1      -1.498  12.104  19.849  0.00  0.00    +0.000 A 
ATOM     17  C   UNL     1      -2.842  12.239  19.472  0.00  0.00    +0.000 A 
ATOM     18  C   UNL     1      -3.388  11.494  18.424  0.00  0.00    +0.000 A 
ATOM     19  C   UNL     1      -2.583  10.624  17.700  0.00  0.00    +0.000 A 
ATOM     20  C   UNL     1      -1.232  10.501  18.031  0.00  0.00    +0.000 A 
ATOM     21  C   UNL     1      -0.678  11.250  19.083  0.00  0.00    +0.000 A 
BRANCH  16  22
ATOM     22  N   UNL     1      -1.013  12.996  20.819  0.00  0.00    +0.000 N 
ATOM     23  H   UNL     1      -0.025  13.203  20.757  0.00  0.00    +0.000 HD
ATOM     24  H   UNL     1      -1.582  13.826  20.952  0.00  0.00    +0.000 HD
ENDBRANCH  16  22
ENDBRANCH  15  21
ENDBRANCH   9  15
ENDBRANCH   1  12
BRANCH   6  25
ATOM     25  C   UNL     1       5.619   3.951  18.196  0.00  0.00    +0.000 A 
ATOM     26  C   UNL     1       6.577   4.614  18.971  0.00  0.00    +0.000 A 
ATOM     27  C   UNL     1       7.641   5.299  18.369  0.00  0.00    +0.000 A 
ATOM     28  C   UNL     1       7.738   5.353  16.982  0.00  0.00    +0.000 A 
ATOM     29  C   UNL     1       6.749   4.741  16.210  0.00  0.00    +0.000 A 
ATOM     30  C   UNL     1       5.696   4.051  16.806  0.00  0.00    +0.000 A 
BRANCH  29  31
ATOM     31  S   UNL     1       6.768   4.894  14.458  0.00  0.00    +0.000 S 
ATOM     32  O   UNL     1       7.991   5.555  14.047  0.00  0.00    +0.000 OA
ATOM     33  O   UNL     1       6.305   3.672  13.852  0.00  0.00    +0.000 OA
BRANCH  31  34
ATOM     34  N   UNL     1       5.533   6.014  14.281  0.00  0.00    +0.000 NA
ATOM     35  H   UNL     1       5.562   6.722  15.009  0.00  0.00    +0.000 HD
ATOM     36  H   UNL     1       5.467   6.345  13.320  0.00  0.00    +0.000 HD
ENDBRANCH  31  34
ENDBRANCH  29  31
ENDBRANCH   6  25
TORSDOF 7
ENDMDL
MODEL 8
REMARK VINA RESULT:      -8.6      3.868      9.847
REMARK  Name = 
REMARK  7 active torsions:
REMARK  status: ('A' for Active; 'I' for Inactive)
REMARK    1  A    between atoms: N_1  and  C_2
REMARK    2  A    between atoms: C_7  and  O_8
REMARK    3  A    between atoms: O_8  and  C_9
REMARK    4  A    between atoms: C_12  and  C_13
REMARK    5  A    between atoms: N_18  and  C_19
REMARK    6  A    between atoms: C_23  and  S_24
REMARK    7  A    between atoms: S_24  and  N_25
REMARK                            x       y       z     vdW  Elec       q    Type
REMARK                         _______ _______ _______ _____ _____    ______ ____
ROOT
ATOM      1  C   UNL     1       2.905   5.235  19.320  0.00  0.00    +0.000 A 
ATOM      2  C   UNL     1       2.661   4.489  20.455  0.00  0.00    +0.000 A 
ATOM      3  C   UNL     1       3.148   3.206  20.458  0.00  0.00    +0.000 A 
ATOM      4  N   UNL     1       3.825   2.664  19.434  0.00  0.00    +0.000 NA
ATOM      5  C   UNL     1       4.023   3.451  18.368  0.00  0.00    +0.000 A 
ATOM      6  N   UNL     1       4.705   2.885  17.288  0.00  0.00    +0.000 N 
ATOM      7  N   UNL     1       3.590   4.721  18.283  0.00  0.00    +0.000 NA
ATOM      8  H   UNL     1       5.076   1.989  17.575  0.00  0.00    +0.000 HD
ENDROOT
BRANCH   1  12
ATOM      9  C   UNL     1       1.550   9.310  18.967  0.00  0.00    +0.000 A 
ATOM     10  C   UNL     1       2.162   8.680  17.884  0.00  0.00    +0.000 A 
ATOM     11  C   UNL     1       2.599   7.352  17.986  0.00  0.00    +0.000 A 
ATOM     12  C   UNL     1       2.431   6.624  19.183  0.00  0.00    +0.000 A 
ATOM     13  C   UNL     1       1.798   7.281  20.249  0.00  0.00    +0.000 A 
ATOM     14  C   UNL     1       1.412   8.615  20.170  0.00  0.00    +0.000 A 
BRANCH   9  15
ATOM     15  O   UNL     1       1.137  10.600  18.761  0.00  0.00    +0.000 OA
BRANCH  15  21
ATOM     16  C   UNL     1      -0.888  11.884  19.431  0.00  0.00    +0.000 A 
ATOM     17  C   UNL     1      -2.270  12.020  19.235  0.00  0.00    +0.000 A 
ATOM     18  C   UNL     1      -2.971  11.191  18.355  0.00  0.00    +0.000 A 
ATOM     19  C   UNL     1      -2.290  10.232  17.617  0.00  0.00    +0.000 A 
ATOM     20  C   UNL     1      -0.908  10.103  17.765  0.00  0.00    +0.000 A 
ATOM     21  C   UNL     1      -0.198  10.935  18.647  0.00  0.00    +0.000 A 
BRANCH  16  22
ATOM     22  N   UNL     1      -0.256  12.852  20.227  0.00  0.00    +0.000 N 
ATOM     23  H   UNL     1       0.682  13.099  19.940  0.00  0.00    +0.000 HD
ATOM     24  H   UNL     1      -0.828  13.662  20.442  0.00  0.00    +0.000 HD
ENDBRANCH  16  22
ENDBRANCH  15  21
ENDBRANCH   9  15
ENDBRANCH   1  12
BRANCH   6  25
ATOM     25  C   UNL     1       5.499   3.589  16.371  0.00  0.00    +0.000 A 
ATOM     26  C   UNL     1       6.369   4.585  16.826  0.00  0.00    +0.000 A 
ATOM     27  C   UNL     1       7.203   5.274  15.937  0.00  0.00    +0.000 A 
ATOM     28  C   UNL     1       7.150   4.994  14.575  0.00  0.00    +0.000 A 
ATOM     29  C   UNL     1       6.239   4.042  14.115  0.00  0.00    +0.000 A 
ATOM     30  C   UNL     1       5.417   3.348  14.999  0.00  0.00    +0.000 A 
BRANCH  29  31
ATOM     31  S   UNL     1       6.055   3.750  12.390  0.00  0.00    +0.000 S 
ATOM     32  O   UNL     1       4.659   3.888  12.026  0.00  0.00    +0.000 OA
ATOM     33  O   UNL     1       7.114   4.401  11.664  0.00  0.00    +0.000 OA
BRANCH  31  34
ATOM     34  N   UNL     1       6.397   2.108  12.367  0.00  0.00    +0.000 NA
ATOM     35  H   UNL     1       7.372   1.933  12.140  0.00  0.00    +0.000 HD
ATOM     36  H   UNL     1       6.024   1.639  13.190  0.00  0.00    +0.000 HD
ENDBRANCH  31  34
ENDBRANCH  29  31
ENDBRANCH   6  25
TORSDOF 7
ENDMDL
MODEL 9
REMARK VINA RESULT:      -8.6      4.448      5.839
REMARK  Name = 
REMARK  7 active torsions:
REMARK  status: ('A' for Active; 'I' for Inactive)
REMARK    1  A    between atoms: N_1  and  C_2
REMARK    2  A    between atoms: C_7  and  O_8
REMARK    3  A    between atoms: O_8  and  C_9
REMARK    4  A    between atoms: C_12  and  C_13
REMARK    5  A    between atoms: N_18  and  C_19
REMARK    6  A    between atoms: C_23  and  S_24
REMARK    7  A    between atoms: S_24  and  N_25
REMARK                            x       y       z     vdW  Elec       q    Type
REMARK                         _______ _______ _______ _____ _____    ______ ____
ROOT
ATOM      1  C   UNL     1       0.084  10.434  18.809  0.00  0.00    +0.000 A 
ATOM      2  C   UNL     1      -1.109  10.326  18.123  0.00  0.00    +0.000 A 
ATOM      3  C   UNL     1      -1.898  11.448  18.090  0.00  0.00    +0.000 A 
ATOM      4  N   UNL     1      -1.570  12.607  18.682  0.00  0.00    +0.000 NA
ATOM      5  C   UNL     1      -0.396  12.634  19.327  0.00  0.00    +0.000 A 
ATOM      6  N   UNL     1      -0.060  13.830  19.968  0.00  0.00    +0.000 N 
ATOM      7  N   UNL     1       0.443  11.586  19.402  0.00  0.00    +0.000 NA
ATOM      8  H   UNL     1      -0.723  14.541  19.691  0.00  0.00    +0.000 HD
ENDROOT
BRANCH   1  12
ATOM      9  C   UNL     1       2.778   7.093  19.176  0.00  0.00    +0.000 A 
ATOM     10  C   UNL     1       2.666   7.771  17.963  0.00  0.00    +0.000 A 
ATOM     11  C   UNL     1       1.798   8.864  17.836  0.00  0.00    +0.000 A 
ATOM     12  C   UNL     1       1.020   9.303  18.928  0.00  0.00    +0.000 A 
ATOM     13  C   UNL     1       1.167   8.610  20.139  0.00  0.00    +0.000 A 
ATOM     14  C   UNL     1       1.986   7.491  20.255  0.00  0.00    +0.000 A 
BRANCH   9  15
ATOM     15  O   UNL     1       3.670   6.053  19.208  0.00  0.00    +0.000 OA
BRANCH  15  21
ATOM     16  C   UNL     1       4.203   3.710  18.556  0.00  0.00    +0.000 A 
ATOM     17  C   UNL     1       3.660   2.499  18.103  0.00  0.00    +0.000 A 
ATOM     18  C   UNL     1       2.293   2.355  17.856  0.00  0.00    +0.000 A 
ATOM     19  C   UNL     1       1.430   3.416  18.100  0.00  0.00    +0.000 A 
ATOM     20  C   UNL     1       1.942   4.620  18.589  0.00  0.00    +0.000 A 
ATOM     21  C   UNL     1       3.316   4.768  18.841  0.00  0.00    +0.000 A 
BRANCH  16  22
ATOM     22  N   UNL     1       5.563   3.710  18.906  0.00  0.00    +0.000 N 
ATOM     23  H   UNL     1       5.828   3.022  19.599  0.00  0.00    +0.000 HD
ATOM     24  H   UNL     1       6.203   3.743  18.119  0.00  0.00    +0.000 HD
ENDBRANCH  16  22
ENDBRANCH  15  21
ENDBRANCH   9  15
ENDBRANCH   1  12
BRANCH   6  25
ATOM     25  C   UNL     1       1.246  14.292  20.190  0.00  0.00    +0.000 A 
ATOM     26  C   UNL     1       1.719  14.436  21.499  0.00  0.00    +0.000 A 
ATOM     27  C   UNL     1       3.032  14.855  21.748  0.00  0.00    +0.000 A 
ATOM     28  C   UNL     1       3.876  15.167  20.686  0.00  0.00    +0.000 A 
ATOM     29  C   UNL     1       3.383  15.081  19.383  0.00  0.00    +0.000 A 
ATOM     30  C   UNL     1       2.082  14.654  19.133  0.00  0.00    +0.000 A 
BRANCH  29  31
ATOM     31  S   UNL     1       4.378  15.586  18.023  0.00  0.00    +0.000 S 
ATOM     32  O   UNL     1       5.554  14.742  17.948  0.00  0.00    +0.000 OA
ATOM     33  O   UNL     1       3.546  15.862  16.880  0.00  0.00    +0.000 OA
BRANCH  31  34
ATOM     34  N   UNL     1       4.889  17.072  18.612  0.00  0.00    +0.000 NA
ATOM     35  H   UNL     1       5.686  17.426  18.090  0.00  0.00    +0.000 HD
ATOM     36  H   UNL     1       4.106  17.708  18.744  0.00  0.00    +0.000 HD
ENDBRANCH  31  34
ENDBRANCH  29  31
ENDBRANCH   6  25
TORSDOF 7
ENDMDL
