MODEL 1
REMARK VINA RESULT:      -8.3      0.000      0.000
REMARK  Name = 
REMARK  11 active torsions:
REMARK  status: ('A' for Active; 'I' for Inactive)
REMARK    1  A    between atoms: C_1  and  N_2
REMARK    2  A    between atoms: N_2  and  C_3
REMARK    3  A    between atoms: N_2  and  C_18
REMARK    4  A    between atoms: C_3  and  C_4
REMARK    5  A    between atoms: C_7  and  C_8
REMARK    6  A    between atoms: C_11  and  C_12
REMARK    7  A    between atoms: C_18  and  C_19
REMARK    8  A    between atoms: C_19  and  O_20
REMARK    9  A    between atoms: C_19  and  C_21
REMARK   10  A    between atoms: C_19  and  C_27
REMARK   11  A    between atoms: C_21  and  N_22
REMARK                            x       y       z     vdW  Elec       q    Type
REMARK                         _______ _______ _______ _____ _____    ______ ____
ROOT
ATOM      1  C   UNL     1       4.078   3.525  16.981  0.00  0.00    +0.000 C 
ENDROOT
BRANCH   1   3
ATOM      2  C   UNL     1       1.774   3.668  17.561  0.00  0.00    +0.000 C 
ATOM      3  N   UNL     1       3.056   4.422  17.583  0.00  0.00    +0.000 NA
BRANCH   3   4
ATOM      4  C   UNL     1       3.404   4.753  18.970  0.00  0.00    +0.000 C 
BRANCH   4   5
ATOM      5  C   UNL     1       2.647   5.917  19.533  0.00  0.00    +0.000 A 
ATOM      6  C   UNL     1       1.889   5.746  20.691  0.00  0.00    +0.000 A 
ATOM      7  C   UNL     1       1.152   6.807  21.187  0.00  0.00    +0.000 A 
ATOM      8  C   UNL     1       1.199   8.076  20.583  0.00  0.00    +0.000 A 
ATOM      9  C   UNL     1       1.971   8.230  19.420  0.00  0.00    +0.000 A 
ATOM     10  C   UNL     1       2.675   7.157  18.889  0.00  0.00    +0.000 A 
BRANCH   8  11
ATOM     11  C   UNL     1       0.467   9.202  21.177  0.00  0.00    +0.000 A 
ATOM     12  C   UNL     1       0.070   9.149  22.528  0.00  0.00    +0.000 A 
ATOM     13  C   UNL     1      -0.660  10.180  23.109  0.00  0.00    +0.000 A 
ATOM     14  C   UNL     1      -0.985  11.304  22.352  0.00  0.00    +0.000 A 
ATOM     15  C   UNL     1      -0.580  11.391  21.016  0.00  0.00    +0.000 A 
ATOM     16  C   UNL     1       0.134  10.344  20.433  0.00  0.00    +0.000 A 
BRANCH  14  17
ATOM     17  C   UNL     1      -1.739  12.365  22.950  0.00  0.00    +0.000 C 
ATOM     18  N   UNL     1      -2.343  13.226  23.431  0.00  0.00    +0.000 NA
ENDBRANCH  14  17
ENDBRANCH   8  11
ENDBRANCH   4   5
ENDBRANCH   3   4
ENDBRANCH   1   3
BRANCH   1  19
ATOM     19  C   UNL     1       5.274   4.067  16.109  0.00  0.00    +0.000 C 
BRANCH  19  20
ATOM     20  C   UNL     1       6.132   5.095  16.886  0.00  0.00    +0.000 A 
ATOM     21  C   UNL     1       7.119   4.641  17.787  0.00  0.00    +0.000 A 
ATOM     22  C   UNL     1       7.976   5.534  18.435  0.00  0.00    +0.000 A 
ATOM     23  C   UNL     1       7.827   6.898  18.237  0.00  0.00    +0.000 A 
ATOM     24  F   UNL     1       8.641   7.753  18.869  0.00  0.00    +0.000 F 
ATOM     25  C   UNL     1       6.848   7.387  17.396  0.00  0.00    +0.000 A 
ATOM     26  C   UNL     1       6.024   6.492  16.723  0.00  0.00    +0.000 A 
ATOM     27  F   UNL     1       5.124   7.043  15.898  0.00  0.00    +0.000 F 
ENDBRANCH  19  20
BRANCH  19  28
ATOM     28  O   UNL     1       6.140   2.933  15.848  0.00  0.00    +0.000 OA
ATOM     29  H   UNL     1       6.623   2.768  16.683  0.00  0.00    +0.000 HD
ENDBRANCH  19  28
BRANCH  19  30
ATOM     30  C   UNL     1       4.920   4.641  14.710  0.00  0.00    +0.000 C 
BRANCH  30  31
ATOM     31  N   UNL     1       5.812   4.308  13.632  0.00  0.00    +0.000 N 
ATOM     32  C   UNL     1       6.982   4.927  13.319  0.00  0.00    +0.000 A 
ATOM     33  N   UNL     1       7.526   4.331  12.284  0.00  0.00    +0.000 NA
ATOM     34  C   UNL     1       6.646   3.325  12.014  0.00  0.00    +0.000 A 
ATOM     35  N   UNL     1       5.591   3.253  12.828  0.00  0.00    +0.000 NA
ENDBRANCH  30  31
ENDBRANCH  19  30
ENDBRANCH   1  19
TORSDOF 10
ENDMDL
MODEL 2
REMARK VINA RESULT:      -8.1      2.051      2.629
REMARK  Name = 
REMARK  11 active torsions:
REMARK  status: ('A' for Active; 'I' for Inactive)
REMARK    1  A    between atoms: C_1  and  N_2
REMARK    2  A    between atoms: N_2  and  C_3
REMARK    3  A    between atoms: N_2  and  C_18
REMARK    4  A    between atoms: C_3  and  C_4
REMARK    5  A    between atoms: C_7  and  C_8
REMARK    6  A    between atoms: C_11  and  C_12
REMARK    7  A    between atoms: C_18  and  C_19
REMARK    8  A    between atoms: C_19  and  O_20
REMARK    9  A    between atoms: C_19  and  C_21
REMARK   10  A    between atoms: C_19  and  C_27
REMARK   11  A    between atoms: C_21  and  N_22
REMARK                            x       y       z     vdW  Elec       q    Type
REMARK                         _______ _______ _______ _____ _____    ______ ____
ROOT
ATOM      1  C   UNL     1       5.319   4.214  18.121  0.00  0.00    +0.000 C 
ENDROOT
BRANCH   1   3
ATOM      2  C   UNL     1       3.532   2.663  17.863  0.00  0.00    +0.000 C 
ATOM      3  N   UNL     1       3.838   4.110  18.020  0.00  0.00    +0.000 NA
BRANCH   3   4
ATOM      4  C   UNL     1       3.195   4.617  19.239  0.00  0.00    +0.000 C 
BRANCH   4   5
ATOM      5  C   UNL     1       2.741   6.042  19.147  0.00  0.00    +0.000 A 
ATOM      6  C   UNL     1       2.119   6.635  20.244  0.00  0.00    +0.000 A 
ATOM      7  C   UNL     1       1.658   7.936  20.147  0.00  0.00    +0.000 A 
ATOM      8  C   UNL     1       1.860   8.697  18.982  0.00  0.00    +0.000 A 
ATOM      9  C   UNL     1       2.492   8.085  17.888  0.00  0.00    +0.000 A 
ATOM     10  C   UNL     1       2.914   6.763  17.963  0.00  0.00    +0.000 A 
BRANCH   8  11
ATOM     11  C   UNL     1       1.428  10.100  18.936  0.00  0.00    +0.000 A 
ATOM     12  C   UNL     1       0.193  10.477  19.502  0.00  0.00    +0.000 A 
ATOM     13  C   UNL     1      -0.263  11.789  19.439  0.00  0.00    +0.000 A 
ATOM     14  C   UNL     1       0.526  12.762  18.828  0.00  0.00    +0.000 A 
ATOM     15  C   UNL     1       1.766  12.418  18.282  0.00  0.00    +0.000 A 
ATOM     16  C   UNL     1       2.209  11.096  18.329  0.00  0.00    +0.000 A 
BRANCH  14  17
ATOM     17  C   UNL     1       0.055  14.112  18.761  0.00  0.00    +0.000 C 
ATOM     18  N   UNL     1      -0.323  15.204  18.702  0.00  0.00    +0.000 NA
ENDBRANCH  14  17
ENDBRANCH   8  11
ENDBRANCH   4   5
ENDBRANCH   3   4
ENDBRANCH   1   3
BRANCH   1  19
ATOM     19  C   UNL     1       6.202   4.864  16.989  0.00  0.00    +0.000 C 
BRANCH  19  20
ATOM     20  C   UNL     1       6.986   6.096  17.508  0.00  0.00    +0.000 A 
ATOM     21  C   UNL     1       6.807   7.349  16.885  0.00  0.00    +0.000 A 
ATOM     22  C   UNL     1       7.422   8.501  17.382  0.00  0.00    +0.000 A 
ATOM     23  C   UNL     1       8.269   8.412  18.476  0.00  0.00    +0.000 A 
ATOM     24  F   UNL     1       8.867   9.514  18.943  0.00  0.00    +0.000 F 
ATOM     25  C   UNL     1       8.503   7.199  19.091  0.00  0.00    +0.000 A 
ATOM     26  C   UNL     1       7.858   6.063  18.616  0.00  0.00    +0.000 A 
ATOM     27  F   UNL     1       8.109   4.931  19.288  0.00  0.00    +0.000 F 
ENDBRANCH  19  20
BRANCH  19  28
ATOM     28  O   UNL     1       7.199   3.875  16.626  0.00  0.00    +0.000 OA
ATOM     29  H   UNL     1       7.272   3.915  15.651  0.00  0.00    +0.000 HD
ENDBRANCH  19  28
BRANCH  19  30
ATOM     30  C   UNL     1       5.485   5.230  15.661  0.00  0.00    +0.000 C 
BRANCH  30  31
ATOM     31  N   UNL     1       6.104   4.769  14.447  0.00  0.00    +0.000 N 
ATOM     32  C   UNL     1       5.618   3.835  13.585  0.00  0.00    +0.000 A 
ATOM     33  N   UNL     1       6.453   3.694  12.583  0.00  0.00    +0.000 NA
ATOM     34  C   UNL     1       7.435   4.594  12.872  0.00  0.00    +0.000 A 
ATOM     35  N   UNL     1       7.254   5.297  13.993  0.00  0.00    +0.000 NA
ENDBRANCH  30  31
ENDBRANCH  19  30
ENDBRANCH   1  19
TORSDOF 10
ENDMDL
MODEL 3
REMARK VINA RESULT:      -8.0      2.587      4.164
REMARK  Name = 
REMARK  11 active torsions:
REMARK  status: ('A' for Active; 'I' for Inactive)
REMARK    1  A    between atoms: C_1  and  N_2
REMARK    2  A    between atoms: N_2  and  C_3
REMARK    3  A    between atoms: N_2  and  C_18
REMARK    4  A    between atoms: C_3  and  C_4
REMARK    5  A    between atoms: C_7  and  C_8
REMARK    6  A    between atoms: C_11  and  C_12
REMARK    7  A    between atoms: C_18  and  C_19
REMARK    8  A    between atoms: C_19  and  O_20
REMARK    9  A    between atoms: C_19  and  C_21
REMARK   10  A    between atoms: C_19  and  C_27
REMARK   11  A    between atoms: C_21  and  N_22
REMARK                            x       y       z     vdW  Elec       q    Type
REMARK                         _______ _______ _______ _____ _____    ______ ____
ROOT
ATOM      1  C   UNL     1       3.300   5.407  17.270  0.00  0.00    +0.000 C 
ENDROOT
BRANCH   1   3
ATOM      2  C   UNL     1       4.665   6.335  18.985  0.00  0.00    +0.000 C 
ATOM      3  N   UNL     1       3.310   6.401  18.377  0.00  0.00    +0.000 NA
BRANCH   3   4
ATOM      4  C   UNL     1       3.070   7.756  17.865  0.00  0.00    +0.000 C 
BRANCH   4   5
ATOM      5  C   UNL     1       2.109   8.562  18.686  0.00  0.00    +0.000 A 
ATOM      6  C   UNL     1       1.771   8.129  19.967  0.00  0.00    +0.000 A 
ATOM      7  C   UNL     1       0.850   8.846  20.709  0.00  0.00    +0.000 A 
ATOM      8  C   UNL     1       0.292  10.042  20.223  0.00  0.00    +0.000 A 
ATOM      9  C   UNL     1       0.646  10.465  18.932  0.00  0.00    +0.000 A 
ATOM     10  C   UNL     1       1.534   9.723  18.162  0.00  0.00    +0.000 A 
BRANCH   8  11
ATOM     11  C   UNL     1      -0.624  10.822  21.065  0.00  0.00    +0.000 A 
ATOM     12  C   UNL     1      -0.699  10.567  22.449  0.00  0.00    +0.000 A 
ATOM     13  C   UNL     1      -1.585  11.260  23.266  0.00  0.00    +0.000 A 
ATOM     14  C   UNL     1      -2.399  12.248  22.715  0.00  0.00    +0.000 A 
ATOM     15  C   UNL     1      -2.325  12.538  21.349  0.00  0.00    +0.000 A 
ATOM     16  C   UNL     1      -1.449  11.824  20.530  0.00  0.00    +0.000 A 
BRANCH  14  17
ATOM     17  C   UNL     1      -3.314  12.960  23.557  0.00  0.00    +0.000 C 
ATOM     18  N   UNL     1      -4.050  13.540  24.234  0.00  0.00    +0.000 NA
ENDBRANCH  14  17
ENDBRANCH   8  11
ENDBRANCH   4   5
ENDBRANCH   3   4
ENDBRANCH   1   3
BRANCH   1  19
ATOM     19  C   UNL     1       3.290   3.852  17.526  0.00  0.00    +0.000 C 
BRANCH  19  20
ATOM     20  C   UNL     1       2.671   3.501  18.902  0.00  0.00    +0.000 A 
ATOM     21  C   UNL     1       1.271   3.555  19.071  0.00  0.00    +0.000 A 
ATOM     22  C   UNL     1       0.669   3.154  20.267  0.00  0.00    +0.000 A 
ATOM     23  C   UNL     1       1.457   2.746  21.332  0.00  0.00    +0.000 A 
ATOM     24  F   UNL     1       0.879   2.376  22.480  0.00  0.00    +0.000 F 
ATOM     25  C   UNL     1       2.833   2.718  21.222  0.00  0.00    +0.000 A 
ATOM     26  C   UNL     1       3.424   3.079  20.017  0.00  0.00    +0.000 A 
ATOM     27  F   UNL     1       4.761   2.990  19.979  0.00  0.00    +0.000 F 
ENDBRANCH  19  20
BRANCH  19  28
ATOM     28  O   UNL     1       2.409   3.277  16.528  0.00  0.00    +0.000 OA
ATOM     29  H   UNL     1       1.585   3.804  16.563  0.00  0.00    +0.000 HD
ENDBRANCH  19  28
BRANCH  19  30
ATOM     30  C   UNL     1       4.640   3.103  17.360  0.00  0.00    +0.000 C 
BRANCH  30  31
ATOM     31  N   UNL     1       5.652   3.765  16.581  0.00  0.00    +0.000 N 
ATOM     32  C   UNL     1       6.793   4.342  17.044  0.00  0.00    +0.000 A 
ATOM     33  N   UNL     1       7.476   4.828  16.034  0.00  0.00    +0.000 NA
ATOM     34  C   UNL     1       6.708   4.495  14.958  0.00  0.00    +0.000 A 
ATOM     35  N   UNL     1       5.591   3.820  15.239  0.00  0.00    +0.000 NA
ENDBRANCH  30  31
ENDBRANCH  19  30
ENDBRANCH   1  19
TORSDOF 10
ENDMDL
MODEL 4
REMARK VINA RESULT:      -7.9      1.476      2.411
REMARK  Name = 
REMARK  11 active torsions:
REMARK  status: ('A' for Active; 'I' for Inactive)
REMARK    1  A    between atoms: C_1  and  N_2
REMARK    2  A    between atoms: N_2  and  C_3
REMARK    3  A    between atoms: N_2  and  C_18
REMARK    4  A    between atoms: C_3  and  C_4
REMARK    5  A    between atoms: C_7  and  C_8
REMARK    6  A    between atoms: C_11  and  C_12
REMARK    7  A    between atoms: C_18  and  C_19
REMARK    8  A    between atoms: C_19  and  O_20
REMARK    9  A    between atoms: C_19  and  C_21
REMARK   10  A    between atoms: C_19  and  C_27
REMARK   11  A    between atoms: C_21  and  N_22
REMARK                            x       y       z     vdW  Elec       q    Type
REMARK                         _______ _______ _______ _____ _____    ______ ____
ROOT
ATOM      1  C   UNL     1       5.406   4.828  18.445  0.00  0.00    +0.000 C 
ENDROOT
BRANCH   1   3
ATOM      2  C   UNL     1       4.515   2.973  19.642  0.00  0.00    +0.000 C 
ATOM      3  N   UNL     1       4.561   3.612  18.300  0.00  0.00    +0.000 NA
BRANCH   3   4
ATOM      4  C   UNL     1       3.201   3.968  17.880  0.00  0.00    +0.000 C 
BRANCH   4   5
ATOM      5  C   UNL     1       2.609   5.124  18.629  0.00  0.00    +0.000 A 
ATOM      6  C   UNL     1       2.632   6.395  18.057  0.00  0.00    +0.000 A 
ATOM      7  C   UNL     1       2.128   7.471  18.766  0.00  0.00    +0.000 A 
ATOM      8  C   UNL     1       1.534   7.301  20.029  0.00  0.00    +0.000 A 
ATOM      9  C   UNL     1       1.516   6.013  20.588  0.00  0.00    +0.000 A 
ATOM     10  C   UNL     1       2.064   4.936  19.902  0.00  0.00    +0.000 A 
BRANCH   8  11
ATOM     11  C   UNL     1       0.938   8.450  20.723  0.00  0.00    +0.000 A 
ATOM     12  C   UNL     1       1.017   9.736  20.152  0.00  0.00    +0.000 A 
ATOM     13  C   UNL     1       0.499  10.850  20.803  0.00  0.00    +0.000 A 
ATOM     14  C   UNL     1      -0.137  10.694  22.033  0.00  0.00    +0.000 A 
ATOM     15  C   UNL     1      -0.250   9.424  22.608  0.00  0.00    +0.000 A 
ATOM     16  C   UNL     1       0.290   8.313  21.960  0.00  0.00    +0.000 A 
BRANCH  14  17
ATOM     17  C   UNL     1      -0.668  11.842  22.705  0.00  0.00    +0.000 C 
ATOM     18  N   UNL     1      -1.102  12.769  23.244  0.00  0.00    +0.000 NA
ENDBRANCH  14  17
ENDBRANCH   8  11
ENDBRANCH   4   5
ENDBRANCH   3   4
ENDBRANCH   1   3
BRANCH   1  19
ATOM     19  C   UNL     1       6.329   5.364  17.286  0.00  0.00    +0.000 C 
BRANCH  19  20
ATOM     20  C   UNL     1       7.167   6.586  17.736  0.00  0.00    +0.000 A 
ATOM     21  C   UNL     1       7.022   7.817  17.063  0.00  0.00    +0.000 A 
ATOM     22  C   UNL     1       7.689   8.965  17.499  0.00  0.00    +0.000 A 
ATOM     23  C   UNL     1       8.553   8.891  18.580  0.00  0.00    +0.000 A 
ATOM     24  F   UNL     1       9.201   9.989  18.987  0.00  0.00    +0.000 F 
ATOM     25  C   UNL     1       8.756   7.697  19.241  0.00  0.00    +0.000 A 
ATOM     26  C   UNL     1       8.059   6.567  18.829  0.00  0.00    +0.000 A 
ATOM     27  F   UNL     1       8.282   5.456  19.544  0.00  0.00    +0.000 F 
ENDBRANCH  19  20
BRANCH  19  28
ATOM     28  O   UNL     1       7.279   4.307  16.995  0.00  0.00    +0.000 OA
ATOM     29  H   UNL     1       7.219   4.152  16.030  0.00  0.00    +0.000 HD
ENDBRANCH  19  28
BRANCH  19  30
ATOM     30  C   UNL     1       5.641   5.680  15.930  0.00  0.00    +0.000 C 
BRANCH  30  31
ATOM     31  N   UNL     1       6.216   5.074  14.759  0.00  0.00    +0.000 N 
ATOM     32  C   UNL     1       5.660   4.106  13.982  0.00  0.00    +0.000 A 
ATOM     33  N   UNL     1       6.475   3.821  12.994  0.00  0.00    +0.000 NA
ATOM     34  C   UNL     1       7.519   4.673  13.202  0.00  0.00    +0.000 A 
ATOM     35  N   UNL     1       7.397   5.480  14.258  0.00  0.00    +0.000 NA
ENDBRANCH  30  31
ENDBRANCH  19  30
ENDBRANCH   1  19
TORSDOF 10
ENDMDL
MODEL 5
REMARK VINA RESULT:      -7.8      2.568      4.434
REMARK  Name = 
REMARK  11 active torsions:
REMARK  status: ('A' for Active; 'I' for Inactive)
REMARK    1  A    between atoms: C_1  and  N_2
REMARK    2  A    between atoms: N_2  and  C_3
REMARK    3  A    between atoms: N_2  and  C_18
REMARK    4  A    between atoms: C_3  and  C_4
REMARK    5  A    between atoms: C_7  and  C_8
REMARK    6  A    between atoms: C_11  and  C_12
REMARK    7  A    between atoms: C_18  and  C_19
REMARK    8  A    between atoms: C_19  and  O_20
REMARK    9  A    between atoms: C_19  and  C_21
REMARK   10  A    between atoms: C_19  and  C_27
REMARK   11  A    between atoms: C_21  and  N_22
REMARK                            x       y       z     vdW  Elec       q    Type
REMARK                         _______ _______ _______ _____ _____    ______ ____
ROOT
ATOM      1  C   UNL     1       4.890   5.623  18.871  0.00  0.00    +0.000 C 
ENDROOT
BRANCH   1   3
ATOM      2  C   UNL     1       4.940   7.003  16.932  0.00  0.00    +0.000 C 
ATOM      3  N   UNL     1       4.338   6.875  18.286  0.00  0.00    +0.000 NA
BRANCH   3   4
ATOM      4  C   UNL     1       2.878   6.795  18.166  0.00  0.00    +0.000 C 
BRANCH   4   5
ATOM      5  C   UNL     1       2.138   7.826  18.964  0.00  0.00    +0.000 A 
ATOM      6  C   UNL     1       1.829   7.567  20.299  0.00  0.00    +0.000 A 
ATOM      7  C   UNL     1       1.106   8.497  21.025  0.00  0.00    +0.000 A 
ATOM      8  C   UNL     1       0.729   9.730  20.463  0.00  0.00    +0.000 A 
ATOM      9  C   UNL     1       1.052   9.975  19.118  0.00  0.00    +0.000 A 
ATOM     10  C   UNL     1       1.736   9.025  18.370  0.00  0.00    +0.000 A 
BRANCH   8  11
ATOM     11  C   UNL     1       0.030  10.729  21.282  0.00  0.00    +0.000 A 
ATOM     12  C   UNL     1       0.104  12.095  20.943  0.00  0.00    +0.000 A 
ATOM     13  C   UNL     1      -0.513  13.068  21.721  0.00  0.00    +0.000 A 
ATOM     14  C   UNL     1      -1.243  12.689  22.845  0.00  0.00    +0.000 A 
ATOM     15  C   UNL     1      -1.353  11.337  23.188  0.00  0.00    +0.000 A 
ATOM     16  C   UNL     1      -0.714  10.367  22.415  0.00  0.00    +0.000 A 
BRANCH  14  17
ATOM     17  C   UNL     1      -1.876  13.692  23.648  0.00  0.00    +0.000 C 
ATOM     18  N   UNL     1      -2.382  14.505  24.297  0.00  0.00    +0.000 NA
ENDBRANCH  14  17
ENDBRANCH   8  11
ENDBRANCH   4   5
ENDBRANCH   3   4
ENDBRANCH   1   3
BRANCH   1  19
ATOM     19  C   UNL     1       4.793   4.230  18.140  0.00  0.00    +0.000 C 
BRANCH  19  20
ATOM     20  C   UNL     1       5.477   4.261  16.751  0.00  0.00    +0.000 A 
ATOM     21  C   UNL     1       4.703   4.068  15.588  0.00  0.00    +0.000 A 
ATOM     22  C   UNL     1       5.265   4.183  14.313  0.00  0.00    +0.000 A 
ATOM     23  C   UNL     1       6.621   4.438  14.180  0.00  0.00    +0.000 A 
ATOM     24  F   UNL     1       7.161   4.534  12.960  0.00  0.00    +0.000 F 
ATOM     25  C   UNL     1       7.424   4.592  15.293  0.00  0.00    +0.000 A 
ATOM     26  C   UNL     1       6.851   4.517  16.557  0.00  0.00    +0.000 A 
ATOM     27  F   UNL     1       7.688   4.714  17.584  0.00  0.00    +0.000 F 
ENDBRANCH  19  20
BRANCH  19  28
ATOM     28  O   UNL     1       5.551   3.290  18.943  0.00  0.00    +0.000 OA
ATOM     29  H   UNL     1       4.897   2.836  19.512  0.00  0.00    +0.000 HD
ENDBRANCH  19  28
BRANCH  19  30
ATOM     30  C   UNL     1       3.378   3.605  18.006  0.00  0.00    +0.000 C 
BRANCH  30  31
ATOM     31  N   UNL     1       2.644   3.405  19.226  0.00  0.00    +0.000 N 
ATOM     32  C   UNL     1       1.397   3.865  19.515  0.00  0.00    +0.000 A 
ATOM     33  N   UNL     1       1.053   3.465  20.716  0.00  0.00    +0.000 NA
ATOM     34  C   UNL     1       2.132   2.733  21.115  0.00  0.00    +0.000 A 
ATOM     35  N   UNL     1       3.124   2.645  20.226  0.00  0.00    +0.000 NA
ENDBRANCH  30  31
ENDBRANCH  19  30
ENDBRANCH   1  19
TORSDOF 10
ENDMDL
MODEL 6
REMARK VINA RESULT:      -7.7      4.067     10.188
REMARK  Name = 
REMARK  11 active torsions:
REMARK  status: ('A' for Active; 'I' for Inactive)
REMARK    1  A    between atoms: C_1  and  N_2
REMARK    2  A    between atoms: N_2  and  C_3
REMARK    3  A    between atoms: N_2  and  C_18
REMARK    4  A    between atoms: C_3  and  C_4
REMARK    5  A    between atoms: C_7  and  C_8
REMARK    6  A    between atoms: C_11  and  C_12
REMARK    7  A    between atoms: C_18  and  C_19
REMARK    8  A    between atoms: C_19  and  O_20
REMARK    9  A    between atoms: C_19  and  C_21
REMARK   10  A    between atoms: C_19  and  C_27
REMARK   11  A    between atoms: C_21  and  N_22
REMARK                            x       y       z     vdW  Elec       q    Type
REMARK                         _______ _______ _______ _____ _____    ______ ____
ROOT
ATOM      1  C   UNL     1      -0.798   9.815  20.776  0.00  0.00    +0.000 C 
ENDROOT
BRANCH   1   3
ATOM      2  C   UNL     1       0.178  10.036  22.935  0.00  0.00    +0.000 C 
ATOM      3  N   UNL     1       0.417   9.493  21.572  0.00  0.00    +0.000 NA
BRANCH   3   4
ATOM      4  C   UNL     1       0.620   8.042  21.651  0.00  0.00    +0.000 C 
BRANCH   4   5
ATOM      5  C   UNL     1       1.459   7.476  20.545  0.00  0.00    +0.000 A 
ATOM      6  C   UNL     1       1.830   8.295  19.479  0.00  0.00    +0.000 A 
ATOM      7  C   UNL     1       2.566   7.764  18.435  0.00  0.00    +0.000 A 
ATOM      8  C   UNL     1       3.003   6.427  18.454  0.00  0.00    +0.000 A 
ATOM      9  C   UNL     1       2.623   5.619  19.538  0.00  0.00    +0.000 A 
ATOM     10  C   UNL     1       1.843   6.133  20.567  0.00  0.00    +0.000 A 
BRANCH   8  11
ATOM     11  C   UNL     1       3.848   5.914  17.368  0.00  0.00    +0.000 A 
ATOM     12  C   UNL     1       3.968   4.524  17.165  0.00  0.00    +0.000 A 
ATOM     13  C   UNL     1       4.791   4.006  16.172  0.00  0.00    +0.000 A 
ATOM     14  C   UNL     1       5.494   4.874  15.340  0.00  0.00    +0.000 A 
ATOM     15  C   UNL     1       5.372   6.257  15.505  0.00  0.00    +0.000 A 
ATOM     16  C   UNL     1       4.561   6.771  16.516  0.00  0.00    +0.000 A 
BRANCH  14  17
ATOM     17  C   UNL     1       6.344   4.340  14.319  0.00  0.00    +0.000 C 
ATOM     18  N   UNL     1       7.031   3.914  13.491  0.00  0.00    +0.000 NA
ENDBRANCH  14  17
ENDBRANCH   8  11
ENDBRANCH   4   5
ENDBRANCH   3   4
ENDBRANCH   1   3
BRANCH   1  19
ATOM     19  C   UNL     1      -0.920  11.123  19.905  0.00  0.00    +0.000 C 
BRANCH  19  20
ATOM     20  C   UNL     1      -1.835  10.910  18.674  0.00  0.00    +0.000 A 
ATOM     21  C   UNL     1      -3.093  11.546  18.622  0.00  0.00    +0.000 A 
ATOM     22  C   UNL     1      -3.907  11.456  17.489  0.00  0.00    +0.000 A 
ATOM     23  C   UNL     1      -3.502  10.684  16.411  0.00  0.00    +0.000 A 
ATOM     24  F   UNL     1      -4.288  10.588  15.332  0.00  0.00    +0.000 F 
ATOM     25  C   UNL     1      -2.297  10.011  16.437  0.00  0.00    +0.000 A 
ATOM     26  C   UNL     1      -1.474  10.137  17.550  0.00  0.00    +0.000 A 
ATOM     27  F   UNL     1      -0.306   9.484  17.483  0.00  0.00    +0.000 F 
ENDBRANCH  19  20
BRANCH  19  28
ATOM     28  O   UNL     1      -1.583  12.110  20.735  0.00  0.00    +0.000 OA
ATOM     29  H   UNL     1      -1.316  11.908  21.655  0.00  0.00    +0.000 HD
ENDBRANCH  19  28
BRANCH  19  30
ATOM     30  C   UNL     1       0.407  11.792  19.453  0.00  0.00    +0.000 C 
BRANCH  30  31
ATOM     31  N   UNL     1       0.480  13.223  19.577  0.00  0.00    +0.000 N 
ATOM     32  C   UNL     1       0.074  14.145  18.663  0.00  0.00    +0.000 A 
ATOM     33  N   UNL     1       0.284  15.350  19.138  0.00  0.00    +0.000 NA
ATOM     34  C   UNL     1       0.807  15.105  20.373  0.00  0.00    +0.000 A 
ATOM     35  N   UNL     1       0.924  13.816  20.700  0.00  0.00    +0.000 NA
ENDBRANCH  30  31
ENDBRANCH  19  30
ENDBRANCH   1  19
TORSDOF 10
ENDMDL
MODEL 7
REMARK VINA RESULT:      -7.7      2.771      4.373
REMARK  Name = 
REMARK  11 active torsions:
REMARK  status: ('A' for Active; 'I' for Inactive)
REMARK    1  A    between atoms: C_1  and  N_2
REMARK    2  A    between atoms: N_2  and  C_3
REMARK    3  A    between atoms: N_2  and  C_18
REMARK    4  A    between atoms: C_3  and  C_4
REMARK    5  A    between atoms: C_7  and  C_8
REMARK    6  A    between atoms: C_11  and  C_12
REMARK    7  A    between atoms: C_18  and  C_19
REMARK    8  A    between atoms: C_19  and  O_20
REMARK    9  A    between atoms: C_19  and  C_21
REMARK   10  A    between atoms: C_19  and  C_27
REMARK   11  A    between atoms: C_21  and  N_22
REMARK                            x       y       z     vdW  Elec       q    Type
REMARK                         _______ _______ _______ _____ _____    ______ ____
ROOT
ATOM      1  C   UNL     1       3.915   5.539  19.105  0.00  0.00    +0.000 C 
ENDROOT
BRANCH   1   3
ATOM      2  C   UNL     1       1.640   5.679  18.420  0.00  0.00    +0.000 C 
ATOM      3  N   UNL     1       3.029   6.012  18.008  0.00  0.00    +0.000 NA
BRANCH   3   4
ATOM      4  C   UNL     1       3.151   7.464  17.827  0.00  0.00    +0.000 C 
BRANCH   4   5
ATOM      5  C   UNL     1       2.213   8.270  18.675  0.00  0.00    +0.000 A 
ATOM      6  C   UNL     1       1.547   9.359  18.115  0.00  0.00    +0.000 A 
ATOM      7  C   UNL     1       0.717  10.132  18.907  0.00  0.00    +0.000 A 
ATOM      8  C   UNL     1       0.481   9.806  20.254  0.00  0.00    +0.000 A 
ATOM      9  C   UNL     1       1.158   8.704  20.801  0.00  0.00    +0.000 A 
ATOM     10  C   UNL     1       2.030   7.952  20.023  0.00  0.00    +0.000 A 
BRANCH   8  11
ATOM     11  C   UNL     1      -0.465  10.600  21.049  0.00  0.00    +0.000 A 
ATOM     12  C   UNL     1      -1.275  11.567  20.420  0.00  0.00    +0.000 A 
ATOM     13  C   UNL     1      -2.151  12.364  21.149  0.00  0.00    +0.000 A 
ATOM     14  C   UNL     1      -2.254  12.187  22.528  0.00  0.00    +0.000 A 
ATOM     15  C   UNL     1      -1.481  11.216  23.171  0.00  0.00    +0.000 A 
ATOM     16  C   UNL     1      -0.588  10.434  22.437  0.00  0.00    +0.000 A 
BRANCH  14  17
ATOM     17  C   UNL     1      -3.155  13.009  23.279  0.00  0.00    +0.000 C 
ATOM     18  N   UNL     1      -3.881  13.669  23.891  0.00  0.00    +0.000 NA
ENDBRANCH  14  17
ENDBRANCH   8  11
ENDBRANCH   4   5
ENDBRANCH   3   4
ENDBRANCH   1   3
BRANCH   1  19
ATOM     19  C   UNL     1       5.058   4.479  18.875  0.00  0.00    +0.000 C 
BRANCH  19  20
ATOM     20  C   UNL     1       5.621   4.545  17.434  0.00  0.00    +0.000 A 
ATOM     21  C   UNL     1       6.928   5.032  17.218  0.00  0.00    +0.000 A 
ATOM     22  C   UNL     1       7.506   5.019  15.945  0.00  0.00    +0.000 A 
ATOM     23  C   UNL     1       6.770   4.570  14.859  0.00  0.00    +0.000 A 
ATOM     24  F   UNL     1       7.320   4.570  13.640  0.00  0.00    +0.000 F 
ATOM     25  C   UNL     1       5.474   4.124  15.020  0.00  0.00    +0.000 A 
ATOM     26  C   UNL     1       4.918   4.102  16.294  0.00  0.00    +0.000 A 
ATOM     27  F   UNL     1       3.670   3.621  16.373  0.00  0.00    +0.000 F 
ENDBRANCH  19  20
BRANCH  19  28
ATOM     28  O   UNL     1       6.150   4.854  19.753  0.00  0.00    +0.000 OA
ATOM     29  H   UNL     1       6.922   4.329  19.459  0.00  0.00    +0.000 HD
ENDBRANCH  19  28
BRANCH  19  30
ATOM     30  C   UNL     1       4.732   3.004  19.236  0.00  0.00    +0.000 C 
BRANCH  30  31
ATOM     31  N   UNL     1       3.379   2.724  19.637  0.00  0.00    +0.000 N 
ATOM     32  C   UNL     1       2.391   2.194  18.866  0.00  0.00    +0.000 A 
ATOM     33  N   UNL     1       1.300   2.067  19.585  0.00  0.00    +0.000 NA
ATOM     34  C   UNL     1       1.688   2.518  20.812  0.00  0.00    +0.000 A 
ATOM     35  N   UNL     1       2.962   2.909  20.901  0.00  0.00    +0.000 NA
ENDBRANCH  30  31
ENDBRANCH  19  30
ENDBRANCH   1  19
TORSDOF 10
ENDMDL
MODEL 8
REMARK VINA RESULT:      -7.7      2.524      4.188
REMARK  Name = 
REMARK  11 active torsions:
REMARK  status: ('A' for Active; 'I' for Inactive)
REMARK    1  A    between atoms: C_1  and  N_2
REMARK    2  A    between atoms: N_2  and  C_3
REMARK    3  A    between atoms: N_2  and  C_18
REMARK    4  A    between atoms: C_3  and  C_4
REMARK    5  A    between atoms: C_7  and  C_8
REMARK    6  A    between atoms: C_11  and  C_12
REMARK    7  A    between atoms: C_18  and  C_19
REMARK    8  A    between atoms: C_19  and  O_20
REMARK    9  A    between atoms: C_19  and  C_21
REMARK   10  A    between atoms: C_19  and  C_27
REMARK   11  A    between atoms: C_21  and  N_22
REMARK                            x       y       z     vdW  Elec       q    Type
REMARK                         _______ _______ _______ _____ _____    ______ ____
ROOT
ATOM      1  C   UNL     1       4.012   5.505  18.990  0.00  0.00    +0.000 C 
ENDROOT
BRANCH   1   3
ATOM      2  C   UNL     1       1.770   5.618  18.198  0.00  0.00    +0.000 C 
ATOM      3  N   UNL     1       3.173   5.973  17.855  0.00  0.00    +0.000 NA
BRANCH   3   4
ATOM      4  C   UNL     1       3.283   7.427  17.689  0.00  0.00    +0.000 C 
BRANCH   4   5
ATOM      5  C   UNL     1       2.331   8.217  18.535  0.00  0.00    +0.000 A 
ATOM      6  C   UNL     1       2.140   7.858  19.869  0.00  0.00    +0.000 A 
ATOM      7  C   UNL     1       1.228   8.556  20.640  0.00  0.00    +0.000 A 
ATOM      8  C   UNL     1       0.532   9.664  20.124  0.00  0.00    +0.000 A 
ATOM      9  C   UNL     1       0.738  10.012  18.780  0.00  0.00    +0.000 A 
ATOM     10  C   UNL     1       1.617   9.285  17.987  0.00  0.00    +0.000 A 
BRANCH   8  11
ATOM     11  C   UNL     1      -0.373  10.432  20.990  0.00  0.00    +0.000 A 
ATOM     12  C   UNL     1      -1.182  11.446  20.440  0.00  0.00    +0.000 A 
ATOM     13  C   UNL     1      -2.018  12.219  21.238  0.00  0.00    +0.000 A 
ATOM     14  C   UNL     1      -2.081  11.971  22.608  0.00  0.00    +0.000 A 
ATOM     15  C   UNL     1      -1.306  10.953  23.174  0.00  0.00    +0.000 A 
ATOM     16  C   UNL     1      -0.454  10.196  22.371  0.00  0.00    +0.000 A 
BRANCH  14  17
ATOM     17  C   UNL     1      -2.940  12.769  23.431  0.00  0.00    +0.000 C 
ATOM     18  N   UNL     1      -3.635  13.408  24.099  0.00  0.00    +0.000 NA
ENDBRANCH  14  17
ENDBRANCH   8  11
ENDBRANCH   4   5
ENDBRANCH   3   4
ENDBRANCH   1   3
BRANCH   1  19
ATOM     19  C   UNL     1       5.169   4.449  18.812  0.00  0.00    +0.000 C 
BRANCH  19  20
ATOM     20  C   UNL     1       5.767   4.489  17.384  0.00  0.00    +0.000 A 
ATOM     21  C   UNL     1       5.054   3.910  16.313  0.00  0.00    +0.000 A 
ATOM     22  C   UNL     1       5.515   4.009  14.997  0.00  0.00    +0.000 A 
ATOM     23  C   UNL     1       6.722   4.638  14.735  0.00  0.00    +0.000 A 
ATOM     24  F   UNL     1       7.168   4.720  13.476  0.00  0.00    +0.000 F 
ATOM     25  C   UNL     1       7.471   5.182  15.759  0.00  0.00    +0.000 A 
ATOM     26  C   UNL     1       6.989   5.117  17.061  0.00  0.00    +0.000 A 
ATOM     27  F   UNL     1       7.756   5.699  17.992  0.00  0.00    +0.000 F 
ENDBRANCH  19  20
BRANCH  19  28
ATOM     28  O   UNL     1       6.235   4.852  19.708  0.00  0.00    +0.000 OA
ATOM     29  H   UNL     1       6.804   4.063  19.818  0.00  0.00    +0.000 HD
ENDBRANCH  19  28
BRANCH  19  30
ATOM     30  C   UNL     1       4.844   2.980  19.195  0.00  0.00    +0.000 C 
BRANCH  30  31
ATOM     31  N   UNL     1       3.464   2.673  19.461  0.00  0.00    +0.000 N 
ATOM     32  C   UNL     1       2.799   2.848  20.634  0.00  0.00    +0.000 A 
ATOM     33  N   UNL     1       1.551   2.472  20.486  0.00  0.00    +0.000 NA
ATOM     34  C   UNL     1       1.499   2.091  19.178  0.00  0.00    +0.000 A 
ATOM     35  N   UNL     1       2.641   2.220  18.499  0.00  0.00    +0.000 NA
ENDBRANCH  30  31
ENDBRANCH  19  30
ENDBRANCH   1  19
TORSDOF 10
ENDMDL
MODEL 9
REMARK VINA RESULT:      -7.7      4.309     10.134
REMARK  Name = 
REMARK  11 active torsions:
REMARK  status: ('A' for Active; 'I' for Inactive)
REMARK    1  A    between atoms: C_1  and  N_2
REMARK    2  A    between atoms: N_2  and  C_3
REMARK    3  A    between atoms: N_2  and  C_18
REMARK    4  A    between atoms: C_3  and  C_4
REMARK    5  A    between atoms: C_7  and  C_8
REMARK    6  A    between atoms: C_11  and  C_12
REMARK    7  A    between atoms: C_18  and  C_19
REMARK    8  A    between atoms: C_19  and  O_20
REMARK    9  A    between atoms: C_19  and  C_21
REMARK   10  A    between atoms: C_19  and  C_27
REMARK   11  A    between atoms: C_21  and  N_22
REMARK                            x       y       z     vdW  Elec       q    Type
REMARK                         _______ _______ _______ _____ _____    ______ ____
ROOT
ATOM      1  C   UNL     1      -0.779   9.755  20.691  0.00  0.00    +0.000 C 
ENDROOT
BRANCH   1   3
ATOM      2  C   UNL     1      -0.012   9.864  22.941  0.00  0.00    +0.000 C 
ATOM      3  N   UNL     1       0.350   9.378  21.584  0.00  0.00    +0.000 NA
BRANCH   3   4
ATOM      4  C   UNL     1       0.526   7.921  21.616  0.00  0.00    +0.000 C 
BRANCH   4   5
ATOM      5  C   UNL     1       1.399   7.382  20.524  0.00  0.00    +0.000 A 
ATOM      6  C   UNL     1       1.798   6.047  20.561  0.00  0.00    +0.000 A 
ATOM      7  C   UNL     1       2.642   5.559  19.579  0.00  0.00    +0.000 A 
ATOM      8  C   UNL     1       3.058   6.366  18.506  0.00  0.00    +0.000 A 
ATOM      9  C   UNL     1       2.644   7.708  18.483  0.00  0.00    +0.000 A 
ATOM     10  C   UNL     1       1.835   8.217  19.492  0.00  0.00    +0.000 A 
BRANCH   8  11
ATOM     11  C   UNL     1       3.891   5.799  17.437  0.00  0.00    +0.000 A 
ATOM     12  C   UNL     1       4.614   6.651  16.580  0.00  0.00    +0.000 A 
ATOM     13  C   UNL     1       5.379   6.147  15.534  0.00  0.00    +0.000 A 
ATOM     14  C   UNL     1       5.457   4.769  15.342  0.00  0.00    +0.000 A 
ATOM     15  C   UNL     1       4.769   3.901  16.196  0.00  0.00    +0.000 A 
ATOM     16  C   UNL     1       3.986   4.414  17.230  0.00  0.00    +0.000 A 
BRANCH  14  17
ATOM     17  C   UNL     1       6.243   4.249  14.263  0.00  0.00    +0.000 C 
ATOM     18  N   UNL     1       6.876   3.824  13.393  0.00  0.00    +0.000 NA
ENDBRANCH  14  17
ENDBRANCH   8  11
ENDBRANCH   4   5
ENDBRANCH   3   4
ENDBRANCH   1   3
BRANCH   1  19
ATOM     19  C   UNL     1      -0.756  11.053  19.797  0.00  0.00    +0.000 C 
BRANCH  19  20
ATOM     20  C   UNL     1      -1.719  10.936  18.590  0.00  0.00    +0.000 A 
ATOM     21  C   UNL     1      -1.387  10.086  17.514  0.00  0.00    +0.000 A 
ATOM     22  C   UNL     1      -2.272   9.880  16.451  0.00  0.00    +0.000 A 
ATOM     23  C   UNL     1      -3.478  10.563  16.419  0.00  0.00    +0.000 A 
ATOM     24  F   UNL     1      -4.319  10.375  15.394  0.00  0.00    +0.000 F 
ATOM     25  C   UNL     1      -3.824  11.436  17.431  0.00  0.00    +0.000 A 
ATOM     26  C   UNL     1      -2.958  11.605  18.504  0.00  0.00    +0.000 A 
ATOM     27  F   UNL     1      -3.381  12.440  19.463  0.00  0.00    +0.000 F 
ENDBRANCH  19  20
BRANCH  19  28
ATOM     28  O   UNL     1      -1.271  12.129  20.622  0.00  0.00    +0.000 OA
ATOM     29  H   UNL     1      -0.537  12.769  20.716  0.00  0.00    +0.000 HD
ENDBRANCH  19  28
BRANCH  19  30
ATOM     30  C   UNL     1       0.633  11.543  19.306  0.00  0.00    +0.000 C 
BRANCH  30  31
ATOM     31  N   UNL     1       1.121  12.771  19.875  0.00  0.00    +0.000 N 
ATOM     32  C   UNL     1       1.251  13.969  19.245  0.00  0.00    +0.000 A 
ATOM     33  N   UNL     1       1.711  14.858  20.093  0.00  0.00    +0.000 NA
ATOM     34  C   UNL     1       1.825  14.147  21.250  0.00  0.00    +0.000 A 
ATOM     35  N   UNL     1       1.451  12.867  21.175  0.00  0.00    +0.000 NA
ENDBRANCH  30  31
ENDBRANCH  19  30
ENDBRANCH   1  19
TORSDOF 10
ENDMDL
