MODEL 1
REMARK VINA RESULT:      -8.0      0.000      0.000
REMARK  Name = 
REMARK  11 active torsions:
REMARK  status: ('A' for Active; 'I' for Inactive)
REMARK    1  A    between atoms: C_1  and  C_2
REMARK    2  A    between atoms: C_2  and  C_3
REMARK    3  A    between atoms: C_4  and  C_5
REMARK    4  A    between atoms: C_5  and  O_6
REMARK    5  A    between atoms: O_6  and  C_7
REMARK    6  A    between atoms: C_10  and  C_11
REMARK    7  A    between atoms: N_14  and  O_15
REMARK    8  A    between atoms: C_18  and  C_19
REMARK    9  A    between atoms: C_19  and  C_20
REMARK   10  A    between atoms: C_20  and  C_21
REMARK   11  A    between atoms: C_20  and  C_22
REMARK                            x       y       z     vdW  Elec       q    Type
REMARK                         _______ _______ _______ _____ _____    ______ ____
ROOT
ATOM      1  C   UNL     1       2.988   5.907  19.379  0.00  0.00    +0.000 C 
ATOM      2  C   UNL     1       2.263   4.915  20.264  0.00  0.00    +0.000 C 
ATOM      3  O   UNL     1       2.220   4.917  21.486  0.00  0.00    +0.000 OA
ATOM      4  N   UNL     1       1.595   4.063  19.443  0.00  0.00    +0.000 N 
ATOM      5  C   UNL     1       1.767   4.311  18.119  0.00  0.00    +0.000 C 
ATOM      6  O   UNL     1       1.126   3.885  17.171  0.00  0.00    +0.000 OA
ATOM      7  C   UNL     1       2.990   5.192  18.006  0.00  0.00    +0.000 C 
ENDROOT
BRANCH   1  11
ATOM      8  C   UNL     1       1.062   9.792  19.118  0.00  0.00    +0.000 A 
ATOM      9  C   UNL     1       1.727   9.234  18.022  0.00  0.00    +0.000 A 
ATOM     10  C   UNL     1       2.327   7.976  18.121  0.00  0.00    +0.000 A 
ATOM     11  C   UNL     1       2.317   7.271  19.330  0.00  0.00    +0.000 A 
ATOM     12  C   UNL     1       1.673   7.852  20.435  0.00  0.00    +0.000 A 
ATOM     13  C   UNL     1       1.062   9.107  20.329  0.00  0.00    +0.000 A 
BRANCH   8  14
ATOM     14  O   UNL     1       0.395  10.985  19.096  0.00  0.00    +0.000 OA
BRANCH  14  15
ATOM     15  C   UNL     1      -1.024  10.859  18.996  0.00  0.00    +0.000 C 
BRANCH  15  19
ATOM     16  C   UNL     1      -2.740  10.446  15.521  0.00  0.00    +0.000 C 
ATOM     17  C   UNL     1      -2.477  10.323  16.997  0.00  0.00    +0.000 C 
ATOM     18  C   UNL     1      -3.435   9.480  17.795  0.00  0.00    +0.000 C 
ATOM     19  C   UNL     1      -1.422  10.958  17.556  0.00  0.00    +0.000 C 
ENDBRANCH  15  19
ENDBRANCH  14  15
ENDBRANCH   8  14
ENDBRANCH   1  11
BRANCH   4  20
ATOM     20  O   UNL     1       0.668   3.150  19.931  0.00  0.00    +0.000 OA
ATOM     21  H   UNL     1       0.077   3.029  19.161  0.00  0.00    +0.000 HD
ENDBRANCH   4  20
BRANCH   7  22
ATOM     22  C   UNL     1       4.249   4.305  17.860  0.00  0.00    +0.000 C 
BRANCH  22  23
ATOM     23  C   UNL     1       5.357   4.888  16.959  0.00  0.00    +0.000 C 
ATOM     24  C   UNL     1       6.745   4.723  17.573  0.00  0.00    +0.000 C 
ATOM     25  C   UNL     1       5.309   4.235  15.575  0.00  0.00    +0.000 C 
ENDBRANCH  22  23
ENDBRANCH   7  22
TORSDOF 7
ENDMDL
MODEL 2
REMARK VINA RESULT:      -7.9      1.914      2.548
REMARK  Name = 
REMARK  11 active torsions:
REMARK  status: ('A' for Active; 'I' for Inactive)
REMARK    1  A    between atoms: C_1  and  C_2
REMARK    2  A    between atoms: C_2  and  C_3
REMARK    3  A    between atoms: C_4  and  C_5
REMARK    4  A    between atoms: C_5  and  O_6
REMARK    5  A    between atoms: O_6  and  C_7
REMARK    6  A    between atoms: C_10  and  C_11
REMARK    7  A    between atoms: N_14  and  O_15
REMARK    8  A    between atoms: C_18  and  C_19
REMARK    9  A    between atoms: C_19  and  C_20
REMARK   10  A    between atoms: C_20  and  C_21
REMARK   11  A    between atoms: C_20  and  C_22
REMARK                            x       y       z     vdW  Elec       q    Type
REMARK                         _______ _______ _______ _____ _____    ______ ____
ROOT
ATOM      1  C   UNL     1       4.886   5.213  17.794  0.00  0.00    +0.000 C 
ATOM      2  C   UNL     1       5.457   4.447  18.968  0.00  0.00    +0.000 C 
ATOM      3  O   UNL     1       6.259   4.859  19.793  0.00  0.00    +0.000 OA
ATOM      4  N   UNL     1       4.848   3.232  18.984  0.00  0.00    +0.000 N 
ATOM      5  C   UNL     1       3.952   3.042  17.982  0.00  0.00    +0.000 C 
ATOM      6  O   UNL     1       3.096   2.177  17.874  0.00  0.00    +0.000 OA
ATOM      7  C   UNL     1       4.252   4.091  16.936  0.00  0.00    +0.000 C 
ENDROOT
BRANCH   1  11
ATOM      8  C   UNL     1       2.008   8.292  18.847  0.00  0.00    +0.000 A 
ATOM      9  C   UNL     1       2.792   8.391  17.694  0.00  0.00    +0.000 A 
ATOM     10  C   UNL     1       3.700   7.383  17.363  0.00  0.00    +0.000 A 
ATOM     11  C   UNL     1       3.881   6.278  18.203  0.00  0.00    +0.000 A 
ATOM     12  C   UNL     1       3.111   6.200  19.376  0.00  0.00    +0.000 A 
ATOM     13  C   UNL     1       2.193   7.206  19.697  0.00  0.00    +0.000 A 
BRANCH   8  14
ATOM     14  O   UNL     1       1.051   9.195  19.217  0.00  0.00    +0.000 OA
BRANCH  14  15
ATOM     15  C   UNL     1       0.325   9.759  18.124  0.00  0.00    +0.000 C 
BRANCH  15  19
ATOM     16  C   UNL     1      -3.096  11.564  18.599  0.00  0.00    +0.000 C 
ATOM     17  C   UNL     1      -2.005  10.730  17.985  0.00  0.00    +0.000 C 
ATOM     18  C   UNL     1      -2.269  10.158  16.618  0.00  0.00    +0.000 C 
ATOM     19  C   UNL     1      -0.852  10.515  18.657  0.00  0.00    +0.000 C 
ENDBRANCH  15  19
ENDBRANCH  14  15
ENDBRANCH   8  14
ENDBRANCH   1  11
BRANCH   4  20
ATOM     20  O   UNL     1       4.994   2.353  20.050  0.00  0.00    +0.000 OA
ATOM     21  H   UNL     1       5.878   2.593  20.392  0.00  0.00    +0.000 HD
ENDBRANCH   4  20
BRANCH   7  22
ATOM     22  C   UNL     1       5.285   3.531  15.930  0.00  0.00    +0.000 C 
BRANCH  22  23
ATOM     23  C   UNL     1       5.773   4.537  14.868  0.00  0.00    +0.000 C 
ATOM     24  C   UNL     1       7.194   5.022  15.144  0.00  0.00    +0.000 C 
ATOM     25  C   UNL     1       5.689   3.913  13.472  0.00  0.00    +0.000 C 
ENDBRANCH  22  23
ENDBRANCH   7  22
TORSDOF 7
ENDMDL
MODEL 3
REMARK VINA RESULT:      -7.9      1.914      2.737
REMARK  Name = 
REMARK  11 active torsions:
REMARK  status: ('A' for Active; 'I' for Inactive)
REMARK    1  A    between atoms: C_1  and  C_2
REMARK    2  A    between atoms: C_2  and  C_3
REMARK    3  A    between atoms: C_4  and  C_5
REMARK    4  A    between atoms: C_5  and  O_6
REMARK    5  A    between atoms: O_6  and  C_7
REMARK    6  A    between atoms: C_10  and  C_11
REMARK    7  A    between atoms: N_14  and  O_15
REMARK    8  A    between atoms: C_18  and  C_19
REMARK    9  A    between atoms: C_19  and  C_20
REMARK   10  A    between atoms: C_20  and  C_21
REMARK   11  A    between atoms: C_20  and  C_22
REMARK                            x       y       z     vdW  Elec       q    Type
REMARK                         _______ _______ _______ _____ _____    ______ ____
ROOT
ATOM      1  C   UNL     1       4.844   5.209  17.783  0.00  0.00    +0.000 C 
ATOM      2  C   UNL     1       5.481   4.488  18.952  0.00  0.00    +0.000 C 
ATOM      3  O   UNL     1       6.300   4.943  19.736  0.00  0.00    +0.000 OA
ATOM      4  N   UNL     1       4.909   3.257  19.019  0.00  0.00    +0.000 N 
ATOM      5  C   UNL     1       3.982   3.017  18.056  0.00  0.00    +0.000 C 
ATOM      6  O   UNL     1       3.149   2.126  18.000  0.00  0.00    +0.000 OA
ATOM      7  C   UNL     1       4.212   4.049  16.976  0.00  0.00    +0.000 C 
ENDROOT
BRANCH   1  11
ATOM      8  C   UNL     1       1.940   8.156  19.107  0.00  0.00    +0.000 A 
ATOM      9  C   UNL     1       2.198   7.002  19.853  0.00  0.00    +0.000 A 
ATOM     10  C   UNL     1       3.147   6.074  19.418  0.00  0.00    +0.000 A 
ATOM     11  C   UNL     1       3.823   6.254  18.206  0.00  0.00    +0.000 A 
ATOM     12  C   UNL     1       3.536   7.402  17.448  0.00  0.00    +0.000 A 
ATOM     13  C   UNL     1       2.594   8.336  17.892  0.00  0.00    +0.000 A 
BRANCH   8  14
ATOM     14  O   UNL     1       1.077   9.148  19.484  0.00  0.00    +0.000 OA
BRANCH  14  15
ATOM     15  C   UNL     1       0.663  10.000  18.414  0.00  0.00    +0.000 C 
BRANCH  15  19
ATOM     16  C   UNL     1      -2.838  11.687  18.702  0.00  0.00    +0.000 C 
ATOM     17  C   UNL     1      -1.723  10.808  18.205  0.00  0.00    +0.000 C 
ATOM     18  C   UNL     1      -2.003   9.974  16.984  0.00  0.00    +0.000 C 
ATOM     19  C   UNL     1      -0.535  10.783  18.851  0.00  0.00    +0.000 C 
ENDBRANCH  15  19
ENDBRANCH  14  15
ENDBRANCH   8  14
ENDBRANCH   1  11
BRANCH   4  20
ATOM     20  O   UNL     1       5.121   2.408  20.098  0.00  0.00    +0.000 OA
ATOM     21  H   UNL     1       4.286   1.898  20.124  0.00  0.00    +0.000 HD
ENDBRANCH   4  20
BRANCH   7  22
ATOM     22  C   UNL     1       5.223   3.495  15.945  0.00  0.00    +0.000 C 
BRANCH  22  23
ATOM     23  C   UNL     1       5.765   4.532  14.940  0.00  0.00    +0.000 C 
ATOM     24  C   UNL     1       7.168   5.010  15.305  0.00  0.00    +0.000 C 
ATOM     25  C   UNL     1       5.756   3.950  13.524  0.00  0.00    +0.000 C 
ENDBRANCH  22  23
ENDBRANCH   7  22
TORSDOF 7
ENDMDL
MODEL 4
REMARK VINA RESULT:      -7.9      0.754      1.125
REMARK  Name = 
REMARK  11 active torsions:
REMARK  status: ('A' for Active; 'I' for Inactive)
REMARK    1  A    between atoms: C_1  and  C_2
REMARK    2  A    between atoms: C_2  and  C_3
REMARK    3  A    between atoms: C_4  and  C_5
REMARK    4  A    between atoms: C_5  and  O_6
REMARK    5  A    between atoms: O_6  and  C_7
REMARK    6  A    between atoms: C_10  and  C_11
REMARK    7  A    between atoms: N_14  and  O_15
REMARK    8  A    between atoms: C_18  and  C_19
REMARK    9  A    between atoms: C_19  and  C_20
REMARK   10  A    between atoms: C_20  and  C_21
REMARK   11  A    between atoms: C_20  and  C_22
REMARK                            x       y       z     vdW  Elec       q    Type
REMARK                         _______ _______ _______ _____ _____    ______ ____
ROOT
ATOM      1  C   UNL     1       2.891   5.850  19.582  0.00  0.00    +0.000 C 
ATOM      2  C   UNL     1       2.195   4.747  20.351  0.00  0.00    +0.000 C 
ATOM      3  O   UNL     1       2.162   4.606  21.565  0.00  0.00    +0.000 OA
ATOM      4  N   UNL     1       1.539   3.981  19.440  0.00  0.00    +0.000 N 
ATOM      5  C   UNL     1       1.694   4.383  18.153  0.00  0.00    +0.000 C 
ATOM      6  O   UNL     1       1.056   4.056  17.165  0.00  0.00    +0.000 OA
ATOM      7  C   UNL     1       2.898   5.299  18.136  0.00  0.00    +0.000 C 
ENDROOT
BRANCH   1  11
ATOM      8  C   UNL     1       0.877   9.694  19.784  0.00  0.00    +0.000 A 
ATOM      9  C   UNL     1       1.519   9.268  18.617  0.00  0.00    +0.000 A 
ATOM     10  C   UNL     1       2.147   8.022  18.566  0.00  0.00    +0.000 A 
ATOM     11  C   UNL     1       2.191   7.195  19.695  0.00  0.00    +0.000 A 
ATOM     12  C   UNL     1       1.570   7.643  20.873  0.00  0.00    +0.000 A 
ATOM     13  C   UNL     1       0.930   8.887  20.916  0.00  0.00    +0.000 A 
BRANCH   8  14
ATOM     14  O   UNL     1       0.184  10.866  19.906  0.00  0.00    +0.000 OA
BRANCH  14  15
ATOM     15  C   UNL     1      -0.315  11.382  18.672  0.00  0.00    +0.000 C 
BRANCH  15  19
ATOM     16  C   UNL     1      -4.088  10.773  17.902  0.00  0.00    +0.000 C 
ATOM     17  C   UNL     1      -2.589  10.681  17.815  0.00  0.00    +0.000 C 
ATOM     18  C   UNL     1      -2.020   9.819  16.720  0.00  0.00    +0.000 C 
ATOM     19  C   UNL     1      -1.812  11.347  18.699  0.00  0.00    +0.000 C 
ENDBRANCH  15  19
ENDBRANCH  14  15
ENDBRANCH   8  14
ENDBRANCH   1  11
BRANCH   4  20
ATOM     20  O   UNL     1       0.635   2.997  19.825  0.00  0.00    +0.000 OA
ATOM     21  H   UNL     1       0.987   2.728  20.697  0.00  0.00    +0.000 HD
ENDBRANCH   4  20
BRANCH   7  22
ATOM     22  C   UNL     1       4.174   4.463  17.882  0.00  0.00    +0.000 C 
BRANCH  22  23
ATOM     23  C   UNL     1       5.157   5.068  16.859  0.00  0.00    +0.000 C 
ATOM     24  C   UNL     1       5.204   4.266  15.561  0.00  0.00    +0.000 C 
ATOM     25  C   UNL     1       4.785   6.525  16.567  0.00  0.00    +0.000 C 
ENDBRANCH  22  23
ENDBRANCH   7  22
TORSDOF 7
ENDMDL
MODEL 5
REMARK VINA RESULT:      -7.9      2.577      3.701
REMARK  Name = 
REMARK  11 active torsions:
REMARK  status: ('A' for Active; 'I' for Inactive)
REMARK    1  A    between atoms: C_1  and  C_2
REMARK    2  A    between atoms: C_2  and  C_3
REMARK    3  A    between atoms: C_4  and  C_5
REMARK    4  A    between atoms: C_5  and  O_6
REMARK    5  A    between atoms: O_6  and  C_7
REMARK    6  A    between atoms: C_10  and  C_11
REMARK    7  A    between atoms: N_14  and  O_15
REMARK    8  A    between atoms: C_18  and  C_19
REMARK    9  A    between atoms: C_19  and  C_20
REMARK   10  A    between atoms: C_20  and  C_21
REMARK   11  A    between atoms: C_20  and  C_22
REMARK                            x       y       z     vdW  Elec       q    Type
REMARK                         _______ _______ _______ _____ _____    ______ ____
ROOT
ATOM      1  C   UNL     1       3.871   5.771  17.631  0.00  0.00    +0.000 C 
ATOM      2  C   UNL     1       5.073   6.262  16.852  0.00  0.00    +0.000 C 
ATOM      3  O   UNL     1       5.067   6.808  15.759  0.00  0.00    +0.000 OA
ATOM      4  N   UNL     1       6.165   6.055  17.636  0.00  0.00    +0.000 N 
ATOM      5  C   UNL     1       5.893   5.478  18.834  0.00  0.00    +0.000 C 
ATOM      6  O   UNL     1       6.606   5.390  19.821  0.00  0.00    +0.000 OA
ATOM      7  C   UNL     1       4.514   4.869  18.711  0.00  0.00    +0.000 C 
ENDROOT
BRANCH   1  11
ATOM      8  C   UNL     1       1.524   8.948  19.440  0.00  0.00    +0.000 A 
ATOM      9  C   UNL     1       1.788   7.757  20.123  0.00  0.00    +0.000 A 
ATOM     10  C   UNL     1       2.558   6.754  19.531  0.00  0.00    +0.000 A 
ATOM     11  C   UNL     1       3.040   6.897  18.225  0.00  0.00    +0.000 A 
ATOM     12  C   UNL     1       2.744   8.084  17.533  0.00  0.00    +0.000 A 
ATOM     13  C   UNL     1       1.983   9.093  18.134  0.00  0.00    +0.000 A 
BRANCH   8  14
ATOM     14  O   UNL     1       0.835  10.007  19.961  0.00  0.00    +0.000 OA
BRANCH  14  15
ATOM     15  C   UNL     1       0.594  11.063  19.030  0.00  0.00    +0.000 C 
BRANCH  15  19
ATOM     16  C   UNL     1      -3.232  11.522  18.444  0.00  0.00    +0.000 C 
ATOM     17  C   UNL     1      -1.830  10.992  18.314  0.00  0.00    +0.000 C 
ATOM     18  C   UNL     1      -1.595   9.927  17.277  0.00  0.00    +0.000 C 
ATOM     19  C   UNL     1      -0.846  11.466  19.111  0.00  0.00    +0.000 C 
ENDBRANCH  15  19
ENDBRANCH  14  15
ENDBRANCH   8  14
ENDBRANCH   1  11
BRANCH   4  20
ATOM     20  O   UNL     1       7.411   6.574  17.307  0.00  0.00    +0.000 OA
ATOM     21  H   UNL     1       7.955   6.299  18.074  0.00  0.00    +0.000 HD
ENDBRANCH   4  20
BRANCH   7  22
ATOM     22  C   UNL     1       4.640   3.416  18.197  0.00  0.00    +0.000 C 
BRANCH  22  23
ATOM     23  C   UNL     1       3.563   2.444  18.720  0.00  0.00    +0.000 C 
ATOM     24  C   UNL     1       2.983   2.892  20.059  0.00  0.00    +0.000 C 
ATOM     25  C   UNL     1       2.445   2.288  17.684  0.00  0.00    +0.000 C 
ENDBRANCH  22  23
ENDBRANCH   7  22
TORSDOF 7
ENDMDL
MODEL 6
REMARK VINA RESULT:      -7.8      1.588      2.604
REMARK  Name = 
REMARK  11 active torsions:
REMARK  status: ('A' for Active; 'I' for Inactive)
REMARK    1  A    between atoms: C_1  and  C_2
REMARK    2  A    between atoms: C_2  and  C_3
REMARK    3  A    between atoms: C_4  and  C_5
REMARK    4  A    between atoms: C_5  and  O_6
REMARK    5  A    between atoms: O_6  and  C_7
REMARK    6  A    between atoms: C_10  and  C_11
REMARK    7  A    between atoms: N_14  and  O_15
REMARK    8  A    between atoms: C_18  and  C_19
REMARK    9  A    between atoms: C_19  and  C_20
REMARK   10  A    between atoms: C_20  and  C_21
REMARK   11  A    between atoms: C_20  and  C_22
REMARK                            x       y       z     vdW  Elec       q    Type
REMARK                         _______ _______ _______ _____ _____    ______ ____
ROOT
ATOM      1  C   UNL     1       2.932   5.872  19.485  0.00  0.00    +0.000 C 
ATOM      2  C   UNL     1       2.195   4.838  20.308  0.00  0.00    +0.000 C 
ATOM      3  O   UNL     1       2.144   4.770  21.527  0.00  0.00    +0.000 OA
ATOM      4  N   UNL     1       1.525   4.039  19.435  0.00  0.00    +0.000 N 
ATOM      5  C   UNL     1       1.707   4.360  18.129  0.00  0.00    +0.000 C 
ATOM      6  O   UNL     1       1.069   3.995  17.154  0.00  0.00    +0.000 OA
ATOM      7  C   UNL     1       2.938   5.237  18.074  0.00  0.00    +0.000 C 
ENDROOT
BRANCH   1  11
ATOM      8  C   UNL     1       1.036   9.781  19.436  0.00  0.00    +0.000 A 
ATOM      9  C   UNL     1       1.690   9.274  18.309  0.00  0.00    +0.000 A 
ATOM     10  C   UNL     1       2.280   8.008  18.339  0.00  0.00    +0.000 A 
ATOM     11  C   UNL     1       2.272   7.242  19.510  0.00  0.00    +0.000 A 
ATOM     12  C   UNL     1       1.639   7.771  20.648  0.00  0.00    +0.000 A 
ATOM     13  C   UNL     1       1.037   9.034  20.610  0.00  0.00    +0.000 A 
BRANCH   8  14
ATOM     14  O   UNL     1       0.378  10.978  19.480  0.00  0.00    +0.000 OA
BRANCH  14  15
ATOM     15  C   UNL     1      -0.928  10.906  20.055  0.00  0.00    +0.000 C 
BRANCH  15  19
ATOM     16  C   UNL     1      -1.375  13.098  23.247  0.00  0.00    +0.000 C 
ATOM     17  C   UNL     1      -1.135  11.899  22.372  0.00  0.00    +0.000 C 
ATOM     18  C   UNL     1      -0.939  10.576  23.063  0.00  0.00    +0.000 C 
ATOM     19  C   UNL     1      -1.095  12.033  21.026  0.00  0.00    +0.000 C 
ENDBRANCH  15  19
ENDBRANCH  14  15
ENDBRANCH   8  14
ENDBRANCH   1  11
BRANCH   4  20
ATOM     20  O   UNL     1       0.588   3.107  19.865  0.00  0.00    +0.000 OA
ATOM     21  H   UNL     1       0.312   2.692  19.023  0.00  0.00    +0.000 HD
ENDBRANCH   4  20
BRANCH   7  22
ATOM     22  C   UNL     1       4.191   4.350  17.885  0.00  0.00    +0.000 C 
BRANCH  22  23
ATOM     23  C   UNL     1       5.290   4.956  16.989  0.00  0.00    +0.000 C 
ATOM     24  C   UNL     1       5.580   4.089  15.766  0.00  0.00    +0.000 C 
ATOM     25  C   UNL     1       4.896   6.371  16.553  0.00  0.00    +0.000 C 
ENDBRANCH  22  23
ENDBRANCH   7  22
TORSDOF 7
ENDMDL
MODEL 7
REMARK VINA RESULT:      -7.8      0.628      1.316
REMARK  Name = 
REMARK  11 active torsions:
REMARK  status: ('A' for Active; 'I' for Inactive)
REMARK    1  A    between atoms: C_1  and  C_2
REMARK    2  A    between atoms: C_2  and  C_3
REMARK    3  A    between atoms: C_4  and  C_5
REMARK    4  A    between atoms: C_5  and  O_6
REMARK    5  A    between atoms: O_6  and  C_7
REMARK    6  A    between atoms: C_10  and  C_11
REMARK    7  A    between atoms: N_14  and  O_15
REMARK    8  A    between atoms: C_18  and  C_19
REMARK    9  A    between atoms: C_19  and  C_20
REMARK   10  A    between atoms: C_20  and  C_21
REMARK   11  A    between atoms: C_20  and  C_22
REMARK                            x       y       z     vdW  Elec       q    Type
REMARK                         _______ _______ _______ _____ _____    ______ ____
ROOT
ATOM      1  C   UNL     1       3.255   5.773  19.356  0.00  0.00    +0.000 C 
ATOM      2  C   UNL     1       2.502   4.734  20.161  0.00  0.00    +0.000 C 
ATOM      3  O   UNL     1       2.306   4.741  21.367  0.00  0.00    +0.000 OA
ATOM      4  N   UNL     1       2.011   3.826  19.277  0.00  0.00    +0.000 N 
ATOM      5  C   UNL     1       2.328   4.077  17.981  0.00  0.00    +0.000 C 
ATOM      6  O   UNL     1       1.847   3.595  16.967  0.00  0.00    +0.000 OA
ATOM      7  C   UNL     1       3.485   5.051  18.006  0.00  0.00    +0.000 C 
ENDROOT
BRANCH   1  11
ATOM      8  C   UNL     1       1.082   9.521  19.032  0.00  0.00    +0.000 A 
ATOM      9  C   UNL     1       1.086   8.781  20.219  0.00  0.00    +0.000 A 
ATOM     10  C   UNL     1       1.804   7.586  20.309  0.00  0.00    +0.000 A 
ATOM     11  C   UNL     1       2.493   7.079  19.200  0.00  0.00    +0.000 A 
ATOM     12  C   UNL     1       2.458   7.813  18.002  0.00  0.00    +0.000 A 
ATOM     13  C   UNL     1       1.749   9.016  17.920  0.00  0.00    +0.000 A 
BRANCH   8  14
ATOM     14  O   UNL     1       0.462  10.729  18.871  0.00  0.00    +0.000 OA
BRANCH  14  15
ATOM     15  C   UNL     1      -0.964  10.655  18.851  0.00  0.00    +0.000 C 
BRANCH  15  19
ATOM     16  C   UNL     1      -2.952   9.803  15.608  0.00  0.00    +0.000 C 
ATOM     17  C   UNL     1      -2.587  10.433  16.924  0.00  0.00    +0.000 C 
ATOM     18  C   UNL     1      -3.582  11.390  17.524  0.00  0.00    +0.000 C 
ATOM     19  C   UNL     1      -1.407  10.141  17.516  0.00  0.00    +0.000 C 
ENDBRANCH  15  19
ENDBRANCH  14  15
ENDBRANCH   8  14
ENDBRANCH   1  11
BRANCH   4  20
ATOM     20  O   UNL     1       1.102   2.847  19.661  0.00  0.00    +0.000 OA
ATOM     21  H   UNL     1       1.326   2.112  19.055  0.00  0.00    +0.000 HD
ENDBRANCH   4  20
BRANCH   7  22
ATOM     22  C   UNL     1       4.816   4.264  18.035  0.00  0.00    +0.000 C 
BRANCH  22  23
ATOM     23  C   UNL     1       5.833   4.663  16.946  0.00  0.00    +0.000 C 
ATOM     24  C   UNL     1       5.734   3.773  15.710  0.00  0.00    +0.000 C 
ATOM     25  C   UNL     1       5.640   6.132  16.557  0.00  0.00    +0.000 C 
ENDBRANCH  22  23
ENDBRANCH   7  22
TORSDOF 7
ENDMDL
MODEL 8
REMARK VINA RESULT:      -7.8      2.591      3.559
REMARK  Name = 
REMARK  11 active torsions:
REMARK  status: ('A' for Active; 'I' for Inactive)
REMARK    1  A    between atoms: C_1  and  C_2
REMARK    2  A    between atoms: C_2  and  C_3
REMARK    3  A    between atoms: C_4  and  C_5
REMARK    4  A    between atoms: C_5  and  O_6
REMARK    5  A    between atoms: O_6  and  C_7
REMARK    6  A    between atoms: C_10  and  C_11
REMARK    7  A    between atoms: N_14  and  O_15
REMARK    8  A    between atoms: C_18  and  C_19
REMARK    9  A    between atoms: C_19  and  C_20
REMARK   10  A    between atoms: C_20  and  C_21
REMARK   11  A    between atoms: C_20  and  C_22
REMARK                            x       y       z     vdW  Elec       q    Type
REMARK                         _______ _______ _______ _____ _____    ______ ____
ROOT
ATOM      1  C   UNL     1       3.817   5.854  17.553  0.00  0.00    +0.000 C 
ATOM      2  C   UNL     1       5.048   6.393  16.855  0.00  0.00    +0.000 C 
ATOM      3  O   UNL     1       5.080   7.041  15.820  0.00  0.00    +0.000 OA
ATOM      4  N   UNL     1       6.115   6.089  17.641  0.00  0.00    +0.000 N 
ATOM      5  C   UNL     1       5.802   5.406  18.771  0.00  0.00    +0.000 C 
ATOM      6  O   UNL     1       6.487   5.209  19.762  0.00  0.00    +0.000 OA
ATOM      7  C   UNL     1       4.416   4.840  18.557  0.00  0.00    +0.000 C 
ENDROOT
BRANCH   1  11
ATOM      8  C   UNL     1       1.424   8.983  19.385  0.00  0.00    +0.000 A 
ATOM      9  C   UNL     1       1.898   9.101  18.075  0.00  0.00    +0.000 A 
ATOM     10  C   UNL     1       2.653   8.077  17.497  0.00  0.00    +0.000 A 
ATOM     11  C   UNL     1       2.991   6.935  18.233  0.00  0.00    +0.000 A 
ATOM     12  C   UNL     1       2.537   6.838  19.559  0.00  0.00    +0.000 A 
ATOM     13  C   UNL     1       1.770   7.860  20.129  0.00  0.00    +0.000 A 
BRANCH   8  14
ATOM     14  O   UNL     1       0.628   9.903  20.009  0.00  0.00    +0.000 OA
BRANCH  14  15
ATOM     15  C   UNL     1       0.456  11.119  19.279  0.00  0.00    +0.000 C 
BRANCH  15  19
ATOM     16  C   UNL     1      -3.332  11.513  18.452  0.00  0.00    +0.000 C 
ATOM     17  C   UNL     1      -1.912  11.021  18.397  0.00  0.00    +0.000 C 
ATOM     18  C   UNL     1      -1.580  10.004  17.339  0.00  0.00    +0.000 C 
ATOM     19  C   UNL     1      -0.995  11.485  19.277  0.00  0.00    +0.000 C 
ENDBRANCH  15  19
ENDBRANCH  14  15
ENDBRANCH   8  14
ENDBRANCH   1  11
BRANCH   4  20
ATOM     20  O   UNL     1       7.379   6.612  17.395  0.00  0.00    +0.000 OA
ATOM     21  H   UNL     1       7.628   6.158  16.564  0.00  0.00    +0.000 HD
ENDBRANCH   4  20
BRANCH   7  22
ATOM     22  C   UNL     1       4.529   3.440  17.908  0.00  0.00    +0.000 C 
BRANCH  22  23
ATOM     23  C   UNL     1       3.634   2.355  18.540  0.00  0.00    +0.000 C 
ATOM     24  C   UNL     1       3.536   2.499  20.057  0.00  0.00    +0.000 C 
ATOM     25  C   UNL     1       2.237   2.391  17.913  0.00  0.00    +0.000 C 
ENDBRANCH  22  23
ENDBRANCH   7  22
TORSDOF 7
ENDMDL
MODEL 9
REMARK VINA RESULT:      -7.8      1.984      2.818
REMARK  Name = 
REMARK  11 active torsions:
REMARK  status: ('A' for Active; 'I' for Inactive)
REMARK    1  A    between atoms: C_1  and  C_2
REMARK    2  A    between atoms: C_2  and  C_3
REMARK    3  A    between atoms: C_4  and  C_5
REMARK    4  A    between atoms: C_5  and  O_6
REMARK    5  A    between atoms: O_6  and  C_7
REMARK    6  A    between atoms: C_10  and  C_11
REMARK    7  A    between atoms: N_14  and  O_15
REMARK    8  A    between atoms: C_18  and  C_19
REMARK    9  A    between atoms: C_19  and  C_20
REMARK   10  A    between atoms: C_20  and  C_21
REMARK   11  A    between atoms: C_20  and  C_22
REMARK                            x       y       z     vdW  Elec       q    Type
REMARK                         _______ _______ _______ _____ _____    ______ ____
ROOT
ATOM      1  C   UNL     1       2.929   5.851  19.465  0.00  0.00    +0.000 C 
ATOM      2  C   UNL     1       2.234   4.787  20.288  0.00  0.00    +0.000 C 
ATOM      3  O   UNL     1       2.215   4.699  21.507  0.00  0.00    +0.000 OA
ATOM      4  N   UNL     1       1.562   3.988  19.418  0.00  0.00    +0.000 N 
ATOM      5  C   UNL     1       1.704   4.335  18.114  0.00  0.00    +0.000 C 
ATOM      6  O   UNL     1       1.051   3.971  17.148  0.00  0.00    +0.000 OA
ATOM      7  C   UNL     1       2.914   5.240  18.043  0.00  0.00    +0.000 C 
ENDROOT
BRANCH   1  11
ATOM      8  C   UNL     1       0.975   9.720  19.769  0.00  0.00    +0.000 A 
ATOM      9  C   UNL     1       1.028   8.843  20.856  0.00  0.00    +0.000 A 
ATOM     10  C   UNL     1       1.675   7.610  20.744  0.00  0.00    +0.000 A 
ATOM     11  C   UNL     1       2.240   7.205  19.529  0.00  0.00    +0.000 A 
ATOM     12  C   UNL     1       2.156   8.080  18.432  0.00  0.00    +0.000 A 
ATOM     13  C   UNL     1       1.519   9.320  18.552  0.00  0.00    +0.000 A 
BRANCH   8  14
ATOM     14  O   UNL     1       0.421  10.969  19.804  0.00  0.00    +0.000 OA
BRANCH  14  15
ATOM     15  C   UNL     1       0.690  11.694  21.005  0.00  0.00    +0.000 C 
BRANCH  15  19
ATOM     16  C   UNL     1      -2.650  12.207  22.946  0.00  0.00    +0.000 C 
ATOM     17  C   UNL     1      -1.334  11.618  22.518  0.00  0.00    +0.000 C 
ATOM     18  C   UNL     1      -0.891  10.358  23.211  0.00  0.00    +0.000 C 
ATOM     19  C   UNL     1      -0.599  12.220  21.556  0.00  0.00    +0.000 C 
ENDBRANCH  15  19
ENDBRANCH  14  15
ENDBRANCH   8  14
ENDBRANCH   1  11
BRANCH   4  20
ATOM     20  O   UNL     1       0.656   3.029  19.855  0.00  0.00    +0.000 OA
ATOM     21  H   UNL     1      -0.201   3.484  19.724  0.00  0.00    +0.000 HD
ENDBRANCH   4  20
BRANCH   7  22
ATOM     22  C   UNL     1       4.181   4.384  17.809  0.00  0.00    +0.000 C 
BRANCH  22  23
ATOM     23  C   UNL     1       5.240   5.024  16.889  0.00  0.00    +0.000 C 
ATOM     24  C   UNL     1       5.519   4.173  15.652  0.00  0.00    +0.000 C 
ATOM     25  C   UNL     1       4.799   6.431  16.476  0.00  0.00    +0.000 C 
ENDBRANCH  22  23
ENDBRANCH   7  22
TORSDOF 7
ENDMDL
