MODEL 1
REMARK VINA RESULT:      -7.8      0.000      0.000
REMARK  Name = 
REMARK  4 active torsions:
REMARK  status: ('A' for Active; 'I' for Inactive)
REMARK    1  A    between atoms: C_1  and  C_2
REMARK    2  A    between atoms: C_5  and  C_6
REMARK    3  A    between atoms: N_7  and  N_8
REMARK    4  A    between atoms: C_9  and  C_11
REMARK                            x       y       z     vdW  Elec       q    Type
REMARK                         _______ _______ _______ _____ _____    ______ ____
ROOT
ATOM      1  N   UNL     1       7.750   7.479  17.992  0.00  0.00    +0.000 N 
ATOM      2  C   UNL     1       7.632   6.211  18.550  0.00  0.00    +0.000 C 
ATOM      3  O   UNL     1       8.208   5.860  19.579  0.00  0.00    +0.000 OA
ATOM      4  H   UNL     1       7.140   7.766  17.237  0.00  0.00    +0.000 HD
ENDROOT
BRANCH   2   5
ATOM      5  C   UNL     1       6.720   5.303  17.855  0.00  0.00    +0.000 A 
ATOM      6  C   UNL     1       7.135   4.485  16.816  0.00  0.00    +0.000 A 
ATOM      7  N   UNL     1       6.064   3.779  16.354  0.00  0.00    +0.000 N 
ATOM      8  C   UNL     1       4.931   4.138  17.042  0.00  0.00    +0.000 A 
ATOM      9  C   UNL     1       3.611   3.704  16.871  0.00  0.00    +0.000 A 
ATOM     10  C   UNL     1       2.630   4.271  17.685  0.00  0.00    +0.000 A 
ATOM     11  C   UNL     1       2.959   5.235  18.633  0.00  0.00    +0.000 A 
ATOM     12  C   UNL     1       4.285   5.657  18.795  0.00  0.00    +0.000 A 
ATOM     13  C   UNL     1       5.305   5.095  17.993  0.00  0.00    +0.000 A 
ATOM     14  H   UNL     1       6.088   3.115  15.591  0.00  0.00    +0.000 HD
ENDBRANCH   2   5
BRANCH   1  16
ATOM     15  C   UNL     1       8.508   9.623  18.240  0.00  0.00    +0.000 C 
ATOM     16  N   UNL     1       8.578   8.382  18.599  0.00  0.00    +0.000 NA
BRANCH  15  21
ATOM     17  C   UNL     1      12.053  13.434  19.227  0.00  0.00    +0.000 C 
ATOM     18  C   UNL     1      11.030  12.357  19.351  0.00  0.00    +0.000 A 
ATOM     19  C   UNL     1      10.480  11.840  20.505  0.00  0.00    +0.000 A 
ATOM     20  C   UNL     1       9.530  10.816  20.234  0.00  0.00    +0.000 A 
ATOM     21  C   UNL     1       9.377  10.581  18.882  0.00  0.00    +0.000 A 
ATOM     22  S   UNL     1      10.386  11.600  17.953  0.00  0.00    +0.000 S 
ENDBRANCH  15  21
ENDBRANCH   1  16
TORSDOF 3
ENDMDL
MODEL 2
REMARK VINA RESULT:      -7.3      5.735      7.307
REMARK  Name = 
REMARK  4 active torsions:
REMARK  status: ('A' for Active; 'I' for Inactive)
REMARK    1  A    between atoms: C_1  and  C_2
REMARK    2  A    between atoms: C_5  and  C_6
REMARK    3  A    between atoms: N_7  and  N_8
REMARK    4  A    between atoms: C_9  and  C_11
REMARK                            x       y       z     vdW  Elec       q    Type
REMARK                         _______ _______ _______ _____ _____    ______ ____
ROOT
ATOM      1  N   UNL     1       2.621   6.735  19.966  0.00  0.00    +0.000 N 
ATOM      2  C   UNL     1       2.275   5.403  19.773  0.00  0.00    +0.000 C 
ATOM      3  O   UNL     1       1.312   4.861  20.314  0.00  0.00    +0.000 OA
ATOM      4  H   UNL     1       3.324   7.172  19.383  0.00  0.00    +0.000 HD
ENDROOT
BRANCH   2   5
ATOM      5  C   UNL     1       3.112   4.669  18.825  0.00  0.00    +0.000 A 
ATOM      6  C   UNL     1       3.319   3.302  18.920  0.00  0.00    +0.000 A 
ATOM      7  N   UNL     1       4.159   2.910  17.920  0.00  0.00    +0.000 N 
ATOM      8  C   UNL     1       4.548   4.000  17.179  0.00  0.00    +0.000 A 
ATOM      9  C   UNL     1       5.431   4.069  16.094  0.00  0.00    +0.000 A 
ATOM     10  C   UNL     1       5.690   5.325  15.546  0.00  0.00    +0.000 A 
ATOM     11  C   UNL     1       5.086   6.467  16.063  0.00  0.00    +0.000 A 
ATOM     12  C   UNL     1       4.201   6.382  17.146  0.00  0.00    +0.000 A 
ATOM     13  C   UNL     1       3.910   5.123  17.719  0.00  0.00    +0.000 A 
ATOM     14  H   UNL     1       4.482   1.964  17.765  0.00  0.00    +0.000 HD
ENDBRANCH   2   5
BRANCH   1  16
ATOM     15  C   UNL     1       1.345   8.583  20.401  0.00  0.00    +0.000 C 
ATOM     16  N   UNL     1       1.872   7.483  20.832  0.00  0.00    +0.000 NA
BRANCH  15  21
ATOM     17  C   UNL     1      -1.160  12.552  22.858  0.00  0.00    +0.000 C 
ATOM     18  C   UNL     1      -0.622  11.219  22.462  0.00  0.00    +0.000 A 
ATOM     19  C   UNL     1      -0.826  10.005  23.084  0.00  0.00    +0.000 A 
ATOM     20  C   UNL     1      -0.150   8.943  22.420  0.00  0.00    +0.000 A 
ATOM     21  C   UNL     1       0.549   9.374  21.310  0.00  0.00    +0.000 A 
ATOM     22  S   UNL     1       0.382  11.058  21.081  0.00  0.00    +0.000 S 
ENDBRANCH  15  21
ENDBRANCH   1  16
TORSDOF 3
ENDMDL
MODEL 3
REMARK VINA RESULT:      -7.2      1.629      1.833
REMARK  Name = 
REMARK  4 active torsions:
REMARK  status: ('A' for Active; 'I' for Inactive)
REMARK    1  A    between atoms: C_1  and  C_2
REMARK    2  A    between atoms: C_5  and  C_6
REMARK    3  A    between atoms: N_7  and  N_8
REMARK    4  A    between atoms: C_9  and  C_11
REMARK                            x       y       z     vdW  Elec       q    Type
REMARK                         _______ _______ _______ _____ _____    ______ ____
ROOT
ATOM      1  N   UNL     1       7.565   8.113  18.216  0.00  0.00    +0.000 N 
ATOM      2  C   UNL     1       7.384   7.050  17.339  0.00  0.00    +0.000 C 
ATOM      3  O   UNL     1       7.927   6.971  16.237  0.00  0.00    +0.000 OA
ATOM      4  H   UNL     1       7.221   8.057  19.166  0.00  0.00    +0.000 HD
ENDROOT
BRANCH   2   5
ATOM      5  C   UNL     1       6.527   5.971  17.829  0.00  0.00    +0.000 A 
ATOM      6  C   UNL     1       7.025   4.725  18.176  0.00  0.00    +0.000 A 
ATOM      7  N   UNL     1       5.991   3.928  18.568  0.00  0.00    +0.000 N 
ATOM      8  C   UNL     1       4.803   4.609  18.455  0.00  0.00    +0.000 A 
ATOM      9  C   UNL     1       3.497   4.168  18.703  0.00  0.00    +0.000 A 
ATOM     10  C   UNL     1       2.452   5.059  18.460  0.00  0.00    +0.000 A 
ATOM     11  C   UNL     1       2.706   6.343  17.988  0.00  0.00    +0.000 A 
ATOM     12  C   UNL     1       4.019   6.772  17.747  0.00  0.00    +0.000 A 
ATOM     13  C   UNL     1       5.100   5.896  17.992  0.00  0.00    +0.000 A 
ATOM     14  H   UNL     1       6.076   2.965  18.864  0.00  0.00    +0.000 HD
ENDBRANCH   2   5
BRANCH   1  16
ATOM     15  C   UNL     1       8.796   9.972  18.726  0.00  0.00    +0.000 C 
ATOM     16  N   UNL     1       8.365   9.150  17.824  0.00  0.00    +0.000 NA
BRANCH  15  21
ATOM     17  C   UNL     1      10.654  14.694  17.204  0.00  0.00    +0.000 C 
ATOM     18  C   UNL     1      10.520  13.265  17.607  0.00  0.00    +0.000 A 
ATOM     19  C   UNL     1      11.519  12.322  17.726  0.00  0.00    +0.000 A 
ATOM     20  C   UNL     1      11.015  11.055  18.134  0.00  0.00    +0.000 A 
ATOM     21  C   UNL     1       9.646  11.066  18.318  0.00  0.00    +0.000 A 
ATOM     22  S   UNL     1       8.984  12.607  17.993  0.00  0.00    +0.000 S 
ENDBRANCH  15  21
ENDBRANCH   1  16
TORSDOF 3
ENDMDL
MODEL 4
REMARK VINA RESULT:      -7.2      1.005      1.217
REMARK  Name = 
REMARK  4 active torsions:
REMARK  status: ('A' for Active; 'I' for Inactive)
REMARK    1  A    between atoms: C_1  and  C_2
REMARK    2  A    between atoms: C_5  and  C_6
REMARK    3  A    between atoms: N_7  and  N_8
REMARK    4  A    between atoms: C_9  and  C_11
REMARK                            x       y       z     vdW  Elec       q    Type
REMARK                         _______ _______ _______ _____ _____    ______ ____
ROOT
ATOM      1  N   UNL     1       7.350   7.489  17.097  0.00  0.00    +0.000 N 
ATOM      2  C   UNL     1       7.257   6.378  17.928  0.00  0.00    +0.000 C 
ATOM      3  O   UNL     1       7.887   6.253  18.977  0.00  0.00    +0.000 OA
ATOM      4  H   UNL     1       6.700   7.612  16.331  0.00  0.00    +0.000 HD
ENDROOT
BRANCH   2   5
ATOM      5  C   UNL     1       6.303   5.355  17.501  0.00  0.00    +0.000 A 
ATOM      6  C   UNL     1       6.660   4.309  16.666  0.00  0.00    +0.000 A 
ATOM      7  N   UNL     1       5.560   3.539  16.425  0.00  0.00    +0.000 N 
ATOM      8  C   UNL     1       4.464   4.075  17.056  0.00  0.00    +0.000 A 
ATOM      9  C   UNL     1       3.131   3.644  17.045  0.00  0.00    +0.000 A 
ATOM     10  C   UNL     1       2.195   4.407  17.743  0.00  0.00    +0.000 A 
ATOM     11  C   UNL     1       2.579   5.557  18.426  0.00  0.00    +0.000 A 
ATOM     12  C   UNL     1       3.917   5.974  18.431  0.00  0.00    +0.000 A 
ATOM     13  C   UNL     1       4.892   5.218  17.742  0.00  0.00    +0.000 A 
ATOM     14  H   UNL     1       5.540   2.716  15.838  0.00  0.00    +0.000 HD
ENDBRANCH   2   5
BRANCH   1  16
ATOM     15  C   UNL     1       7.726   9.612  17.860  0.00  0.00    +0.000 C 
ATOM     16  N   UNL     1       8.215   8.489  17.444  0.00  0.00    +0.000 NA
BRANCH  15  21
ATOM     17  C   UNL     1      11.433  12.545  20.252  0.00  0.00    +0.000 C 
ATOM     18  C   UNL     1      10.363  12.045  19.343  0.00  0.00    +0.000 A 
ATOM     19  C   UNL     1       9.788  12.696  18.272  0.00  0.00    +0.000 A 
ATOM     20  C   UNL     1       8.793  11.905  17.634  0.00  0.00    +0.000 A 
ATOM     21  C   UNL     1       8.636  10.670  18.233  0.00  0.00    +0.000 A 
ATOM     22  S   UNL     1       9.693  10.481  19.561  0.00  0.00    +0.000 S 
ENDBRANCH  15  21
ENDBRANCH   1  16
TORSDOF 3
ENDMDL
MODEL 5
REMARK VINA RESULT:      -7.2      5.818      7.654
REMARK  Name = 
REMARK  4 active torsions:
REMARK  status: ('A' for Active; 'I' for Inactive)
REMARK    1  A    between atoms: C_1  and  C_2
REMARK    2  A    between atoms: C_5  and  C_6
REMARK    3  A    between atoms: N_7  and  N_8
REMARK    4  A    between atoms: C_9  and  C_11
REMARK                            x       y       z     vdW  Elec       q    Type
REMARK                         _______ _______ _______ _____ _____    ______ ____
ROOT
ATOM      1  N   UNL     1       1.941   7.970  19.608  0.00  0.00    +0.000 N 
ATOM      2  C   UNL     1       2.343   7.962  18.277  0.00  0.00    +0.000 C 
ATOM      3  O   UNL     1       2.085   8.862  17.479  0.00  0.00    +0.000 OA
ATOM      4  H   UNL     1       2.307   7.286  20.258  0.00  0.00    +0.000 HD
ENDROOT
BRANCH   2   5
ATOM      5  C   UNL     1       3.156   6.815  17.875  0.00  0.00    +0.000 A 
ATOM      6  C   UNL     1       4.414   6.959  17.310  0.00  0.00    +0.000 A 
ATOM      7  N   UNL     1       4.911   5.723  17.018  0.00  0.00    +0.000 N 
ATOM      8  C   UNL     1       3.991   4.756  17.345  0.00  0.00    +0.000 A 
ATOM      9  C   UNL     1       4.062   3.368  17.176  0.00  0.00    +0.000 A 
ATOM     10  C   UNL     1       2.954   2.610  17.556  0.00  0.00    +0.000 A 
ATOM     11  C   UNL     1       1.821   3.220  18.085  0.00  0.00    +0.000 A 
ATOM     12  C   UNL     1       1.766   4.610  18.251  0.00  0.00    +0.000 A 
ATOM     13  C   UNL     1       2.875   5.406  17.885  0.00  0.00    +0.000 A 
ATOM     14  H   UNL     1       5.809   5.542  16.589  0.00  0.00    +0.000 HD
ENDBRANCH   2   5
BRANCH   1  16
ATOM     15  C   UNL     1       0.569   8.901  21.184  0.00  0.00    +0.000 C 
ATOM     16  N   UNL     1       1.187   9.020  20.053  0.00  0.00    +0.000 NA
BRANCH  15  21
ATOM     17  C   UNL     1      -2.244  13.375  21.552  0.00  0.00    +0.000 C 
ATOM     18  C   UNL     1      -1.537  12.095  21.841  0.00  0.00    +0.000 A 
ATOM     19  C   UNL     1      -1.437  11.437  23.049  0.00  0.00    +0.000 A 
ATOM     20  C   UNL     1      -0.680  10.237  22.945  0.00  0.00    +0.000 A 
ATOM     21  C   UNL     1      -0.225  10.009  21.661  0.00  0.00    +0.000 A 
ATOM     22  S   UNL     1      -0.716  11.250  20.595  0.00  0.00    +0.000 S 
ENDBRANCH  15  21
ENDBRANCH   1  16
TORSDOF 3
ENDMDL
MODEL 6
REMARK VINA RESULT:      -7.0      6.018      7.665
REMARK  Name = 
REMARK  4 active torsions:
REMARK  status: ('A' for Active; 'I' for Inactive)
REMARK    1  A    between atoms: C_1  and  C_2
REMARK    2  A    between atoms: C_5  and  C_6
REMARK    3  A    between atoms: N_7  and  N_8
REMARK    4  A    between atoms: C_9  and  C_11
REMARK                            x       y       z     vdW  Elec       q    Type
REMARK                         _______ _______ _______ _____ _____    ______ ____
ROOT
ATOM      1  N   UNL     1       1.965   7.419  20.455  0.00  0.00    +0.000 N 
ATOM      2  C   UNL     1       2.262   7.348  19.099  0.00  0.00    +0.000 C 
ATOM      3  O   UNL     1       2.112   8.284  18.316  0.00  0.00    +0.000 OA
ATOM      4  H   UNL     1       2.249   6.677  21.082  0.00  0.00    +0.000 HD
ENDROOT
BRANCH   2   5
ATOM      5  C   UNL     1       2.826   6.076  18.647  0.00  0.00    +0.000 A 
ATOM      6  C   UNL     1       3.946   6.008  17.833  0.00  0.00    +0.000 A 
ATOM      7  N   UNL     1       4.215   4.699  17.560  0.00  0.00    +0.000 N 
ATOM      8  C   UNL     1       3.271   3.892  18.147  0.00  0.00    +0.000 A 
ATOM      9  C   UNL     1       3.133   2.500  18.093  0.00  0.00    +0.000 A 
ATOM     10  C   UNL     1       2.044   1.928  18.751  0.00  0.00    +0.000 A 
ATOM     11  C   UNL     1       1.130   2.721  19.437  0.00  0.00    +0.000 A 
ATOM     12  C   UNL     1       1.283   4.113  19.487  0.00  0.00    +0.000 A 
ATOM     13  C   UNL     1       2.381   4.723  18.839  0.00  0.00    +0.000 A 
ATOM     14  H   UNL     1       4.974   4.369  16.979  0.00  0.00    +0.000 HD
ENDBRANCH   2   5
BRANCH   1  16
ATOM     15  C   UNL     1       0.188   8.620  21.249  0.00  0.00    +0.000 C 
ATOM     16  N   UNL     1       1.445   8.584  20.946  0.00  0.00    +0.000 NA
BRANCH  15  21
ATOM     17  C   UNL     1      -1.625  13.567  21.813  0.00  0.00    +0.000 C 
ATOM     18  C   UNL     1      -1.211  12.153  22.044  0.00  0.00    +0.000 A 
ATOM     19  C   UNL     1      -1.281  11.432  23.217  0.00  0.00    +0.000 A 
ATOM     20  C   UNL     1      -0.792  10.105  23.061  0.00  0.00    +0.000 A 
ATOM     21  C   UNL     1      -0.365   9.848  21.772  0.00  0.00    +0.000 A 
ATOM     22  S   UNL     1      -0.558  11.215  20.766  0.00  0.00    +0.000 S 
ENDBRANCH  15  21
ENDBRANCH   1  16
TORSDOF 3
ENDMDL
MODEL 7
REMARK VINA RESULT:      -7.0      5.351      7.407
REMARK  Name = 
REMARK  4 active torsions:
REMARK  status: ('A' for Active; 'I' for Inactive)
REMARK    1  A    between atoms: C_1  and  C_2
REMARK    2  A    between atoms: C_5  and  C_6
REMARK    3  A    between atoms: N_7  and  N_8
REMARK    4  A    between atoms: C_9  and  C_11
REMARK                            x       y       z     vdW  Elec       q    Type
REMARK                         _______ _______ _______ _____ _____    ______ ____
ROOT
ATOM      1  N   UNL     1       2.386   7.215  19.841  0.00  0.00    +0.000 N 
ATOM      2  C   UNL     1       2.727   7.288  18.495  0.00  0.00    +0.000 C 
ATOM      3  O   UNL     1       2.568   8.292  17.802  0.00  0.00    +0.000 OA
ATOM      4  H   UNL     1       2.677   6.425  20.401  0.00  0.00    +0.000 HD
ENDROOT
BRANCH   2   5
ATOM      5  C   UNL     1       3.350   6.086  17.941  0.00  0.00    +0.000 A 
ATOM      6  C   UNL     1       2.685   4.873  17.864  0.00  0.00    +0.000 A 
ATOM      7  N   UNL     1       3.526   3.940  17.332  0.00  0.00    +0.000 N 
ATOM      8  C   UNL     1       4.756   4.502  17.086  0.00  0.00    +0.000 A 
ATOM      9  C   UNL     1       5.922   3.907  16.588  0.00  0.00    +0.000 A 
ATOM     10  C   UNL     1       7.061   4.704  16.477  0.00  0.00    +0.000 A 
ATOM     11  C   UNL     1       7.033   6.044  16.848  0.00  0.00    +0.000 A 
ATOM     12  C   UNL     1       5.857   6.627  17.341  0.00  0.00    +0.000 A 
ATOM     13  C   UNL     1       4.683   5.849  17.457  0.00  0.00    +0.000 A 
ATOM     14  H   UNL     1       3.295   2.968  17.175  0.00  0.00    +0.000 HD
ENDBRANCH   2   5
BRANCH   1  16
ATOM     15  C   UNL     1       0.756   8.135  21.156  0.00  0.00    +0.000 C 
ATOM     16  N   UNL     1       1.809   8.309  20.425  0.00  0.00    +0.000 NA
BRANCH  15  21
ATOM     17  C   UNL     1      -0.920  13.030  22.293  0.00  0.00    +0.000 C 
ATOM     18  C   UNL     1      -0.639  11.566  22.318  0.00  0.00    +0.000 A 
ATOM     19  C   UNL     1      -1.025  10.646  23.268  0.00  0.00    +0.000 A 
ATOM     20  C   UNL     1      -0.572   9.333  22.959  0.00  0.00    +0.000 A 
ATOM     21  C   UNL     1       0.146   9.287  21.780  0.00  0.00    +0.000 A 
ATOM     22  S   UNL     1       0.266  10.831  21.060  0.00  0.00    +0.000 S 
ENDBRANCH  15  21
ENDBRANCH   1  16
TORSDOF 3
ENDMDL
MODEL 8
REMARK VINA RESULT:      -7.0      1.590      1.803
REMARK  Name = 
REMARK  4 active torsions:
REMARK  status: ('A' for Active; 'I' for Inactive)
REMARK    1  A    between atoms: C_1  and  C_2
REMARK    2  A    between atoms: C_5  and  C_6
REMARK    3  A    between atoms: N_7  and  N_8
REMARK    4  A    between atoms: C_9  and  C_11
REMARK                            x       y       z     vdW  Elec       q    Type
REMARK                         _______ _______ _______ _____ _____    ______ ____
ROOT
ATOM      1  N   UNL     1       8.287   8.034  18.622  0.00  0.00    +0.000 N 
ATOM      2  C   UNL     1       7.306   7.596  17.740  0.00  0.00    +0.000 C 
ATOM      3  O   UNL     1       6.922   8.243  16.767  0.00  0.00    +0.000 OA
ATOM      4  H   UNL     1       8.675   7.403  19.312  0.00  0.00    +0.000 HD
ENDROOT
BRANCH   2   5
ATOM      5  C   UNL     1       6.773   6.261  18.009  0.00  0.00    +0.000 A 
ATOM      6  C   UNL     1       7.592   5.163  18.220  0.00  0.00    +0.000 A 
ATOM      7  N   UNL     1       6.812   4.061  18.416  0.00  0.00    +0.000 N 
ATOM      8  C   UNL     1       5.485   4.397  18.303  0.00  0.00    +0.000 A 
ATOM      9  C   UNL     1       4.350   3.580  18.385  0.00  0.00    +0.000 A 
ATOM     10  C   UNL     1       3.105   4.176  18.184  0.00  0.00    +0.000 A 
ATOM     11  C   UNL     1       3.001   5.537  17.913  0.00  0.00    +0.000 A 
ATOM     12  C   UNL     1       4.145   6.342  17.838  0.00  0.00    +0.000 A 
ATOM     13  C   UNL     1       5.421   5.772  18.046  0.00  0.00    +0.000 A 
ATOM     14  H   UNL     1       7.157   3.125  18.583  0.00  0.00    +0.000 HD
ENDBRANCH   2   5
BRANCH   1  16
ATOM     15  C   UNL     1       9.287   9.919  19.445  0.00  0.00    +0.000 C 
ATOM     16  N   UNL     1       8.836   9.270  18.421  0.00  0.00    +0.000 NA
BRANCH  15  21
ATOM     17  C   UNL     1      10.861  14.949  19.983  0.00  0.00    +0.000 C 
ATOM     18  C   UNL     1      10.610  13.569  19.480  0.00  0.00    +0.000 A 
ATOM     19  C   UNL     1      11.017  13.016  18.284  0.00  0.00    +0.000 A 
ATOM     20  C   UNL     1      10.591  11.666  18.144  0.00  0.00    +0.000 A 
ATOM     21  C   UNL     1       9.873  11.223  19.237  0.00  0.00    +0.000 A 
ATOM     22  S   UNL     1       9.720  12.445  20.421  0.00  0.00    +0.000 S 
ENDBRANCH  15  21
ENDBRANCH   1  16
TORSDOF 3
ENDMDL
MODEL 9
REMARK VINA RESULT:      -6.9      5.857      7.548
REMARK  Name = 
REMARK  4 active torsions:
REMARK  status: ('A' for Active; 'I' for Inactive)
REMARK    1  A    between atoms: C_1  and  C_2
REMARK    2  A    between atoms: C_5  and  C_6
REMARK    3  A    between atoms: N_7  and  N_8
REMARK    4  A    between atoms: C_9  and  C_11
REMARK                            x       y       z     vdW  Elec       q    Type
REMARK                         _______ _______ _______ _____ _____    ______ ____
ROOT
ATOM      1  N   UNL     1       1.916   7.878  19.457  0.00  0.00    +0.000 N 
ATOM      2  C   UNL     1       2.487   7.791  18.192  0.00  0.00    +0.000 C 
ATOM      3  O   UNL     1       2.423   8.685  17.349  0.00  0.00    +0.000 OA
ATOM      4  H   UNL     1       2.128   7.185  20.163  0.00  0.00    +0.000 HD
ENDROOT
BRANCH   2   5
ATOM      5  C   UNL     1       3.235   6.563  17.926  0.00  0.00    +0.000 A 
ATOM      6  C   UNL     1       4.547   6.574  17.479  0.00  0.00    +0.000 A 
ATOM      7  N   UNL     1       4.964   5.288  17.296  0.00  0.00    +0.000 N 
ATOM      8  C   UNL     1       3.939   4.417  17.578  0.00  0.00    +0.000 A 
ATOM      9  C   UNL     1       3.907   3.020  17.483  0.00  0.00    +0.000 A 
ATOM     10  C   UNL     1       2.709   2.375  17.789  0.00  0.00    +0.000 A 
ATOM     11  C   UNL     1       1.587   3.102  18.176  0.00  0.00    +0.000 A 
ATOM     12  C   UNL     1       1.635   4.499  18.270  0.00  0.00    +0.000 A 
ATOM     13  C   UNL     1       2.836   5.182  17.976  0.00  0.00    +0.000 A 
ATOM     14  H   UNL     1       5.879   5.013  16.965  0.00  0.00    +0.000 HD
ENDBRANCH   2   5
BRANCH   1  16
ATOM     15  C   UNL     1       0.812   9.159  20.996  0.00  0.00    +0.000 C 
ATOM     16  N   UNL     1       1.213   9.006  19.775  0.00  0.00    +0.000 NA
BRANCH  15  21
ATOM     17  C   UNL     1      -2.158  12.788  23.463  0.00  0.00    +0.000 C 
ATOM     18  C   UNL     1      -1.312  12.049  22.482  0.00  0.00    +0.000 A 
ATOM     19  C   UNL     1      -0.890  12.473  21.240  0.00  0.00    +0.000 A 
ATOM     20  C   UNL     1      -0.094  11.495  20.582  0.00  0.00    +0.000 A 
ATOM     21  C   UNL     1       0.072  10.352  21.339  0.00  0.00    +0.000 A 
ATOM     22  S   UNL     1      -0.738  10.473  22.838  0.00  0.00    +0.000 S 
ENDBRANCH  15  21
ENDBRANCH   1  16
TORSDOF 3
ENDMDL
