MODEL 1
REMARK VINA RESULT:      -7.0      0.000      0.000
REMARK  Name = 
REMARK  7 active torsions:
REMARK  status: ('A' for Active; 'I' for Inactive)
REMARK    1  A    between atoms: C_1  and  O_2
REMARK    2  A    between atoms: O_2  and  C_3
REMARK    3  A    between atoms: C_6  and  N_7
REMARK    4  A    between atoms: C_9  and  C_10
REMARK    5  A    between atoms: C_10  and  O_11
REMARK    6  A    between atoms: O_11  and  C_12
REMARK    7  A    between atoms: C_12  and  C_14
REMARK                            x       y       z     vdW  Elec       q    Type
REMARK                         _______ _______ _______ _____ _____    ______ ____
ROOT
ATOM      1  N   UNL     1       8.012   8.524  18.012  0.00  0.00    +0.000 N 
ATOM      2  C   UNL     1       8.242   7.303  18.600  0.00  0.00    +0.000 A 
ATOM      3  C   UNL     1       7.458   6.415  17.898  0.00  0.00    +0.000 A 
ATOM      4  N   UNL     1       6.774   7.096  16.931  0.00  0.00    +0.000 NA
ATOM      5  N   UNL     1       7.117   8.376  17.007  0.00  0.00    +0.000 NA
ENDROOT
BRANCH   1   9
ATOM      6  C   UNL     1       9.662  12.270  19.066  0.00  0.00    +0.000 A 
ATOM      7  C   UNL     1       8.884  12.142  17.915  0.00  0.00    +0.000 A 
ATOM      8  C   UNL     1       8.326  10.912  17.566  0.00  0.00    +0.000 A 
ATOM      9  C   UNL     1       8.562   9.786  18.361  0.00  0.00    +0.000 A 
ATOM     10  C   UNL     1       9.359   9.907  19.509  0.00  0.00    +0.000 A 
ATOM     11  C   UNL     1       9.910  11.149  19.856  0.00  0.00    +0.000 A 
BRANCH   6  13
ATOM     12  C   UNL     1       9.221  14.587  19.130  0.00  0.00    +0.000 C 
ATOM     13  O   UNL     1      10.154  13.526  19.294  0.00  0.00    +0.000 OA
ENDBRANCH   6  13
ENDBRANCH   1   9
BRANCH   3  14
ATOM     14  C   UNL     1       7.279   4.951  18.089  0.00  0.00    +0.000 C 
BRANCH  14  15
ATOM     15  O   UNL     1       6.482   4.633  19.246  0.00  0.00    +0.000 OA
BRANCH  15  16
ATOM     16  C   UNL     1       5.138   4.796  19.084  0.00  0.00    +0.000 C 
ATOM     17  O   UNL     1       4.483   5.698  19.593  0.00  0.00    +0.000 OA
BRANCH  16  18
ATOM     18  C   UNL     1       4.540   3.653  18.257  0.00  0.00    +0.000 C 
ATOM     19  C   UNL     1       3.090   3.848  17.847  0.00  0.00    +0.000 C 
ATOM     20  C   UNL     1       2.629   2.436  17.533  0.00  0.00    +0.000 C 
ATOM     21  C   UNL     1       3.466   1.545  18.438  0.00  0.00    +0.000 C 
ATOM     22  N   UNL     1       4.460   2.414  19.057  0.00  0.00    +0.000 NA
ATOM     23  H   UNL     1       5.377   1.971  19.129  0.00  0.00    +0.000 HD
ENDBRANCH  16  18
ENDBRANCH  15  16
ENDBRANCH  14  15
ENDBRANCH   3  14
TORSDOF 6
ENDMDL
MODEL 2
REMARK VINA RESULT:      -6.9      5.564      6.119
REMARK  Name = 
REMARK  7 active torsions:
REMARK  status: ('A' for Active; 'I' for Inactive)
REMARK    1  A    between atoms: C_1  and  O_2
REMARK    2  A    between atoms: O_2  and  C_3
REMARK    3  A    between atoms: C_6  and  N_7
REMARK    4  A    between atoms: C_9  and  C_10
REMARK    5  A    between atoms: C_10  and  O_11
REMARK    6  A    between atoms: O_11  and  C_12
REMARK    7  A    between atoms: C_12  and  C_14
REMARK                            x       y       z     vdW  Elec       q    Type
REMARK                         _______ _______ _______ _____ _____    ______ ____
ROOT
ATOM      1  N   UNL     1       2.980   6.994  18.131  0.00  0.00    +0.000 N 
ATOM      2  C   UNL     1       2.797   5.632  18.180  0.00  0.00    +0.000 A 
ATOM      3  C   UNL     1       3.812   5.107  17.413  0.00  0.00    +0.000 A 
ATOM      4  N   UNL     1       4.566   6.131  16.914  0.00  0.00    +0.000 NA
ATOM      5  N   UNL     1       4.054   7.273  17.355  0.00  0.00    +0.000 NA
ENDROOT
BRANCH   1   9
ATOM      6  C   UNL     1       0.655  10.009  19.967  0.00  0.00    +0.000 A 
ATOM      7  C   UNL     1       1.051  10.138  18.636  0.00  0.00    +0.000 A 
ATOM      8  C   UNL     1       1.809   9.142  18.018  0.00  0.00    +0.000 A 
ATOM      9  C   UNL     1       2.197   8.009  18.741  0.00  0.00    +0.000 A 
ATOM     10  C   UNL     1       1.817   7.885  20.086  0.00  0.00    +0.000 A 
ATOM     11  C   UNL     1       1.049   8.887  20.695  0.00  0.00    +0.000 A 
BRANCH   6  13
ATOM     12  C   UNL     1      -0.385  10.991  21.843  0.00  0.00    +0.000 C 
ATOM     13  O   UNL     1      -0.079  11.054  20.455  0.00  0.00    +0.000 OA
ENDBRANCH   6  13
ENDBRANCH   1   9
BRANCH   3  14
ATOM     14  C   UNL     1       4.117   3.688  17.085  0.00  0.00    +0.000 C 
BRANCH  14  15
ATOM     15  O   UNL     1       3.012   2.804  17.353  0.00  0.00    +0.000 OA
BRANCH  15  16
ATOM     16  C   UNL     1       3.249   1.855  18.304  0.00  0.00    +0.000 C 
ATOM     17  O   UNL     1       3.983   0.886  18.147  0.00  0.00    +0.000 OA
BRANCH  16  18
ATOM     18  C   UNL     1       2.406   2.110  19.557  0.00  0.00    +0.000 C 
ATOM     19  C   UNL     1       1.137   2.912  19.325  0.00  0.00    +0.000 C 
ATOM     20  C   UNL     1       0.806   3.441  20.709  0.00  0.00    +0.000 C 
ATOM     21  C   UNL     1       2.153   3.580  21.403  0.00  0.00    +0.000 C 
ATOM     22  N   UNL     1       3.134   2.971  20.512  0.00  0.00    +0.000 NA
ATOM     23  H   UNL     1       3.841   2.435  21.016  0.00  0.00    +0.000 HD
ENDBRANCH  16  18
ENDBRANCH  15  16
ENDBRANCH  14  15
ENDBRANCH   3  14
TORSDOF 6
ENDMDL
MODEL 3
REMARK VINA RESULT:      -6.9      4.226      6.526
REMARK  Name = 
REMARK  7 active torsions:
REMARK  status: ('A' for Active; 'I' for Inactive)
REMARK    1  A    between atoms: C_1  and  O_2
REMARK    2  A    between atoms: O_2  and  C_3
REMARK    3  A    between atoms: C_6  and  N_7
REMARK    4  A    between atoms: C_9  and  C_10
REMARK    5  A    between atoms: C_10  and  O_11
REMARK    6  A    between atoms: O_11  and  C_12
REMARK    7  A    between atoms: C_12  and  C_14
REMARK                            x       y       z     vdW  Elec       q    Type
REMARK                         _______ _______ _______ _____ _____    ______ ____
ROOT
ATOM      1  N   UNL     1       2.524   6.513  19.568  0.00  0.00    +0.000 N 
ATOM      2  C   UNL     1       3.591   5.971  18.893  0.00  0.00    +0.000 A 
ATOM      3  C   UNL     1       3.712   4.690  19.383  0.00  0.00    +0.000 A 
ATOM      4  N   UNL     1       2.750   4.486  20.331  0.00  0.00    +0.000 NA
ATOM      5  N   UNL     1       2.032   5.598  20.437  0.00  0.00    +0.000 NA
ENDROOT
BRANCH   1   9
ATOM      6  C   UNL     1       0.911  10.407  19.247  0.00  0.00    +0.000 A 
ATOM      7  C   UNL     1       1.534   9.810  18.151  0.00  0.00    +0.000 A 
ATOM      8  C   UNL     1       2.059   8.520  18.245  0.00  0.00    +0.000 A 
ATOM      9  C   UNL     1       1.982   7.820  19.453  0.00  0.00    +0.000 A 
ATOM     10  C   UNL     1       1.373   8.425  20.563  0.00  0.00    +0.000 A 
ATOM     11  C   UNL     1       0.842   9.718  20.457  0.00  0.00    +0.000 A 
BRANCH   6  13
ATOM     12  C   UNL     1       0.668  12.600  20.082  0.00  0.00    +0.000 C 
ATOM     13  O   UNL     1       0.443  11.673  19.026  0.00  0.00    +0.000 OA
ENDBRANCH   6  13
ENDBRANCH   1   9
BRANCH   3  14
ATOM     14  C   UNL     1       4.699   3.631  19.039  0.00  0.00    +0.000 C 
BRANCH  14  15
ATOM     15  O   UNL     1       6.024   4.153  18.826  0.00  0.00    +0.000 OA
BRANCH  15  16
ATOM     16  C   UNL     1       6.301   4.519  17.542  0.00  0.00    +0.000 C 
ATOM     17  O   UNL     1       5.864   3.949  16.549  0.00  0.00    +0.000 OA
BRANCH  16  18
ATOM     18  C   UNL     1       7.303   5.678  17.504  0.00  0.00    +0.000 C 
ATOM     19  C   UNL     1       7.784   6.155  18.864  0.00  0.00    +0.000 C 
ATOM     20  C   UNL     1       8.302   7.552  18.576  0.00  0.00    +0.000 C 
ATOM     21  C   UNL     1       7.461   8.044  17.408  0.00  0.00    +0.000 C 
ATOM     22  N   UNL     1       6.672   6.899  16.966  0.00  0.00    +0.000 NA
ATOM     23  H   UNL     1       6.593   6.848  15.950  0.00  0.00    +0.000 HD
ENDBRANCH  16  18
ENDBRANCH  15  16
ENDBRANCH  14  15
ENDBRANCH   3  14
TORSDOF 6
ENDMDL
MODEL 4
REMARK VINA RESULT:      -6.8      6.394      9.282
REMARK  Name = 
REMARK  7 active torsions:
REMARK  status: ('A' for Active; 'I' for Inactive)
REMARK    1  A    between atoms: C_1  and  O_2
REMARK    2  A    between atoms: O_2  and  C_3
REMARK    3  A    between atoms: C_6  and  N_7
REMARK    4  A    between atoms: C_9  and  C_10
REMARK    5  A    between atoms: C_10  and  O_11
REMARK    6  A    between atoms: O_11  and  C_12
REMARK    7  A    between atoms: C_12  and  C_14
REMARK                            x       y       z     vdW  Elec       q    Type
REMARK                         _______ _______ _______ _____ _____    ______ ____
ROOT
ATOM      1  N   UNL     1       2.201   7.907  18.645  0.00  0.00    +0.000 N 
ATOM      2  C   UNL     1       1.505   8.741  19.488  0.00  0.00    +0.000 A 
ATOM      3  C   UNL     1       1.385   9.927  18.799  0.00  0.00    +0.000 A 
ATOM      4  N   UNL     1       2.003   9.800  17.588  0.00  0.00    +0.000 NA
ATOM      5  N   UNL     1       2.495   8.571  17.502  0.00  0.00    +0.000 NA
ENDROOT
BRANCH   1   9
ATOM      6  C   UNL     1       3.399   3.913  19.339  0.00  0.00    +0.000 A 
ATOM      7  C   UNL     1       3.693   4.536  18.127  0.00  0.00    +0.000 A 
ATOM      8  C   UNL     1       3.311   5.858  17.893  0.00  0.00    +0.000 A 
ATOM      9  C   UNL     1       2.608   6.566  18.873  0.00  0.00    +0.000 A 
ATOM     10  C   UNL     1       2.294   5.937  20.087  0.00  0.00    +0.000 A 
ATOM     11  C   UNL     1       2.688   4.611  20.315  0.00  0.00    +0.000 A 
BRANCH   6  13
ATOM     12  C   UNL     1       3.412   1.754  18.387  0.00  0.00    +0.000 C 
ATOM     13  O   UNL     1       3.823   2.617  19.441  0.00  0.00    +0.000 OA
ENDBRANCH   6  13
ENDBRANCH   1   9
BRANCH   3  14
ATOM     14  C   UNL     1       0.742  11.203  19.213  0.00  0.00    +0.000 C 
BRANCH  14  15
ATOM     15  O   UNL     1      -0.640  11.037  19.583  0.00  0.00    +0.000 OA
BRANCH  15  16
ATOM     16  C   UNL     1      -1.480  12.013  19.131  0.00  0.00    +0.000 C 
ATOM     17  O   UNL     1      -1.496  13.163  19.554  0.00  0.00    +0.000 OA
BRANCH  16  18
ATOM     18  C   UNL     1      -2.460  11.458  18.093  0.00  0.00    +0.000 C 
ATOM     19  C   UNL     1      -2.422   9.949  17.917  0.00  0.00    +0.000 C 
ATOM     20  C   UNL     1      -3.052   9.746  16.551  0.00  0.00    +0.000 C 
ATOM     21  C   UNL     1      -2.714  11.010  15.776  0.00  0.00    +0.000 C 
ATOM     22  N   UNL     1      -2.108  11.925  16.737  0.00  0.00    +0.000 NA
ATOM     23  H   UNL     1      -2.407  12.892  16.600  0.00  0.00    +0.000 HD
ENDBRANCH  16  18
ENDBRANCH  15  16
ENDBRANCH  14  15
ENDBRANCH   3  14
TORSDOF 6
ENDMDL
MODEL 5
REMARK VINA RESULT:      -6.8      5.381      6.611
REMARK  Name = 
REMARK  7 active torsions:
REMARK  status: ('A' for Active; 'I' for Inactive)
REMARK    1  A    between atoms: C_1  and  O_2
REMARK    2  A    between atoms: O_2  and  C_3
REMARK    3  A    between atoms: C_6  and  N_7
REMARK    4  A    between atoms: C_9  and  C_10
REMARK    5  A    between atoms: C_10  and  O_11
REMARK    6  A    between atoms: O_11  and  C_12
REMARK    7  A    between atoms: C_12  and  C_14
REMARK                            x       y       z     vdW  Elec       q    Type
REMARK                         _______ _______ _______ _____ _____    ______ ____
ROOT
ATOM      1  N   UNL     1       3.828   5.951  17.743  0.00  0.00    +0.000 N 
ATOM      2  C   UNL     1       5.079   6.105  17.194  0.00  0.00    +0.000 A 
ATOM      3  C   UNL     1       5.441   4.846  16.772  0.00  0.00    +0.000 A 
ATOM      4  N   UNL     1       4.438   3.971  17.076  0.00  0.00    +0.000 NA
ATOM      5  N   UNL     1       3.462   4.650  17.665  0.00  0.00    +0.000 NA
ENDROOT
BRANCH   1   9
ATOM      6  C   UNL     1       1.375   8.885  19.546  0.00  0.00    +0.000 A 
ATOM      7  C   UNL     1       1.894   9.089  18.268  0.00  0.00    +0.000 A 
ATOM      8  C   UNL     1       2.696   8.122  17.661  0.00  0.00    +0.000 A 
ATOM      9  C   UNL     1       3.003   6.939  18.342  0.00  0.00    +0.000 A 
ATOM     10  C   UNL     1       2.497   6.738  19.635  0.00  0.00    +0.000 A 
ATOM     11  C   UNL     1       1.687   7.713  20.234  0.00  0.00    +0.000 A 
BRANCH   6  13
ATOM     12  C   UNL     1       0.828  10.244  21.395  0.00  0.00    +0.000 C 
ATOM     13  O   UNL     1       0.610   9.909  20.030  0.00  0.00    +0.000 OA
ENDBRANCH   6  13
ENDBRANCH   1   9
BRANCH   3  14
ATOM     14  C   UNL     1       6.696   4.390  16.116  0.00  0.00    +0.000 C 
BRANCH  14  15
ATOM     15  O   UNL     1       6.463   3.771  14.836  0.00  0.00    +0.000 OA
BRANCH  15  16
ATOM     16  C   UNL     1       6.910   4.482  13.761  0.00  0.00    +0.000 C 
ATOM     17  O   UNL     1       7.639   5.464  13.834  0.00  0.00    +0.000 OA
BRANCH  16  18
ATOM     18  C   UNL     1       6.306   3.946  12.459  0.00  0.00    +0.000 C 
ATOM     19  C   UNL     1       4.801   3.743  12.485  0.00  0.00    +0.000 C 
ATOM     20  C   UNL     1       4.565   2.769  11.345  0.00  0.00    +0.000 C 
ATOM     21  C   UNL     1       5.843   1.947  11.267  0.00  0.00    +0.000 C 
ATOM     22  N   UNL     1       6.788   2.578  12.182  0.00  0.00    +0.000 NA
ATOM     23  H   UNL     1       7.738   2.597  11.811  0.00  0.00    +0.000 HD
ENDBRANCH  16  18
ENDBRANCH  15  16
ENDBRANCH  14  15
ENDBRANCH   3  14
TORSDOF 6
ENDMDL
MODEL 6
REMARK VINA RESULT:      -6.8      5.695      6.997
REMARK  Name = 
REMARK  7 active torsions:
REMARK  status: ('A' for Active; 'I' for Inactive)
REMARK    1  A    between atoms: C_1  and  O_2
REMARK    2  A    between atoms: O_2  and  C_3
REMARK    3  A    between atoms: C_6  and  N_7
REMARK    4  A    between atoms: C_9  and  C_10
REMARK    5  A    between atoms: C_10  and  O_11
REMARK    6  A    between atoms: O_11  and  C_12
REMARK    7  A    between atoms: C_12  and  C_14
REMARK                            x       y       z     vdW  Elec       q    Type
REMARK                         _______ _______ _______ _____ _____    ______ ____
ROOT
ATOM      1  N   UNL     1       1.642   8.706  19.337  0.00  0.00    +0.000 N 
ATOM      2  C   UNL     1       2.341   7.522  19.338  0.00  0.00    +0.000 A 
ATOM      3  C   UNL     1       2.907   7.439  18.086  0.00  0.00    +0.000 A 
ATOM      4  N   UNL     1       2.542   8.537  17.361  0.00  0.00    +0.000 NA
ATOM      5  N   UNL     1       1.775   9.302  18.128  0.00  0.00    +0.000 NA
ENDROOT
BRANCH   1   9
ATOM      6  C   UNL     1      -0.671  10.368  22.460  0.00  0.00    +0.000 A 
ATOM      7  C   UNL     1      -0.713  10.923  21.181  0.00  0.00    +0.000 A 
ATOM      8  C   UNL     1       0.039  10.374  20.141  0.00  0.00    +0.000 A 
ATOM      9  C   UNL     1       0.861   9.267  20.381  0.00  0.00    +0.000 A 
ATOM     10  C   UNL     1       0.919   8.719  21.671  0.00  0.00    +0.000 A 
ATOM     11  C   UNL     1       0.155   9.273  22.707  0.00  0.00    +0.000 A 
BRANCH   6  13
ATOM     12  C   UNL     1      -1.964  12.268  22.996  0.00  0.00    +0.000 C 
ATOM     13  O   UNL     1      -1.449  11.001  23.389  0.00  0.00    +0.000 OA
ENDBRANCH   6  13
ENDBRANCH   1   9
BRANCH   3  14
ATOM     14  C   UNL     1       3.760   6.370  17.500  0.00  0.00    +0.000 C 
BRANCH  14  15
ATOM     15  O   UNL     1       4.183   5.398  18.474  0.00  0.00    +0.000 OA
BRANCH  15  16
ATOM     16  C   UNL     1       3.950   4.098  18.132  0.00  0.00    +0.000 C 
ATOM     17  O   UNL     1       4.417   3.547  17.141  0.00  0.00    +0.000 OA
BRANCH  16  18
ATOM     18  C   UNL     1       2.955   3.446  19.098  0.00  0.00    +0.000 C 
ATOM     19  C   UNL     1       1.492   3.630  18.733  0.00  0.00    +0.000 C 
ATOM     20  C   UNL     1       0.775   3.372  20.046  0.00  0.00    +0.000 C 
ATOM     21  C   UNL     1       1.764   3.803  21.119  0.00  0.00    +0.000 C 
ATOM     22  N   UNL     1       3.016   4.088  20.426  0.00  0.00    +0.000 NA
ATOM     23  H   UNL     1       3.833   3.767  20.946  0.00  0.00    +0.000 HD
ENDBRANCH  16  18
ENDBRANCH  15  16
ENDBRANCH  14  15
ENDBRANCH   3  14
TORSDOF 6
ENDMDL
MODEL 7
REMARK VINA RESULT:      -6.8      5.480      6.031
REMARK  Name = 
REMARK  7 active torsions:
REMARK  status: ('A' for Active; 'I' for Inactive)
REMARK    1  A    between atoms: C_1  and  O_2
REMARK    2  A    between atoms: O_2  and  C_3
REMARK    3  A    between atoms: C_6  and  N_7
REMARK    4  A    between atoms: C_9  and  C_10
REMARK    5  A    between atoms: C_10  and  O_11
REMARK    6  A    between atoms: O_11  and  C_12
REMARK    7  A    between atoms: C_12  and  C_14
REMARK                            x       y       z     vdW  Elec       q    Type
REMARK                         _______ _______ _______ _____ _____    ______ ____
ROOT
ATOM      1  N   UNL     1       3.098   7.009  18.102  0.00  0.00    +0.000 N 
ATOM      2  C   UNL     1       3.029   5.659  18.352  0.00  0.00    +0.000 A 
ATOM      3  C   UNL     1       4.020   5.100  17.577  0.00  0.00    +0.000 A 
ATOM      4  N   UNL     1       4.648   6.091  16.878  0.00  0.00    +0.000 NA
ATOM      5  N   UNL     1       4.083   7.247  17.203  0.00  0.00    +0.000 NA
ENDROOT
BRANCH   1   9
ATOM      6  C   UNL     1       0.678  10.100  19.667  0.00  0.00    +0.000 A 
ATOM      7  C   UNL     1       1.009   8.998  20.454  0.00  0.00    +0.000 A 
ATOM      8  C   UNL     1       1.816   7.978  19.950  0.00  0.00    +0.000 A 
ATOM      9  C   UNL     1       2.287   8.045  18.634  0.00  0.00    +0.000 A 
ATOM     10  C   UNL     1       1.940   9.143  17.833  0.00  0.00    +0.000 A 
ATOM     11  C   UNL     1       1.134  10.167  18.351  0.00  0.00    +0.000 A 
BRANCH   6  13
ATOM     12  C   UNL     1       0.556  12.000  21.061  0.00  0.00    +0.000 C 
ATOM     13  O   UNL     1      -0.123  11.027  20.276  0.00  0.00    +0.000 OA
ENDBRANCH   6  13
ENDBRANCH   1   9
BRANCH   3  14
ATOM     14  C   UNL     1       4.411   3.673  17.421  0.00  0.00    +0.000 C 
BRANCH  14  15
ATOM     15  O   UNL     1       3.283   2.779  17.454  0.00  0.00    +0.000 OA
BRANCH  15  16
ATOM     16  C   UNL     1       3.346   1.803  18.405  0.00  0.00    +0.000 C 
ATOM     17  O   UNL     1       4.026   0.788  18.312  0.00  0.00    +0.000 OA
BRANCH  16  18
ATOM     18  C   UNL     1       2.385   2.099  19.561  0.00  0.00    +0.000 C 
ATOM     19  C   UNL     1       1.212   2.998  19.207  0.00  0.00    +0.000 C 
ATOM     20  C   UNL     1       0.763   3.526  20.557  0.00  0.00    +0.000 C 
ATOM     21  C   UNL     1       2.028   3.552  21.403  0.00  0.00    +0.000 C 
ATOM     22  N   UNL     1       3.058   2.887  20.613  0.00  0.00    +0.000 NA
ATOM     23  H   UNL     1       3.662   2.290  21.180  0.00  0.00    +0.000 HD
ENDBRANCH  16  18
ENDBRANCH  15  16
ENDBRANCH  14  15
ENDBRANCH   3  14
TORSDOF 6
ENDMDL
MODEL 8
REMARK VINA RESULT:      -6.8      5.348      6.111
REMARK  Name = 
REMARK  7 active torsions:
REMARK  status: ('A' for Active; 'I' for Inactive)
REMARK    1  A    between atoms: C_1  and  O_2
REMARK    2  A    between atoms: O_2  and  C_3
REMARK    3  A    between atoms: C_6  and  N_7
REMARK    4  A    between atoms: C_9  and  C_10
REMARK    5  A    between atoms: C_10  and  O_11
REMARK    6  A    between atoms: O_11  and  C_12
REMARK    7  A    between atoms: C_12  and  C_14
REMARK                            x       y       z     vdW  Elec       q    Type
REMARK                         _______ _______ _______ _____ _____    ______ ____
ROOT
ATOM      1  N   UNL     1       3.164   7.055  18.573  0.00  0.00    +0.000 N 
ATOM      2  C   UNL     1       3.764   6.060  19.307  0.00  0.00    +0.000 A 
ATOM      3  C   UNL     1       4.626   5.439  18.431  0.00  0.00    +0.000 A 
ATOM      4  N   UNL     1       4.526   6.042  17.210  0.00  0.00    +0.000 NA
ATOM      5  N   UNL     1       3.637   7.023  17.305  0.00  0.00    +0.000 NA
ENDROOT
BRANCH   1   9
ATOM      6  C   UNL     1       0.233   9.822  19.848  0.00  0.00    +0.000 A 
ATOM      7  C   UNL     1       0.702   9.847  18.535  0.00  0.00    +0.000 A 
ATOM      8  C   UNL     1       1.661   8.930  18.102  0.00  0.00    +0.000 A 
ATOM      9  C   UNL     1       2.178   7.985  18.995  0.00  0.00    +0.000 A 
ATOM     10  C   UNL     1       1.722   7.969  20.322  0.00  0.00    +0.000 A 
ATOM     11  C   UNL     1       0.753   8.890  20.745  0.00  0.00    +0.000 A 
BRANCH   6  13
ATOM     12  C   UNL     1      -1.501  11.210  19.054  0.00  0.00    +0.000 C 
ATOM     13  O   UNL     1      -0.701  10.775  20.147  0.00  0.00    +0.000 OA
ENDBRANCH   6  13
ENDBRANCH   1   9
BRANCH   3  14
ATOM     14  C   UNL     1       5.533   4.281  18.653  0.00  0.00    +0.000 C 
BRANCH  14  15
ATOM     15  O   UNL     1       4.900   3.207  19.374  0.00  0.00    +0.000 OA
BRANCH  15  16
ATOM     16  C   UNL     1       3.925   2.545  18.686  0.00  0.00    +0.000 C 
ATOM     17  O   UNL     1       4.015   2.204  17.512  0.00  0.00    +0.000 OA
BRANCH  16  18
ATOM     18  C   UNL     1       2.671   2.365  19.547  0.00  0.00    +0.000 C 
ATOM     19  C   UNL     1       1.521   3.299  19.208  0.00  0.00    +0.000 C 
ATOM     20  C   UNL     1       0.677   3.277  20.470  0.00  0.00    +0.000 C 
ATOM     21  C   UNL     1       1.668   3.021  21.595  0.00  0.00    +0.000 C 
ATOM     22  N   UNL     1       2.943   2.724  20.953  0.00  0.00    +0.000 NA
ATOM     23  H   UNL     1       3.454   1.976  21.424  0.00  0.00    +0.000 HD
ENDBRANCH  16  18
ENDBRANCH  15  16
ENDBRANCH  14  15
ENDBRANCH   3  14
TORSDOF 6
ENDMDL
MODEL 9
REMARK VINA RESULT:      -6.7      2.864      4.763
REMARK  Name = 
REMARK  7 active torsions:
REMARK  status: ('A' for Active; 'I' for Inactive)
REMARK    1  A    between atoms: C_1  and  O_2
REMARK    2  A    between atoms: O_2  and  C_3
REMARK    3  A    between atoms: C_6  and  N_7
REMARK    4  A    between atoms: C_9  and  C_10
REMARK    5  A    between atoms: C_10  and  O_11
REMARK    6  A    between atoms: O_11  and  C_12
REMARK    7  A    between atoms: C_12  and  C_14
REMARK                            x       y       z     vdW  Elec       q    Type
REMARK                         _______ _______ _______ _____ _____    ______ ____
ROOT
ATOM      1  N   UNL     1       5.457   4.556  18.295  0.00  0.00    +0.000 N 
ATOM      2  C   UNL     1       4.556   4.017  17.407  0.00  0.00    +0.000 A 
ATOM      3  C   UNL     1       4.070   2.890  18.030  0.00  0.00    +0.000 A 
ATOM      4  N   UNL     1       4.677   2.759  19.247  0.00  0.00    +0.000 NA
ATOM      5  N   UNL     1       5.517   3.776  19.400  0.00  0.00    +0.000 NA
ENDROOT
BRANCH   1   9
ATOM      6  C   UNL     1       7.816   8.032  17.827  0.00  0.00    +0.000 A 
ATOM      7  C   UNL     1       8.198   7.038  18.728  0.00  0.00    +0.000 A 
ATOM      8  C   UNL     1       7.431   5.882  18.881  0.00  0.00    +0.000 A 
ATOM      9  C   UNL     1       6.255   5.720  18.141  0.00  0.00    +0.000 A 
ATOM     10  C   UNL     1       5.858   6.727  17.247  0.00  0.00    +0.000 A 
ATOM     11  C   UNL     1       6.639   7.881  17.095  0.00  0.00    +0.000 A 
BRANCH   6  13
ATOM     12  C   UNL     1       8.973   9.699  19.032  0.00  0.00    +0.000 C 
ATOM     13  O   UNL     1       8.649   9.115  17.775  0.00  0.00    +0.000 OA
ENDBRANCH   6  13
ENDBRANCH   1   9
BRANCH   3  14
ATOM     14  C   UNL     1       3.079   1.892  17.546  0.00  0.00    +0.000 C 
BRANCH  14  15
ATOM     15  O   UNL     1       1.793   2.031  18.180  0.00  0.00    +0.000 OA
BRANCH  15  16
ATOM     16  C   UNL     1       1.296   3.301  18.207  0.00  0.00    +0.000 C 
ATOM     17  O   UNL     1       1.023   3.959  17.209  0.00  0.00    +0.000 OA
BRANCH  16  18
ATOM     18  C   UNL     1       1.212   3.829  19.642  0.00  0.00    +0.000 C 
ATOM     19  C   UNL     1       2.045   5.068  19.920  0.00  0.00    +0.000 C 
ATOM     20  C   UNL     1       2.190   5.053  21.431  0.00  0.00    +0.000 C 
ATOM     21  C   UNL     1       2.144   3.581  21.810  0.00  0.00    +0.000 C 
ATOM     22  N   UNL     1       1.792   2.859  20.592  0.00  0.00    +0.000 NA
ATOM     23  H   UNL     1       1.143   2.090  20.766  0.00  0.00    +0.000 HD
ENDBRANCH  16  18
ENDBRANCH  15  16
ENDBRANCH  14  15
ENDBRANCH   3  14
TORSDOF 6
ENDMDL
