MODEL 1
REMARK VINA RESULT:      -8.9      0.000      0.000
REMARK  Name = 
REMARK  6 active torsions:
REMARK  status: ('A' for Active; 'I' for Inactive)
REMARK    1  A    between atoms: C_1  and  C_2
REMARK    2  A    between atoms: C_3  and  C_4
REMARK    3  A    between atoms: N_16  and  C_17
REMARK    4  A    between atoms: C_17  and  C_18
REMARK    5  A    between atoms: C_17  and  C_19
REMARK    6  A    between atoms: C_17  and  C_20
REMARK                            x       y       z     vdW  Elec       q    Type
REMARK                         _______ _______ _______ _____ _____    ______ ____
ROOT
ATOM      1  C   UNL     1       1.947   5.841  21.107  0.00  0.00    +0.000 C 
ATOM      2  C   UNL     1       1.907   6.963  20.128  0.00  0.00    +0.000 C 
ATOM      3  C   UNL     1       2.307   6.955  18.847  0.00  0.00    +0.000 C 
ATOM      4  C   UNL     1       2.078   8.326  18.327  0.00  0.00    +0.000 C 
ATOM      5  O   UNL     1       2.399   8.709  17.217  0.00  0.00    +0.000 OA
ATOM      6  N   UNL     1       1.460   9.055  19.333  0.00  0.00    +0.000 N 
ATOM      7  C   UNL     1       1.368   8.291  20.552  0.00  0.00    +0.000 C 
ENDROOT
BRANCH   3   8
ATOM      8  C   UNL     1       2.885   5.850  18.081  0.00  0.00    +0.000 A 
ATOM      9  C   UNL     1       2.062   4.740  17.824  0.00  0.00    +0.000 A 
ATOM     10  C   UNL     1       2.536   3.660  17.088  0.00  0.00    +0.000 A 
ATOM     11  C   UNL     1       3.839   3.675  16.597  0.00  0.00    +0.000 A 
ATOM     12  C   UNL     1       4.684   4.769  16.828  0.00  0.00    +0.000 A 
ATOM     13  C   UNL     1       5.993   4.767  16.315  0.00  0.00    +0.000 A 
ATOM     14  C   UNL     1       6.849   5.845  16.525  0.00  0.00    +0.000 A 
ATOM     15  C   UNL     1       6.410   6.940  17.259  0.00  0.00    +0.000 A 
ATOM     16  C   UNL     1       5.113   6.956  17.780  0.00  0.00    +0.000 A 
ATOM     17  C   UNL     1       4.216   5.878  17.579  0.00  0.00    +0.000 A 
ENDBRANCH   3   8
BRANCH   6  18
ATOM     18  C   UNL     1       1.144  10.504  19.238  0.00  0.00    +0.000 C 
ATOM     19  C   UNL     1       1.146  11.135  20.651  0.00  0.00    +0.000 C 
ATOM     20  C   UNL     1       2.224  11.235  18.405  0.00  0.00    +0.000 C 
BRANCH  18  21
ATOM     21  C   UNL     1      -0.258  10.729  18.619  0.00  0.00    +0.000 A 
ATOM     22  N   UNL     1      -0.675  10.153  17.504  0.00  0.00    +0.000 NA
ATOM     23  C   UNL     1      -2.017  10.425  17.285  0.00  0.00    +0.000 A 
ATOM     24  C   UNL     1      -2.814   9.910  16.241  0.00  0.00    +0.000 A 
ATOM     25  C   UNL     1      -4.173  10.238  16.173  0.00  0.00    +0.000 A 
ATOM     26  C   UNL     1      -4.743  11.078  17.124  0.00  0.00    +0.000 A 
ATOM     27  C   UNL     1      -3.970  11.620  18.154  0.00  0.00    +0.000 A 
ATOM     28  C   UNL     1      -2.608  11.279  18.213  0.00  0.00    +0.000 A 
ATOM     29  S   UNL     1      -1.420  11.781  19.346  0.00  0.00    +0.000 S 
ENDBRANCH  18  21
ENDBRANCH   6  18
TORSDOF 3
ENDMDL
MODEL 2
REMARK VINA RESULT:      -8.6      0.792      1.231
REMARK  Name = 
REMARK  6 active torsions:
REMARK  status: ('A' for Active; 'I' for Inactive)
REMARK    1  A    between atoms: C_1  and  C_2
REMARK    2  A    between atoms: C_3  and  C_4
REMARK    3  A    between atoms: N_16  and  C_17
REMARK    4  A    between atoms: C_17  and  C_18
REMARK    5  A    between atoms: C_17  and  C_19
REMARK    6  A    between atoms: C_17  and  C_20
REMARK                            x       y       z     vdW  Elec       q    Type
REMARK                         _______ _______ _______ _____ _____    ______ ____
ROOT
ATOM      1  C   UNL     1       2.094   5.820  21.136  0.00  0.00    +0.000 C 
ATOM      2  C   UNL     1       1.966   6.926  20.148  0.00  0.00    +0.000 C 
ATOM      3  C   UNL     1       2.324   6.923  18.854  0.00  0.00    +0.000 C 
ATOM      4  C   UNL     1       2.011   8.274  18.328  0.00  0.00    +0.000 C 
ATOM      5  O   UNL     1       2.276   8.659  17.203  0.00  0.00    +0.000 OA
ATOM      6  N   UNL     1       1.391   8.984  19.346  0.00  0.00    +0.000 N 
ATOM      7  C   UNL     1       1.377   8.232  20.576  0.00  0.00    +0.000 C 
ENDROOT
BRANCH   3   8
ATOM      8  C   UNL     1       2.931   5.837  18.081  0.00  0.00    +0.000 A 
ATOM      9  C   UNL     1       2.131   4.715  17.804  0.00  0.00    +0.000 A 
ATOM     10  C   UNL     1       2.632   3.653  17.060  0.00  0.00    +0.000 A 
ATOM     11  C   UNL     1       3.940   3.699  16.581  0.00  0.00    +0.000 A 
ATOM     12  C   UNL     1       4.761   4.806  16.833  0.00  0.00    +0.000 A 
ATOM     13  C   UNL     1       6.074   4.835  16.332  0.00  0.00    +0.000 A 
ATOM     14  C   UNL     1       6.907   5.927  16.563  0.00  0.00    +0.000 A 
ATOM     15  C   UNL     1       6.441   7.004  17.305  0.00  0.00    +0.000 A 
ATOM     16  C   UNL     1       5.139   6.989  17.814  0.00  0.00    +0.000 A 
ATOM     17  C   UNL     1       4.265   5.897  17.592  0.00  0.00    +0.000 A 
ENDBRANCH   3   8
BRANCH   6  18
ATOM     18  C   UNL     1       1.002  10.415  19.247  0.00  0.00    +0.000 C 
ATOM     19  C   UNL     1       1.177  11.104  20.621  0.00  0.00    +0.000 C 
ATOM     20  C   UNL     1       1.919  11.152  18.241  0.00  0.00    +0.000 C 
BRANCH  18  21
ATOM     21  C   UNL     1      -0.483  10.560  18.828  0.00  0.00    +0.000 A 
ATOM     22  N   UNL     1      -1.375  11.266  19.500  0.00  0.00    +0.000 NA
ATOM     23  C   UNL     1      -2.573  11.333  18.802  0.00  0.00    +0.000 A 
ATOM     24  C   UNL     1      -3.717  12.069  19.177  0.00  0.00    +0.000 A 
ATOM     25  C   UNL     1      -4.843  12.079  18.345  0.00  0.00    +0.000 A 
ATOM     26  C   UNL     1      -4.845  11.360  17.154  0.00  0.00    +0.000 A 
ATOM     27  C   UNL     1      -3.733  10.605  16.772  0.00  0.00    +0.000 A 
ATOM     28  C   UNL     1      -2.608  10.606  17.615  0.00  0.00    +0.000 A 
ATOM     29  S   UNL     1      -1.113   9.787  17.417  0.00  0.00    +0.000 S 
ENDBRANCH  18  21
ENDBRANCH   6  18
TORSDOF 3
ENDMDL
MODEL 3
REMARK VINA RESULT:      -8.4      1.135      2.550
REMARK  Name = 
REMARK  6 active torsions:
REMARK  status: ('A' for Active; 'I' for Inactive)
REMARK    1  A    between atoms: C_1  and  C_2
REMARK    2  A    between atoms: C_3  and  C_4
REMARK    3  A    between atoms: N_16  and  C_17
REMARK    4  A    between atoms: C_17  and  C_18
REMARK    5  A    between atoms: C_17  and  C_19
REMARK    6  A    between atoms: C_17  and  C_20
REMARK                            x       y       z     vdW  Elec       q    Type
REMARK                         _______ _______ _______ _____ _____    ______ ____
ROOT
ATOM      1  C   UNL     1       2.026   6.272  21.067  0.00  0.00    +0.000 C 
ATOM      2  C   UNL     1       1.882   7.432  20.143  0.00  0.00    +0.000 C 
ATOM      3  C   UNL     1       2.338   7.547  18.886  0.00  0.00    +0.000 C 
ATOM      4  C   UNL     1       1.952   8.902  18.422  0.00  0.00    +0.000 C 
ATOM      5  O   UNL     1       2.270   9.384  17.349  0.00  0.00    +0.000 OA
ATOM      6  N   UNL     1       1.198   9.488  19.428  0.00  0.00    +0.000 N 
ATOM      7  C   UNL     1       1.153   8.653  20.602  0.00  0.00    +0.000 C 
ENDROOT
BRANCH   3   8
ATOM      8  C   UNL     1       3.092   6.570  18.098  0.00  0.00    +0.000 A 
ATOM      9  C   UNL     1       4.245   7.024  17.437  0.00  0.00    +0.000 A 
ATOM     10  C   UNL     1       5.023   6.151  16.685  0.00  0.00    +0.000 A 
ATOM     11  C   UNL     1       4.658   4.810  16.585  0.00  0.00    +0.000 A 
ATOM     12  C   UNL     1       3.518   4.323  17.237  0.00  0.00    +0.000 A 
ATOM     13  C   UNL     1       3.174   2.964  17.130  0.00  0.00    +0.000 A 
ATOM     14  C   UNL     1       2.050   2.455  17.775  0.00  0.00    +0.000 A 
ATOM     15  C   UNL     1       1.249   3.299  18.532  0.00  0.00    +0.000 A 
ATOM     16  C   UNL     1       1.574   4.654  18.645  0.00  0.00    +0.000 A 
ATOM     17  C   UNL     1       2.713   5.201  18.007  0.00  0.00    +0.000 A 
ENDBRANCH   3   8
BRANCH   6  18
ATOM     18  C   UNL     1       0.697  10.887  19.387  0.00  0.00    +0.000 C 
ATOM     19  C   UNL     1       0.776  11.514  20.800  0.00  0.00    +0.000 C 
ATOM     20  C   UNL     1       1.580  11.746  18.451  0.00  0.00    +0.000 C 
BRANCH  18  21
ATOM     21  C   UNL     1      -0.781  10.935  18.927  0.00  0.00    +0.000 A 
ATOM     22  N   UNL     1      -1.743  11.552  19.592  0.00  0.00    +0.000 NA
ATOM     23  C   UNL     1      -2.922  11.552  18.860  0.00  0.00    +0.000 A 
ATOM     24  C   UNL     1      -4.128  12.189  19.220  0.00  0.00    +0.000 A 
ATOM     25  C   UNL     1      -5.227  12.143  18.355  0.00  0.00    +0.000 A 
ATOM     26  C   UNL     1      -5.142  11.465  17.143  0.00  0.00    +0.000 A 
ATOM     27  C   UNL     1      -3.966  10.807  16.773  0.00  0.00    +0.000 A 
ATOM     28  C   UNL     1      -2.869  10.864  17.650  0.00  0.00    +0.000 A 
ATOM     29  S   UNL     1      -1.312  10.164  17.474  0.00  0.00    +0.000 S 
ENDBRANCH  18  21
ENDBRANCH   6  18
TORSDOF 3
ENDMDL
MODEL 4
REMARK VINA RESULT:      -8.4      0.772      2.209
REMARK  Name = 
REMARK  6 active torsions:
REMARK  status: ('A' for Active; 'I' for Inactive)
REMARK    1  A    between atoms: C_1  and  C_2
REMARK    2  A    between atoms: C_3  and  C_4
REMARK    3  A    between atoms: N_16  and  C_17
REMARK    4  A    between atoms: C_17  and  C_18
REMARK    5  A    between atoms: C_17  and  C_19
REMARK    6  A    between atoms: C_17  and  C_20
REMARK                            x       y       z     vdW  Elec       q    Type
REMARK                         _______ _______ _______ _____ _____    ______ ____
ROOT
ATOM      1  C   UNL     1       2.002   6.141  21.016  0.00  0.00    +0.000 C 
ATOM      2  C   UNL     1       1.906   7.331  20.125  0.00  0.00    +0.000 C 
ATOM      3  C   UNL     1       2.386   7.470  18.880  0.00  0.00    +0.000 C 
ATOM      4  C   UNL     1       2.047   8.849  18.450  0.00  0.00    +0.000 C 
ATOM      5  O   UNL     1       2.396   9.354  17.398  0.00  0.00    +0.000 OA
ATOM      6  N   UNL     1       1.291   9.426  19.461  0.00  0.00    +0.000 N 
ATOM      7  C   UNL     1       1.202   8.559  20.609  0.00  0.00    +0.000 C 
ENDROOT
BRANCH   3   8
ATOM      8  C   UNL     1       3.127   6.496  18.076  0.00  0.00    +0.000 A 
ATOM      9  C   UNL     1       4.266   6.954  17.392  0.00  0.00    +0.000 A 
ATOM     10  C   UNL     1       5.030   6.085  16.623  0.00  0.00    +0.000 A 
ATOM     11  C   UNL     1       4.666   4.743  16.528  0.00  0.00    +0.000 A 
ATOM     12  C   UNL     1       3.541   4.252  17.202  0.00  0.00    +0.000 A 
ATOM     13  C   UNL     1       3.197   2.892  17.100  0.00  0.00    +0.000 A 
ATOM     14  C   UNL     1       2.087   2.379  17.766  0.00  0.00    +0.000 A 
ATOM     15  C   UNL     1       1.300   3.221  18.541  0.00  0.00    +0.000 A 
ATOM     16  C   UNL     1       1.624   4.576  18.650  0.00  0.00    +0.000 A 
ATOM     17  C   UNL     1       2.749   5.127  17.990  0.00  0.00    +0.000 A 
ENDBRANCH   3   8
BRANCH   6  18
ATOM     18  C   UNL     1       0.830  10.839  19.454  0.00  0.00    +0.000 C 
ATOM     19  C   UNL     1       0.592  11.321  20.905  0.00  0.00    +0.000 C 
ATOM     20  C   UNL     1       1.914  11.755  18.836  0.00  0.00    +0.000 C 
BRANCH  18  21
ATOM     21  C   UNL     1      -0.504  10.985  18.679  0.00  0.00    +0.000 A 
ATOM     22  N   UNL     1      -0.744  10.422  17.507  0.00  0.00    +0.000 NA
ATOM     23  C   UNL     1      -2.069  10.606  17.139  0.00  0.00    +0.000 A 
ATOM     24  C   UNL     1      -2.698  10.073  15.993  0.00  0.00    +0.000 A 
ATOM     25  C   UNL     1      -4.060  10.305  15.774  0.00  0.00    +0.000 A 
ATOM     26  C   UNL     1      -4.799  11.066  16.675  0.00  0.00    +0.000 A 
ATOM     27  C   UNL     1      -4.194  11.624  17.804  0.00  0.00    +0.000 A 
ATOM     28  C   UNL     1      -2.826  11.380  18.014  0.00  0.00    +0.000 A 
ATOM     29  S   UNL     1      -1.819  11.923  19.293  0.00  0.00    +0.000 S 
ENDBRANCH  18  21
ENDBRANCH   6  18
TORSDOF 3
ENDMDL
MODEL 5
REMARK VINA RESULT:      -8.0      1.757      3.068
REMARK  Name = 
REMARK  6 active torsions:
REMARK  status: ('A' for Active; 'I' for Inactive)
REMARK    1  A    between atoms: C_1  and  C_2
REMARK    2  A    between atoms: C_3  and  C_4
REMARK    3  A    between atoms: N_16  and  C_17
REMARK    4  A    between atoms: C_17  and  C_18
REMARK    5  A    between atoms: C_17  and  C_19
REMARK    6  A    between atoms: C_17  and  C_20
REMARK                            x       y       z     vdW  Elec       q    Type
REMARK                         _______ _______ _______ _____ _____    ______ ____
ROOT
ATOM      1  C   UNL     1       3.619   7.753  16.579  0.00  0.00    +0.000 C 
ATOM      2  C   UNL     1       2.854   7.884  17.851  0.00  0.00    +0.000 C 
ATOM      3  C   UNL     1       2.799   7.016  18.874  0.00  0.00    +0.000 C 
ATOM      4  C   UNL     1       1.880   7.607  19.877  0.00  0.00    +0.000 C 
ATOM      5  O   UNL     1       1.529   7.058  20.906  0.00  0.00    +0.000 OA
ATOM      6  N   UNL     1       1.506   8.860  19.412  0.00  0.00    +0.000 N 
ATOM      7  C   UNL     1       2.023   9.103  18.088  0.00  0.00    +0.000 C 
ENDROOT
BRANCH   3   8
ATOM      8  C   UNL     1       3.471   5.722  19.007  0.00  0.00    +0.000 A 
ATOM      9  C   UNL     1       4.852   5.733  19.261  0.00  0.00    +0.000 A 
ATOM     10  C   UNL     1       5.555   4.544  19.417  0.00  0.00    +0.000 A 
ATOM     11  C   UNL     1       4.885   3.326  19.322  0.00  0.00    +0.000 A 
ATOM     12  C   UNL     1       3.507   3.279  19.076  0.00  0.00    +0.000 A 
ATOM     13  C   UNL     1       2.849   2.039  18.993  0.00  0.00    +0.000 A 
ATOM     14  C   UNL     1       1.479   1.967  18.756  0.00  0.00    +0.000 A 
ATOM     15  C   UNL     1       0.746   3.136  18.593  0.00  0.00    +0.000 A 
ATOM     16  C   UNL     1       1.385   4.377  18.667  0.00  0.00    +0.000 A 
ATOM     17  C   UNL     1       2.775   4.484  18.913  0.00  0.00    +0.000 A 
ENDBRANCH   3   8
BRANCH   6  18
ATOM     18  C   UNL     1       0.517   9.740  20.089  0.00  0.00    +0.000 C 
ATOM     19  C   UNL     1      -0.169   8.968  21.242  0.00  0.00    +0.000 C 
ATOM     20  C   UNL     1       1.228  10.965  20.713  0.00  0.00    +0.000 C 
BRANCH  18  21
ATOM     21  C   UNL     1      -0.584  10.200  19.102  0.00  0.00    +0.000 A 
ATOM     22  N   UNL     1      -0.747   9.700  17.889  0.00  0.00    +0.000 NA
ATOM     23  C   UNL     1      -1.901  10.200  17.304  0.00  0.00    +0.000 A 
ATOM     24  C   UNL     1      -2.432   9.825  16.052  0.00  0.00    +0.000 A 
ATOM     25  C   UNL     1      -3.637  10.382  15.609  0.00  0.00    +0.000 A 
ATOM     26  C   UNL     1      -4.313  11.312  16.394  0.00  0.00    +0.000 A 
ATOM     27  C   UNL     1      -3.797  11.717  17.628  0.00  0.00    +0.000 A 
ATOM     28  C   UNL     1      -2.587  11.147  18.061  0.00  0.00    +0.000 A 
ATOM     29  S   UNL     1      -1.717  11.440  19.511  0.00  0.00    +0.000 S 
ENDBRANCH  18  21
ENDBRANCH   6  18
TORSDOF 3
ENDMDL
MODEL 6
REMARK VINA RESULT:      -7.9      2.160      4.764
REMARK  Name = 
REMARK  6 active torsions:
REMARK  status: ('A' for Active; 'I' for Inactive)
REMARK    1  A    between atoms: C_1  and  C_2
REMARK    2  A    between atoms: C_3  and  C_4
REMARK    3  A    between atoms: N_16  and  C_17
REMARK    4  A    between atoms: C_17  and  C_18
REMARK    5  A    between atoms: C_17  and  C_19
REMARK    6  A    between atoms: C_17  and  C_20
REMARK                            x       y       z     vdW  Elec       q    Type
REMARK                         _______ _______ _______ _____ _____    ______ ____
ROOT
ATOM      1  C   UNL     1       2.203   6.412  21.194  0.00  0.00    +0.000 C 
ATOM      2  C   UNL     1       1.855   7.533  20.278  0.00  0.00    +0.000 C 
ATOM      3  C   UNL     1       2.239   7.706  19.003  0.00  0.00    +0.000 C 
ATOM      4  C   UNL     1       1.642   8.989  18.555  0.00  0.00    +0.000 C 
ATOM      5  O   UNL     1       1.843   9.506  17.472  0.00  0.00    +0.000 OA
ATOM      6  N   UNL     1       0.851   9.464  19.592  0.00  0.00    +0.000 N 
ATOM      7  C   UNL     1       0.975   8.638  20.767  0.00  0.00    +0.000 C 
ENDROOT
BRANCH   3   8
ATOM      8  C   UNL     1       3.095   6.845  18.185  0.00  0.00    +0.000 A 
ATOM      9  C   UNL     1       4.243   7.424  17.619  0.00  0.00    +0.000 A 
ATOM     10  C   UNL     1       5.113   6.665  16.846  0.00  0.00    +0.000 A 
ATOM     11  C   UNL     1       4.848   5.315  16.628  0.00  0.00    +0.000 A 
ATOM     12  C   UNL     1       3.716   4.704  17.183  0.00  0.00    +0.000 A 
ATOM     13  C   UNL     1       3.472   3.338  16.958  0.00  0.00    +0.000 A 
ATOM     14  C   UNL     1       2.358   2.707  17.505  0.00  0.00    +0.000 A 
ATOM     15  C   UNL     1       1.466   3.436  18.281  0.00  0.00    +0.000 A 
ATOM     16  C   UNL     1       1.690   4.796  18.510  0.00  0.00    +0.000 A 
ATOM     17  C   UNL     1       2.817   5.466  17.974  0.00  0.00    +0.000 A 
ENDBRANCH   3   8
BRANCH   6  18
ATOM     18  C   UNL     1       0.151  10.775  19.572  0.00  0.00    +0.000 C 
ATOM     19  C   UNL     1      -0.659  10.918  18.261  0.00  0.00    +0.000 C 
ATOM     20  C   UNL     1      -0.853  10.865  20.747  0.00  0.00    +0.000 C 
BRANCH  18  21
ATOM     21  C   UNL     1       1.162  11.947  19.636  0.00  0.00    +0.000 A 
ATOM     22  N   UNL     1       1.702  12.398  20.756  0.00  0.00    +0.000 NA
ATOM     23  C   UNL     1       2.678  13.344  20.482  0.00  0.00    +0.000 A 
ATOM     24  C   UNL     1       3.516  13.976  21.425  0.00  0.00    +0.000 A 
ATOM     25  C   UNL     1       4.493  14.881  20.995  0.00  0.00    +0.000 A 
ATOM     26  C   UNL     1       4.639  15.170  19.642  0.00  0.00    +0.000 A 
ATOM     27  C   UNL     1       3.806  14.575  18.690  0.00  0.00    +0.000 A 
ATOM     28  C   UNL     1       2.832  13.666  19.136  0.00  0.00    +0.000 A 
ATOM     29  S   UNL     1       1.678  12.788  18.217  0.00  0.00    +0.000 S 
ENDBRANCH  18  21
ENDBRANCH   6  18
TORSDOF 3
ENDMDL
MODEL 7
REMARK VINA RESULT:      -7.9      2.145      4.502
REMARK  Name = 
REMARK  6 active torsions:
REMARK  status: ('A' for Active; 'I' for Inactive)
REMARK    1  A    between atoms: C_1  and  C_2
REMARK    2  A    between atoms: C_3  and  C_4
REMARK    3  A    between atoms: N_16  and  C_17
REMARK    4  A    between atoms: C_17  and  C_18
REMARK    5  A    between atoms: C_17  and  C_19
REMARK    6  A    between atoms: C_17  and  C_20
REMARK                            x       y       z     vdW  Elec       q    Type
REMARK                         _______ _______ _______ _____ _____    ______ ____
ROOT
ATOM      1  C   UNL     1       2.231   6.378  21.117  0.00  0.00    +0.000 C 
ATOM      2  C   UNL     1       1.903   7.471  20.161  0.00  0.00    +0.000 C 
ATOM      3  C   UNL     1       2.302   7.600  18.886  0.00  0.00    +0.000 C 
ATOM      4  C   UNL     1       1.721   8.872  18.390  0.00  0.00    +0.000 C 
ATOM      5  O   UNL     1       1.938   9.353  17.292  0.00  0.00    +0.000 OA
ATOM      6  N   UNL     1       0.922   9.387  19.401  0.00  0.00    +0.000 N 
ATOM      7  C   UNL     1       1.026   8.599  20.603  0.00  0.00    +0.000 C 
ENDROOT
BRANCH   3   8
ATOM      8  C   UNL     1       3.160   6.706  18.106  0.00  0.00    +0.000 A 
ATOM      9  C   UNL     1       4.324   7.256  17.542  0.00  0.00    +0.000 A 
ATOM     10  C   UNL     1       5.197   6.466  16.804  0.00  0.00    +0.000 A 
ATOM     11  C   UNL     1       4.918   5.113  16.620  0.00  0.00    +0.000 A 
ATOM     12  C   UNL     1       3.771   4.531  17.174  0.00  0.00    +0.000 A 
ATOM     13  C   UNL     1       3.514   3.162  16.984  0.00  0.00    +0.000 A 
ATOM     14  C   UNL     1       2.384   2.560  17.531  0.00  0.00    +0.000 A 
ATOM     15  C   UNL     1       1.489   3.320  18.272  0.00  0.00    +0.000 A 
ATOM     16  C   UNL     1       1.726   4.684  18.466  0.00  0.00    +0.000 A 
ATOM     17  C   UNL     1       2.869   5.325  17.929  0.00  0.00    +0.000 A 
ENDBRANCH   3   8
BRANCH   6  18
ATOM     18  C   UNL     1       0.233  10.702  19.331  0.00  0.00    +0.000 C 
ATOM     19  C   UNL     1      -0.521  10.829  17.985  0.00  0.00    +0.000 C 
ATOM     20  C   UNL     1      -0.818  10.818  20.461  0.00  0.00    +0.000 C 
BRANCH  18  21
ATOM     21  C   UNL     1       1.249  11.868  19.418  0.00  0.00    +0.000 A 
ATOM     22  N   UNL     1       1.951  12.317  18.391  0.00  0.00    +0.000 NA
ATOM     23  C   UNL     1       2.656  13.459  18.742  0.00  0.00    +0.000 A 
ATOM     24  C   UNL     1       3.443  14.252  17.879  0.00  0.00    +0.000 A 
ATOM     25  C   UNL     1       4.062  15.408  18.366  0.00  0.00    +0.000 A 
ATOM     26  C   UNL     1       3.915  15.778  19.700  0.00  0.00    +0.000 A 
ATOM     27  C   UNL     1       3.160  14.998  20.579  0.00  0.00    +0.000 A 
ATOM     28  C   UNL     1       2.541  13.841  20.076  0.00  0.00    +0.000 A 
ATOM     29  S   UNL     1       1.564  12.697  20.902  0.00  0.00    +0.000 S 
ENDBRANCH  18  21
ENDBRANCH   6  18
TORSDOF 3
ENDMDL
MODEL 8
REMARK VINA RESULT:      -7.8      2.831      8.331
REMARK  Name = 
REMARK  6 active torsions:
REMARK  status: ('A' for Active; 'I' for Inactive)
REMARK    1  A    between atoms: C_1  and  C_2
REMARK    2  A    between atoms: C_3  and  C_4
REMARK    3  A    between atoms: N_16  and  C_17
REMARK    4  A    between atoms: C_17  and  C_18
REMARK    5  A    between atoms: C_17  and  C_19
REMARK    6  A    between atoms: C_17  and  C_20
REMARK                            x       y       z     vdW  Elec       q    Type
REMARK                         _______ _______ _______ _____ _____    ______ ____
ROOT
ATOM      1  C   UNL     1       2.317   9.762  17.982  0.00  0.00    +0.000 C 
ATOM      2  C   UNL     1       2.168   8.431  18.632  0.00  0.00    +0.000 C 
ATOM      3  C   UNL     1       1.520   8.136  19.770  0.00  0.00    +0.000 C 
ATOM      4  C   UNL     1       1.694   6.678  19.987  0.00  0.00    +0.000 C 
ATOM      5  O   UNL     1       1.305   6.072  20.968  0.00  0.00    +0.000 OA
ATOM      6  N   UNL     1       2.376   6.172  18.890  0.00  0.00    +0.000 N 
ATOM      7  C   UNL     1       2.787   7.227  17.997  0.00  0.00    +0.000 C 
ENDROOT
BRANCH   3   8
ATOM      8  C   UNL     1       0.798   9.040  20.667  0.00  0.00    +0.000 A 
ATOM      9  C   UNL     1       1.115   8.984  22.035  0.00  0.00    +0.000 A 
ATOM     10  C   UNL     1       0.484   9.824  22.945  0.00  0.00    +0.000 A 
ATOM     11  C   UNL     1      -0.472  10.734  22.499  0.00  0.00    +0.000 A 
ATOM     12  C   UNL     1      -0.807  10.821  21.141  0.00  0.00    +0.000 A 
ATOM     13  C   UNL     1      -1.768  11.753  20.712  0.00  0.00    +0.000 A 
ATOM     14  C   UNL     1      -2.111  11.864  19.367  0.00  0.00    +0.000 A 
ATOM     15  C   UNL     1      -1.502  11.038  18.431  0.00  0.00    +0.000 A 
ATOM     16  C   UNL     1      -0.548  10.102  18.842  0.00  0.00    +0.000 A 
ATOM     17  C   UNL     1      -0.173   9.970  20.200  0.00  0.00    +0.000 A 
ENDBRANCH   3   8
BRANCH   6  18
ATOM     18  C   UNL     1       2.827   4.762  18.766  0.00  0.00    +0.000 C 
ATOM     19  C   UNL     1       3.328   4.248  20.138  0.00  0.00    +0.000 C 
ATOM     20  C   UNL     1       1.646   3.857  18.338  0.00  0.00    +0.000 C 
BRANCH  18  21
ATOM     21  C   UNL     1       3.994   4.637  17.756  0.00  0.00    +0.000 A 
ATOM     22  N   UNL     1       3.859   4.182  16.522  0.00  0.00    +0.000 NA
ATOM     23  C   UNL     1       5.043   4.331  15.813  0.00  0.00    +0.000 A 
ATOM     24  C   UNL     1       5.242   4.033  14.449  0.00  0.00    +0.000 A 
ATOM     25  C   UNL     1       6.484   4.280  13.854  0.00  0.00    +0.000 A 
ATOM     26  C   UNL     1       7.530   4.811  14.603  0.00  0.00    +0.000 A 
ATOM     27  C   UNL     1       7.366   5.093  15.962  0.00  0.00    +0.000 A 
ATOM     28  C   UNL     1       6.111   4.844  16.545  0.00  0.00    +0.000 A 
ATOM     29  S   UNL     1       5.611   5.086  18.169  0.00  0.00    +0.000 S 
ENDBRANCH  18  21
ENDBRANCH   6  18
TORSDOF 3
ENDMDL
MODEL 9
REMARK VINA RESULT:      -7.8      3.386      8.156
REMARK  Name = 
REMARK  6 active torsions:
REMARK  status: ('A' for Active; 'I' for Inactive)
REMARK    1  A    between atoms: C_1  and  C_2
REMARK    2  A    between atoms: C_3  and  C_4
REMARK    3  A    between atoms: N_16  and  C_17
REMARK    4  A    between atoms: C_17  and  C_18
REMARK    5  A    between atoms: C_17  and  C_19
REMARK    6  A    between atoms: C_17  and  C_20
REMARK                            x       y       z     vdW  Elec       q    Type
REMARK                         _______ _______ _______ _____ _____    ______ ____
ROOT
ATOM      1  C   UNL     1       1.860   5.252  20.290  0.00  0.00    +0.000 C 
ATOM      2  C   UNL     1       2.970   5.840  19.490  0.00  0.00    +0.000 C 
ATOM      3  C   UNL     1       3.002   7.033  18.875  0.00  0.00    +0.000 C 
ATOM      4  C   UNL     1       4.320   7.122  18.200  0.00  0.00    +0.000 C 
ATOM      5  O   UNL     1       4.668   8.038  17.477  0.00  0.00    +0.000 OA
ATOM      6  N   UNL     1       5.040   5.985  18.538  0.00  0.00    +0.000 N 
ATOM      7  C   UNL     1       4.236   5.067  19.307  0.00  0.00    +0.000 C 
ENDROOT
BRANCH   3   8
ATOM      8  C   UNL     1       1.960   8.060  18.827  0.00  0.00    +0.000 A 
ATOM      9  C   UNL     1       1.482   8.438  17.561  0.00  0.00    +0.000 A 
ATOM     10  C   UNL     1       0.481   9.394  17.436  0.00  0.00    +0.000 A 
ATOM     11  C   UNL     1      -0.057   9.986  18.577  0.00  0.00    +0.000 A 
ATOM     12  C   UNL     1       0.391   9.627  19.855  0.00  0.00    +0.000 A 
ATOM     13  C   UNL     1      -0.172  10.230  20.993  0.00  0.00    +0.000 A 
ATOM     14  C   UNL     1       0.252   9.884  22.274  0.00  0.00    +0.000 A 
ATOM     15  C   UNL     1       1.252   8.935  22.435  0.00  0.00    +0.000 A 
ATOM     16  C   UNL     1       1.827   8.329  21.314  0.00  0.00    +0.000 A 
ATOM     17  C   UNL     1       1.414   8.653  19.999  0.00  0.00    +0.000 A 
ENDBRANCH   3   8
BRANCH   6  18
ATOM     18  C   UNL     1       6.380   5.652  17.989  0.00  0.00    +0.000 C 
ATOM     19  C   UNL     1       7.312   6.883  18.097  0.00  0.00    +0.000 C 
ATOM     20  C   UNL     1       7.028   4.511  18.810  0.00  0.00    +0.000 C 
BRANCH  18  21
ATOM     21  C   UNL     1       6.286   5.255  16.495  0.00  0.00    +0.000 A 
ATOM     22  N   UNL     1       7.149   5.643  15.571  0.00  0.00    +0.000 NA
ATOM     23  C   UNL     1       6.892   5.007  14.365  0.00  0.00    +0.000 A 
ATOM     24  C   UNL     1       7.659   5.115  13.185  0.00  0.00    +0.000 A 
ATOM     25  C   UNL     1       7.303   4.374  12.052  0.00  0.00    +0.000 A 
ATOM     26  C   UNL     1       6.192   3.537  12.077  0.00  0.00    +0.000 A 
ATOM     27  C   UNL     1       5.403   3.431  13.226  0.00  0.00    +0.000 A 
ATOM     28  C   UNL     1       5.773   4.178  14.358  0.00  0.00    +0.000 A 
ATOM     29  S   UNL     1       5.012   4.254  15.894  0.00  0.00    +0.000 S 
ENDBRANCH  18  21
ENDBRANCH   6  18
TORSDOF 3
ENDMDL
