MODEL 1
REMARK VINA RESULT:      -8.1      0.000      0.000
REMARK  Name = 
REMARK  7 active torsions:
REMARK  status: ('A' for Active; 'I' for Inactive)
REMARK    1  A    between atoms: C_1  and  C_2
REMARK    2  A    between atoms: C_5  and  C_6
REMARK    3  A    between atoms: C_8  and  C_9
REMARK    4  A    between atoms: C_14  and  N_15
REMARK    5  A    between atoms: C_17  and  C_18
REMARK    6  A    between atoms: N_26  and  C_27
REMARK    7  A    between atoms: C_30  and  C_31
REMARK                            x       y       z     vdW  Elec       q    Type
REMARK                         _______ _______ _______ _____ _____    ______ ____
ROOT
ATOM      1  C   UNL     1       3.379   3.788  19.715  0.00  0.00    +0.000 A 
ATOM      2  N   UNL     1       3.039   2.595  20.189  0.00  0.00    +0.000 NA
ATOM      3  C   UNL     1       2.149   2.879  21.188  0.00  0.00    +0.000 A 
ATOM      4  C   UNL     1       1.513   1.831  22.009  0.00  0.00    +0.000 C 
ATOM      5  N   UNL     1       1.896   4.177  21.366  0.00  0.00    +0.000 NA
ATOM      6  N   UNL     1       2.603   4.756  20.347  0.00  0.00    +0.000 N 
ATOM      7  C   UNL     1       2.356   6.115  19.994  0.00  0.00    +0.000 A 
ATOM      8  C   UNL     1       1.746   6.947  20.919  0.00  0.00    +0.000 A 
ATOM      9  C   UNL     1       1.383   8.211  20.500  0.00  0.00    +0.000 A 
ATOM     10  N   UNL     1       1.661   8.629  19.249  0.00  0.00    +0.000 NA
ATOM     11  C   UNL     1       2.305   7.779  18.428  0.00  0.00    +0.000 A 
ATOM     12  C   UNL     1       2.720   8.267  17.073  0.00  0.00    +0.000 C 
ATOM     13  N   UNL     1       2.628   6.519  18.736  0.00  0.00    +0.000 NA
ENDROOT
BRANCH   1  18
ATOM     14  C   UNL     1       7.392   4.961  15.910  0.00  0.00    +0.000 C 
ATOM     15  C   UNL     1       6.361   4.550  16.911  0.00  0.00    +0.000 A 
ATOM     16  C   UNL     1       6.541   4.810  18.264  0.00  0.00    +0.000 A 
ATOM     17  N   UNL     1       5.598   4.536  19.202  0.00  0.00    +0.000 NA
ATOM     18  C   UNL     1       4.428   4.038  18.735  0.00  0.00    +0.000 A 
ATOM     19  C   UNL     1       4.262   3.733  17.393  0.00  0.00    +0.000 A 
ATOM     20  N   UNL     1       5.217   3.989  16.449  0.00  0.00    +0.000 NA
ENDBRANCH   1  18
BRANCH   9  21
ATOM     21  N   UNL     1       0.660   9.073  21.345  0.00  0.00    +0.000 N 
ATOM     22  C   UNL     1      -0.587   9.750  21.212  0.00  0.00    +0.000 C 
ATOM     23  C   UNL     1       0.011  10.952  21.975  0.00  0.00    +0.000 C 
ATOM     24  C   UNL     1       1.185  10.002  22.296  0.00  0.00    +0.000 C 
BRANCH  23  25
ATOM     25  C   UNL     1       0.406  12.196  21.143  0.00  0.00    +0.000 A 
ATOM     26  N   UNL     1       1.672  12.538  20.984  0.00  0.00    +0.000 NA
ATOM     27  C   UNL     1       1.668  13.667  20.191  0.00  0.00    +0.000 A 
ATOM     28  C   UNL     1       2.729  14.396  19.624  0.00  0.00    +0.000 A 
ATOM     29  C   UNL     1       2.433  15.521  18.833  0.00  0.00    +0.000 A 
ATOM     30  C   UNL     1       1.119  15.952  18.666  0.00  0.00    +0.000 A 
ATOM     31  C   UNL     1       0.056  15.248  19.231  0.00  0.00    +0.000 A 
ATOM     32  C   UNL     1       0.371  14.081  19.939  0.00  0.00    +0.000 A 
ATOM     33  N   UNL     1      -0.406  13.068  20.446  0.00  0.00    +0.000 N 
ATOM     34  C   UNL     1      -1.793  12.899  20.105  0.00  0.00    +0.000 C 
ENDBRANCH  23  25
ENDBRANCH   9  21
TORSDOF 3
ENDMDL
MODEL 2
REMARK VINA RESULT:      -7.9      2.014      3.017
REMARK  Name = 
REMARK  7 active torsions:
REMARK  status: ('A' for Active; 'I' for Inactive)
REMARK    1  A    between atoms: C_1  and  C_2
REMARK    2  A    between atoms: C_5  and  C_6
REMARK    3  A    between atoms: C_8  and  C_9
REMARK    4  A    between atoms: C_14  and  N_15
REMARK    5  A    between atoms: C_17  and  C_18
REMARK    6  A    between atoms: N_26  and  C_27
REMARK    7  A    between atoms: C_30  and  C_31
REMARK                            x       y       z     vdW  Elec       q    Type
REMARK                         _______ _______ _______ _____ _____    ______ ____
ROOT
ATOM      1  C   UNL     1       3.317   4.038  19.636  0.00  0.00    +0.000 A 
ATOM      2  N   UNL     1       2.894   2.905  20.185  0.00  0.00    +0.000 NA
ATOM      3  C   UNL     1       2.017   3.314  21.151  0.00  0.00    +0.000 A 
ATOM      4  C   UNL     1       1.307   2.369  22.032  0.00  0.00    +0.000 C 
ATOM      5  N   UNL     1       1.850   4.635  21.239  0.00  0.00    +0.000 NA
ATOM      6  N   UNL     1       2.603   5.096  20.192  0.00  0.00    +0.000 N 
ATOM      7  C   UNL     1       2.450   6.442  19.746  0.00  0.00    +0.000 A 
ATOM      8  C   UNL     1       1.890   7.373  20.606  0.00  0.00    +0.000 A 
ATOM      9  C   UNL     1       1.616   8.627  20.099  0.00  0.00    +0.000 A 
ATOM     10  N   UNL     1       1.931   8.940  18.826  0.00  0.00    +0.000 NA
ATOM     11  C   UNL     1       2.523   7.996  18.072  0.00  0.00    +0.000 A 
ATOM     12  C   UNL     1       2.980   8.363  16.692  0.00  0.00    +0.000 C 
ATOM     13  N   UNL     1       2.758   6.741  18.468  0.00  0.00    +0.000 NA
ENDROOT
BRANCH   1  18
ATOM     14  C   UNL     1       7.435   4.685  15.816  0.00  0.00    +0.000 C 
ATOM     15  C   UNL     1       6.366   4.410  16.825  0.00  0.00    +0.000 A 
ATOM     16  C   UNL     1       6.565   4.706  18.168  0.00  0.00    +0.000 A 
ATOM     17  N   UNL     1       5.597   4.556  19.110  0.00  0.00    +0.000 NA
ATOM     18  C   UNL     1       4.388   4.152  18.654  0.00  0.00    +0.000 A 
ATOM     19  C   UNL     1       4.199   3.811  17.323  0.00  0.00    +0.000 A 
ATOM     20  N   UNL     1       5.177   3.941  16.378  0.00  0.00    +0.000 NA
ENDBRANCH   1  18
BRANCH   9  21
ATOM     21  N   UNL     1       0.945   9.590  20.876  0.00  0.00    +0.000 N 
ATOM     22  C   UNL     1      -0.245   9.556  21.658  0.00  0.00    +0.000 C 
ATOM     23  C   UNL     1      -0.555  10.999  21.208  0.00  0.00    +0.000 C 
ATOM     24  C   UNL     1       0.885  11.000  20.652  0.00  0.00    +0.000 C 
BRANCH  23  25
ATOM     25  C   UNL     1      -1.654  11.188  20.133  0.00  0.00    +0.000 A 
ATOM     26  N   UNL     1      -1.575  10.581  18.962  0.00  0.00    +0.000 NA
ATOM     27  C   UNL     1      -2.704  10.951  18.262  0.00  0.00    +0.000 A 
ATOM     28  C   UNL     1      -3.190  10.529  17.011  0.00  0.00    +0.000 A 
ATOM     29  C   UNL     1      -4.397  11.072  16.533  0.00  0.00    +0.000 A 
ATOM     30  C   UNL     1      -5.070  12.060  17.248  0.00  0.00    +0.000 A 
ATOM     31  C   UNL     1      -4.596  12.498  18.484  0.00  0.00    +0.000 A 
ATOM     32  C   UNL     1      -3.442  11.878  18.979  0.00  0.00    +0.000 A 
ATOM     33  N   UNL     1      -2.823  11.917  20.206  0.00  0.00    +0.000 N 
ATOM     34  C   UNL     1      -3.442  12.475  21.378  0.00  0.00    +0.000 C 
ENDBRANCH  23  25
ENDBRANCH   9  21
TORSDOF 3
ENDMDL
MODEL 3
REMARK VINA RESULT:      -7.8      2.602     10.139
REMARK  Name = 
REMARK  7 active torsions:
REMARK  status: ('A' for Active; 'I' for Inactive)
REMARK    1  A    between atoms: C_1  and  C_2
REMARK    2  A    between atoms: C_5  and  C_6
REMARK    3  A    between atoms: C_8  and  C_9
REMARK    4  A    between atoms: C_14  and  N_15
REMARK    5  A    between atoms: C_17  and  C_18
REMARK    6  A    between atoms: N_26  and  C_27
REMARK    7  A    between atoms: C_30  and  C_31
REMARK                            x       y       z     vdW  Elec       q    Type
REMARK                         _______ _______ _______ _____ _____    ______ ____
ROOT
ATOM      1  C   UNL     1      -3.534  12.450  20.154  0.00  0.00    +0.000 A 
ATOM      2  N   UNL     1      -4.639  12.561  19.425  0.00  0.00    +0.000 NA
ATOM      3  C   UNL     1      -4.291  12.026  18.216  0.00  0.00    +0.000 A 
ATOM      4  C   UNL     1      -5.227  11.953  17.079  0.00  0.00    +0.000 C 
ATOM      5  N   UNL     1      -3.039  11.571  18.139  0.00  0.00    +0.000 NA
ATOM      6  N   UNL     1      -2.585  11.744  19.420  0.00  0.00    +0.000 N 
ATOM      7  C   UNL     1      -1.385  11.100  19.841  0.00  0.00    +0.000 A 
ATOM      8  C   UNL     1      -0.480  10.675  18.881  0.00  0.00    +0.000 A 
ATOM      9  C   UNL     1       0.597   9.924  19.305  0.00  0.00    +0.000 A 
ATOM     10  N   UNL     1       0.780   9.660  20.615  0.00  0.00    +0.000 NA
ATOM     11  C   UNL     1      -0.114  10.155  21.490  0.00  0.00    +0.000 A 
ATOM     12  C   UNL     1       0.136   9.966  22.955  0.00  0.00    +0.000 C 
ATOM     13  N   UNL     1      -1.217  10.832  21.152  0.00  0.00    +0.000 NA
ENDROOT
BRANCH   1  18
ATOM     14  C   UNL     1      -2.956  14.755  25.284  0.00  0.00    +0.000 C 
ATOM     15  C   UNL     1      -3.014  14.102  23.941  0.00  0.00    +0.000 A 
ATOM     16  C   UNL     1      -3.798  12.974  23.732  0.00  0.00    +0.000 A 
ATOM     17  N   UNL     1      -3.952  12.395  22.513  0.00  0.00    +0.000 NA
ATOM     18  C   UNL     1      -3.337  13.020  21.481  0.00  0.00    +0.000 A 
ATOM     19  C   UNL     1      -2.517  14.117  21.692  0.00  0.00    +0.000 A 
ATOM     20  N   UNL     1      -2.343  14.689  22.920  0.00  0.00    +0.000 NA
ENDBRANCH   1  18
BRANCH   9  21
ATOM     21  N   UNL     1       1.496   9.362  18.380  0.00  0.00    +0.000 N 
ATOM     22  C   UNL     1       1.358   8.374  17.362  0.00  0.00    +0.000 C 
ATOM     23  C   UNL     1       2.773   7.860  17.700  0.00  0.00    +0.000 C 
ATOM     24  C   UNL     1       2.898   9.142  18.552  0.00  0.00    +0.000 C 
BRANCH  23  25
ATOM     25  C   UNL     1       2.876   6.544  18.510  0.00  0.00    +0.000 A 
ATOM     26  N   UNL     1       2.167   6.361  19.609  0.00  0.00    +0.000 NA
ATOM     27  C   UNL     1       2.484   5.098  20.064  0.00  0.00    +0.000 A 
ATOM     28  C   UNL     1       1.958   4.346  21.130  0.00  0.00    +0.000 A 
ATOM     29  C   UNL     1       2.467   3.056  21.367  0.00  0.00    +0.000 A 
ATOM     30  C   UNL     1       3.521   2.552  20.608  0.00  0.00    +0.000 A 
ATOM     31  C   UNL     1       4.062   3.290  19.556  0.00  0.00    +0.000 A 
ATOM     32  C   UNL     1       3.478   4.533  19.283  0.00  0.00    +0.000 A 
ATOM     33  N   UNL     1       3.619   5.414  18.238  0.00  0.00    +0.000 N 
ATOM     34  C   UNL     1       4.286   5.071  17.010  0.00  0.00    +0.000 C 
ENDBRANCH  23  25
ENDBRANCH   9  21
TORSDOF 3
ENDMDL
MODEL 4
REMARK VINA RESULT:      -7.8      6.321      9.520
REMARK  Name = 
REMARK  7 active torsions:
REMARK  status: ('A' for Active; 'I' for Inactive)
REMARK    1  A    between atoms: C_1  and  C_2
REMARK    2  A    between atoms: C_5  and  C_6
REMARK    3  A    between atoms: C_8  and  C_9
REMARK    4  A    between atoms: C_14  and  N_15
REMARK    5  A    between atoms: C_17  and  C_18
REMARK    6  A    between atoms: N_26  and  C_27
REMARK    7  A    between atoms: C_30  and  C_31
REMARK                            x       y       z     vdW  Elec       q    Type
REMARK                         _______ _______ _______ _____ _____    ______ ____
ROOT
ATOM      1  C   UNL     1       3.306  16.812  17.937  0.00  0.00    +0.000 A 
ATOM      2  N   UNL     1       2.876  17.703  17.052  0.00  0.00    +0.000 NA
ATOM      3  C   UNL     1       1.514  17.613  17.128  0.00  0.00    +0.000 A 
ATOM      4  C   UNL     1       0.614  18.430  16.293  0.00  0.00    +0.000 C 
ATOM      5  N   UNL     1       1.055  16.730  18.017  0.00  0.00    +0.000 NA
ATOM      6  N   UNL     1       2.207  16.293  18.616  0.00  0.00    +0.000 N 
ATOM      7  C   UNL     1       2.138  15.562  19.839  0.00  0.00    +0.000 A 
ATOM      8  C   UNL     1       0.949  14.939  20.181  0.00  0.00    +0.000 A 
ATOM      9  C   UNL     1       0.864  14.368  21.434  0.00  0.00    +0.000 A 
ATOM     10  N   UNL     1       1.922  14.378  22.270  0.00  0.00    +0.000 NA
ATOM     11  C   UNL     1       3.059  14.956  21.841  0.00  0.00    +0.000 A 
ATOM     12  C   UNL     1       4.276  14.877  22.712  0.00  0.00    +0.000 C 
ATOM     13  N   UNL     1       3.199  15.588  20.671  0.00  0.00    +0.000 NA
ENDROOT
BRANCH   1  18
ATOM     14  C   UNL     1       8.743  15.366  18.498  0.00  0.00    +0.000 C 
ATOM     15  C   UNL     1       7.285  15.692  18.436  0.00  0.00    +0.000 A 
ATOM     16  C   UNL     1       6.820  16.943  18.821  0.00  0.00    +0.000 A 
ATOM     17  N   UNL     1       5.520  17.318  18.703  0.00  0.00    +0.000 NA
ATOM     18  C   UNL     1       4.695  16.412  18.127  0.00  0.00    +0.000 A 
ATOM     19  C   UNL     1       5.144  15.146  17.785  0.00  0.00    +0.000 A 
ATOM     20  N   UNL     1       6.448  14.759  17.922  0.00  0.00    +0.000 NA
ENDBRANCH   1  18
BRANCH   9  21
ATOM     21  N   UNL     1      -0.345  13.817  21.897  0.00  0.00    +0.000 N 
ATOM     22  C   UNL     1      -0.743  12.495  22.252  0.00  0.00    +0.000 C 
ATOM     23  C   UNL     1      -2.135  12.775  21.646  0.00  0.00    +0.000 C 
ATOM     24  C   UNL     1      -1.673  14.248  21.588  0.00  0.00    +0.000 C 
BRANCH  23  25
ATOM     25  C   UNL     1      -2.447  12.150  20.264  0.00  0.00    +0.000 A 
ATOM     26  N   UNL     1      -3.618  12.331  19.681  0.00  0.00    +0.000 NA
ATOM     27  C   UNL     1      -3.556  11.659  18.478  0.00  0.00    +0.000 A 
ATOM     28  C   UNL     1      -4.472  11.595  17.412  0.00  0.00    +0.000 A 
ATOM     29  C   UNL     1      -4.141  10.830  16.279  0.00  0.00    +0.000 A 
ATOM     30  C   UNL     1      -2.962  10.091  16.233  0.00  0.00    +0.000 A 
ATOM     31  C   UNL     1      -2.049  10.133  17.287  0.00  0.00    +0.000 A 
ATOM     32  C   UNL     1      -2.359  10.972  18.364  0.00  0.00    +0.000 A 
ATOM     33  N   UNL     1      -1.628  11.398  19.447  0.00  0.00    +0.000 N 
ATOM     34  C   UNL     1      -0.204  11.220  19.549  0.00  0.00    +0.000 C 
ENDBRANCH  23  25
ENDBRANCH   9  21
TORSDOF 3
ENDMDL
MODEL 5
REMARK VINA RESULT:      -7.7      2.452      9.990
REMARK  Name = 
REMARK  7 active torsions:
REMARK  status: ('A' for Active; 'I' for Inactive)
REMARK    1  A    between atoms: C_1  and  C_2
REMARK    2  A    between atoms: C_5  and  C_6
REMARK    3  A    between atoms: C_8  and  C_9
REMARK    4  A    between atoms: C_14  and  N_15
REMARK    5  A    between atoms: C_17  and  C_18
REMARK    6  A    between atoms: N_26  and  C_27
REMARK    7  A    between atoms: C_30  and  C_31
REMARK                            x       y       z     vdW  Elec       q    Type
REMARK                         _______ _______ _______ _____ _____    ______ ____
ROOT
ATOM      1  C   UNL     1      -0.003  16.257  21.687  0.00  0.00    +0.000 A 
ATOM      2  N   UNL     1      -0.237  16.944  22.799  0.00  0.00    +0.000 NA
ATOM      3  C   UNL     1      -0.517  15.981  23.729  0.00  0.00    +0.000 A 
ATOM      4  C   UNL     1      -0.854  16.299  25.128  0.00  0.00    +0.000 C 
ATOM      5  N   UNL     1      -0.460  14.726  23.276  0.00  0.00    +0.000 NA
ATOM      6  N   UNL     1      -0.022  14.899  21.990  0.00  0.00    +0.000 N 
ATOM      7  C   UNL     1       0.465  13.781  21.250  0.00  0.00    +0.000 A 
ATOM      8  C   UNL     1       0.104  12.504  21.651  0.00  0.00    +0.000 A 
ATOM      9  C   UNL     1       0.708  11.440  21.012  0.00  0.00    +0.000 A 
ATOM     10  N   UNL     1       1.578  11.645  20.003  0.00  0.00    +0.000 NA
ATOM     11  C   UNL     1       1.833  12.914  19.638  0.00  0.00    +0.000 A 
ATOM     12  C   UNL     1       2.710  13.155  18.447  0.00  0.00    +0.000 C 
ATOM     13  N   UNL     1       1.342  13.997  20.250  0.00  0.00    +0.000 NA
ENDROOT
BRANCH   1  18
ATOM     14  C   UNL     1       0.817  18.313  16.485  0.00  0.00    +0.000 C 
ATOM     15  C   UNL     1       0.570  17.866  17.890  0.00  0.00    +0.000 A 
ATOM     16  C   UNL     1      -0.562  17.128  18.212  0.00  0.00    +0.000 A 
ATOM     17  N   UNL     1      -0.789  16.625  19.453  0.00  0.00    +0.000 NA
ATOM     18  C   UNL     1       0.192  16.835  20.363  0.00  0.00    +0.000 A 
ATOM     19  C   UNL     1       1.300  17.611  20.060  0.00  0.00    +0.000 A 
ATOM     20  N   UNL     1       1.520  18.136  18.818  0.00  0.00    +0.000 NA
ENDBRANCH   1  18
BRANCH   9  21
ATOM     21  N   UNL     1       0.479  10.118  21.438  0.00  0.00    +0.000 N 
ATOM     22  C   UNL     1       1.263   9.179  22.169  0.00  0.00    +0.000 C 
ATOM     23  C   UNL     1       0.693   8.049  21.286  0.00  0.00    +0.000 C 
ATOM     24  C   UNL     1      -0.304   9.117  20.784  0.00  0.00    +0.000 C 
BRANCH  23  25
ATOM     25  C   UNL     1       1.617   7.472  20.186  0.00  0.00    +0.000 A 
ATOM     26  N   UNL     1       2.120   8.247  19.241  0.00  0.00    +0.000 NA
ATOM     27  C   UNL     1       2.896   7.429  18.447  0.00  0.00    +0.000 A 
ATOM     28  C   UNL     1       3.740   7.731  17.363  0.00  0.00    +0.000 A 
ATOM     29  C   UNL     1       4.435   6.684  16.731  0.00  0.00    +0.000 A 
ATOM     30  C   UNL     1       4.242   5.360  17.120  0.00  0.00    +0.000 A 
ATOM     31  C   UNL     1       3.400   5.042  18.184  0.00  0.00    +0.000 A 
ATOM     32  C   UNL     1       2.790   6.109  18.855  0.00  0.00    +0.000 A 
ATOM     33  N   UNL     1       2.077   6.181  20.027  0.00  0.00    +0.000 N 
ATOM     34  C   UNL     1       2.025   5.104  20.979  0.00  0.00    +0.000 C 
ENDBRANCH  23  25
ENDBRANCH   9  21
TORSDOF 3
ENDMDL
MODEL 6
REMARK VINA RESULT:      -7.7      0.962      1.209
REMARK  Name = 
REMARK  7 active torsions:
REMARK  status: ('A' for Active; 'I' for Inactive)
REMARK    1  A    between atoms: C_1  and  C_2
REMARK    2  A    between atoms: C_5  and  C_6
REMARK    3  A    between atoms: C_8  and  C_9
REMARK    4  A    between atoms: C_14  and  N_15
REMARK    5  A    between atoms: C_17  and  C_18
REMARK    6  A    between atoms: N_26  and  C_27
REMARK    7  A    between atoms: C_30  and  C_31
REMARK                            x       y       z     vdW  Elec       q    Type
REMARK                         _______ _______ _______ _____ _____    ______ ____
ROOT
ATOM      1  C   UNL     1       3.313   4.130  19.695  0.00  0.00    +0.000 A 
ATOM      2  N   UNL     1       2.982   2.934  20.169  0.00  0.00    +0.000 NA
ATOM      3  C   UNL     1       2.071   3.209  21.151  0.00  0.00    +0.000 A 
ATOM      4  C   UNL     1       1.436   2.156  21.965  0.00  0.00    +0.000 C 
ATOM      5  N   UNL     1       1.795   4.504  21.318  0.00  0.00    +0.000 NA
ATOM      6  N   UNL     1       2.512   5.089  20.309  0.00  0.00    +0.000 N 
ATOM      7  C   UNL     1       2.251   6.443  19.944  0.00  0.00    +0.000 A 
ATOM      8  C   UNL     1       1.613   7.270  20.855  0.00  0.00    +0.000 A 
ATOM      9  C   UNL     1       1.239   8.527  20.424  0.00  0.00    +0.000 A 
ATOM     10  N   UNL     1       1.532   8.943  19.175  0.00  0.00    +0.000 NA
ATOM     11  C   UNL     1       2.203   8.099  18.370  0.00  0.00    +0.000 A 
ATOM     12  C   UNL     1       2.633   8.587  17.020  0.00  0.00    +0.000 C 
ATOM     13  N   UNL     1       2.539   6.845  18.690  0.00  0.00    +0.000 NA
ENDROOT
BRANCH   1  18
ATOM     14  C   UNL     1       7.478   4.942  15.959  0.00  0.00    +0.000 C 
ATOM     15  C   UNL     1       6.358   4.831  16.944  0.00  0.00    +0.000 A 
ATOM     16  C   UNL     1       5.119   4.335  16.558  0.00  0.00    +0.000 A 
ATOM     17  N   UNL     1       4.099   4.134  17.431  0.00  0.00    +0.000 NA
ATOM     18  C   UNL     1       4.375   4.391  18.732  0.00  0.00    +0.000 A 
ATOM     19  C   UNL     1       5.593   4.930  19.114  0.00  0.00    +0.000 A 
ATOM     20  N   UNL     1       6.615   5.153  18.235  0.00  0.00    +0.000 NA
ENDBRANCH   1  18
BRANCH   9  21
ATOM     21  N   UNL     1       0.488   9.381  21.252  0.00  0.00    +0.000 N 
ATOM     22  C   UNL     1      -0.691  10.153  21.045  0.00  0.00    +0.000 C 
ATOM     23  C   UNL     1      -0.101  11.257  21.947  0.00  0.00    +0.000 C 
ATOM     24  C   UNL     1       0.970  10.207  22.314  0.00  0.00    +0.000 C 
BRANCH  23  25
ATOM     25  C   UNL     1       0.458  12.521  21.250  0.00  0.00    +0.000 A 
ATOM     26  N   UNL     1       1.103  12.438  20.100  0.00  0.00    +0.000 NA
ATOM     27  C   UNL     1       1.447  13.730  19.758  0.00  0.00    +0.000 A 
ATOM     28  C   UNL     1       2.052  14.244  18.597  0.00  0.00    +0.000 A 
ATOM     29  C   UNL     1       2.280  15.630  18.508  0.00  0.00    +0.000 A 
ATOM     30  C   UNL     1       1.979  16.475  19.573  0.00  0.00    +0.000 A 
ATOM     31  C   UNL     1       1.391  15.979  20.736  0.00  0.00    +0.000 A 
ATOM     32  C   UNL     1       1.091  14.612  20.765  0.00  0.00    +0.000 A 
ATOM     33  N   UNL     1       0.359  13.842  21.637  0.00  0.00    +0.000 N 
ATOM     34  C   UNL     1      -0.500  14.403  22.645  0.00  0.00    +0.000 C 
ENDBRANCH  23  25
ENDBRANCH   9  21
TORSDOF 3
ENDMDL
MODEL 7
REMARK VINA RESULT:      -7.5      0.817      1.057
REMARK  Name = 
REMARK  7 active torsions:
REMARK  status: ('A' for Active; 'I' for Inactive)
REMARK    1  A    between atoms: C_1  and  C_2
REMARK    2  A    between atoms: C_5  and  C_6
REMARK    3  A    between atoms: C_8  and  C_9
REMARK    4  A    between atoms: C_14  and  N_15
REMARK    5  A    between atoms: C_17  and  C_18
REMARK    6  A    between atoms: N_26  and  C_27
REMARK    7  A    between atoms: C_30  and  C_31
REMARK                            x       y       z     vdW  Elec       q    Type
REMARK                         _______ _______ _______ _____ _____    ______ ____
ROOT
ATOM      1  C   UNL     1       3.329   4.157  19.679  0.00  0.00    +0.000 A 
ATOM      2  N   UNL     1       3.015   2.951  20.137  0.00  0.00    +0.000 NA
ATOM      3  C   UNL     1       2.107   3.201  21.128  0.00  0.00    +0.000 A 
ATOM      4  C   UNL     1       1.490   2.129  21.931  0.00  0.00    +0.000 C 
ATOM      5  N   UNL     1       1.818   4.490  21.317  0.00  0.00    +0.000 NA
ATOM      6  N   UNL     1       2.521   5.098  20.311  0.00  0.00    +0.000 N 
ATOM      7  C   UNL     1       2.242   6.454  19.969  0.00  0.00    +0.000 A 
ATOM      8  C   UNL     1       1.601   7.260  20.895  0.00  0.00    +0.000 A 
ATOM      9  C   UNL     1       1.209   8.518  20.485  0.00  0.00    +0.000 A 
ATOM     10  N   UNL     1       1.490   8.956  19.241  0.00  0.00    +0.000 NA
ATOM     11  C   UNL     1       2.165   8.132  18.419  0.00  0.00    +0.000 A 
ATOM     12  C   UNL     1       2.582   8.644  17.074  0.00  0.00    +0.000 C 
ATOM     13  N   UNL     1       2.517   6.878  18.719  0.00  0.00    +0.000 NA
ENDROOT
BRANCH   1  18
ATOM     14  C   UNL     1       7.457   5.071  15.925  0.00  0.00    +0.000 C 
ATOM     15  C   UNL     1       6.348   4.933  16.919  0.00  0.00    +0.000 A 
ATOM     16  C   UNL     1       5.101   4.459  16.530  0.00  0.00    +0.000 A 
ATOM     17  N   UNL     1       4.089   4.235  17.407  0.00  0.00    +0.000 NA
ATOM     18  C   UNL     1       4.382   4.445  18.713  0.00  0.00    +0.000 A 
ATOM     19  C   UNL     1       5.608   4.962  19.100  0.00  0.00    +0.000 A 
ATOM     20  N   UNL     1       6.622   5.209  18.217  0.00  0.00    +0.000 NA
ENDBRANCH   1  18
BRANCH   9  21
ATOM     21  N   UNL     1       0.454   9.352  21.330  0.00  0.00    +0.000 N 
ATOM     22  C   UNL     1      -0.792  10.027  21.177  0.00  0.00    +0.000 C 
ATOM     23  C   UNL     1      -0.226  11.209  21.992  0.00  0.00    +0.000 C 
ATOM     24  C   UNL     1       0.943  10.257  22.323  0.00  0.00    +0.000 C 
BRANCH  23  25
ATOM     25  C   UNL     1       0.188  12.479  21.208  0.00  0.00    +0.000 A 
ATOM     26  N   UNL     1       0.993  13.380  21.742  0.00  0.00    +0.000 NA
ATOM     27  C   UNL     1       1.163  14.358  20.785  0.00  0.00    +0.000 A 
ATOM     28  C   UNL     1       1.991  15.496  20.770  0.00  0.00    +0.000 A 
ATOM     29  C   UNL     1       1.974  16.331  19.638  0.00  0.00    +0.000 A 
ATOM     30  C   UNL     1       1.107  16.082  18.577  0.00  0.00    +0.000 A 
ATOM     31  C   UNL     1       0.272  14.966  18.582  0.00  0.00    +0.000 A 
ATOM     32  C   UNL     1       0.371  14.101  19.678  0.00  0.00    +0.000 A 
ATOM     33  N   UNL     1      -0.138  12.848  19.919  0.00  0.00    +0.000 N 
ATOM     34  C   UNL     1      -0.731  12.033  18.892  0.00  0.00    +0.000 C 
ENDBRANCH  23  25
ENDBRANCH   9  21
TORSDOF 3
ENDMDL
MODEL 8
REMARK VINA RESULT:      -7.5      4.447      9.171
REMARK  Name = 
REMARK  7 active torsions:
REMARK  status: ('A' for Active; 'I' for Inactive)
REMARK    1  A    between atoms: C_1  and  C_2
REMARK    2  A    between atoms: C_5  and  C_6
REMARK    3  A    between atoms: C_8  and  C_9
REMARK    4  A    between atoms: C_14  and  N_15
REMARK    5  A    between atoms: C_17  and  C_18
REMARK    6  A    between atoms: N_26  and  C_27
REMARK    7  A    between atoms: C_30  and  C_31
REMARK                            x       y       z     vdW  Elec       q    Type
REMARK                         _______ _______ _______ _____ _____    ______ ____
ROOT
ATOM      1  C   UNL     1       0.354  11.158  19.755  0.00  0.00    +0.000 A 
ATOM      2  N   UNL     1       0.455   9.900  19.340  0.00  0.00    +0.000 NA
ATOM      3  C   UNL     1       1.552   9.910  18.524  0.00  0.00    +0.000 A 
ATOM      4  C   UNL     1       2.033   8.705  17.823  0.00  0.00    +0.000 C 
ATOM      5  N   UNL     1       2.158  11.093  18.407  0.00  0.00    +0.000 NA
ATOM      6  N   UNL     1       1.453  11.872  19.285  0.00  0.00    +0.000 N 
ATOM      7  C   UNL     1       1.974  13.136  19.690  0.00  0.00    +0.000 A 
ATOM      8  C   UNL     1       2.933  13.749  18.900  0.00  0.00    +0.000 A 
ATOM      9  C   UNL     1       3.528  14.894  19.390  0.00  0.00    +0.000 A 
ATOM     10  N   UNL     1       3.148  15.416  20.573  0.00  0.00    +0.000 NA
ATOM     11  C   UNL     1       2.171  14.790  21.255  0.00  0.00    +0.000 A 
ATOM     12  C   UNL     1       1.661  15.419  22.516  0.00  0.00    +0.000 C 
ATOM     13  N   UNL     1       1.595  13.643  20.881  0.00  0.00    +0.000 NA
ENDROOT
BRANCH   1  18
ATOM     14  C   UNL     1      -4.032  13.092  22.753  0.00  0.00    +0.000 C 
ATOM     15  C   UNL     1      -2.830  12.677  21.966  0.00  0.00    +0.000 A 
ATOM     16  C   UNL     1      -1.824  11.919  22.552  0.00  0.00    +0.000 A 
ATOM     17  N   UNL     1      -0.757  11.444  21.859  0.00  0.00    +0.000 NA
ATOM     18  C   UNL     1      -0.753  11.704  20.531  0.00  0.00    +0.000 A 
ATOM     19  C   UNL     1      -1.729  12.500  19.951  0.00  0.00    +0.000 A 
ATOM     20  N   UNL     1      -2.793  12.996  20.650  0.00  0.00    +0.000 NA
ENDBRANCH   1  18
BRANCH   9  21
ATOM     21  N   UNL     1       4.588  15.510  18.699  0.00  0.00    +0.000 N 
ATOM     22  C   UNL     1       5.275  15.201  17.489  0.00  0.00    +0.000 C 
ATOM     23  C   UNL     1       6.587  15.694  18.135  0.00  0.00    +0.000 C 
ATOM     24  C   UNL     1       5.680  16.245  19.257  0.00  0.00    +0.000 C 
BRANCH  23  25
ATOM     25  C   UNL     1       7.597  14.617  18.603  0.00  0.00    +0.000 A 
ATOM     26  N   UNL     1       7.910  13.593  17.829  0.00  0.00    +0.000 NA
ATOM     27  C   UNL     1       8.830  12.847  18.535  0.00  0.00    +0.000 A 
ATOM     28  C   UNL     1       9.575  11.713  18.162  0.00  0.00    +0.000 A 
ATOM     29  C   UNL     1      10.467  11.151  19.094  0.00  0.00    +0.000 A 
ATOM     30  C   UNL     1      10.566  11.659  20.387  0.00  0.00    +0.000 A 
ATOM     31  C   UNL     1       9.825  12.774  20.777  0.00  0.00    +0.000 A 
ATOM     32  C   UNL     1       9.012  13.370  19.805  0.00  0.00    +0.000 A 
ATOM     33  N   UNL     1       8.317  14.555  19.778  0.00  0.00    +0.000 N 
ATOM     34  C   UNL     1       8.508  15.597  20.751  0.00  0.00    +0.000 C 
ENDBRANCH  23  25
ENDBRANCH   9  21
TORSDOF 3
ENDMDL
MODEL 9
REMARK VINA RESULT:      -7.4      1.730      1.754
REMARK  Name = 
REMARK  7 active torsions:
REMARK  status: ('A' for Active; 'I' for Inactive)
REMARK    1  A    between atoms: C_1  and  C_2
REMARK    2  A    between atoms: C_5  and  C_6
REMARK    3  A    between atoms: C_8  and  C_9
REMARK    4  A    between atoms: C_14  and  N_15
REMARK    5  A    between atoms: C_17  and  C_18
REMARK    6  A    between atoms: N_26  and  C_27
REMARK    7  A    between atoms: C_30  and  C_31
REMARK                            x       y       z     vdW  Elec       q    Type
REMARK                         _______ _______ _______ _____ _____    ______ ____
ROOT
ATOM      1  C   UNL     1       3.281   4.934  19.738  0.00  0.00    +0.000 A 
ATOM      2  N   UNL     1       3.033   3.663  20.032  0.00  0.00    +0.000 NA
ATOM      3  C   UNL     1       1.991   3.726  20.916  0.00  0.00    +0.000 A 
ATOM      4  C   UNL     1       1.389   2.526  21.524  0.00  0.00    +0.000 C 
ATOM      5  N   UNL     1       1.557   4.959  21.189  0.00  0.00    +0.000 NA
ATOM      6  N   UNL     1       2.315   5.729  20.348  0.00  0.00    +0.000 N 
ATOM      7  C   UNL     1       1.949   7.086  20.105  0.00  0.00    +0.000 A 
ATOM      8  C   UNL     1       1.124   7.730  21.013  0.00  0.00    +0.000 A 
ATOM      9  C   UNL     1       0.664   8.987  20.679  0.00  0.00    +0.000 A 
ATOM     10  N   UNL     1       1.050   9.579  19.531  0.00  0.00    +0.000 NA
ATOM     11  C   UNL     1       1.897   8.909  18.728  0.00  0.00    +0.000 A 
ATOM     12  C   UNL     1       2.421   9.598  17.505  0.00  0.00    +0.000 C 
ATOM     13  N   UNL     1       2.331   7.664  18.948  0.00  0.00    +0.000 NA
ENDROOT
BRANCH   1  18
ATOM     14  C   UNL     1       7.648   6.973  16.783  0.00  0.00    +0.000 C 
ATOM     15  C   UNL     1       6.502   6.345  17.509  0.00  0.00    +0.000 A 
ATOM     16  C   UNL     1       6.659   5.861  18.802  0.00  0.00    +0.000 A 
ATOM     17  N   UNL     1       5.631   5.361  19.535  0.00  0.00    +0.000 NA
ATOM     18  C   UNL     1       4.410   5.413  18.950  0.00  0.00    +0.000 A 
ATOM     19  C   UNL     1       4.257   5.850  17.644  0.00  0.00    +0.000 A 
ATOM     20  N   UNL     1       5.293   6.335  16.897  0.00  0.00    +0.000 NA
ENDBRANCH   1  18
BRANCH   9  21
ATOM     21  N   UNL     1      -0.265   9.658  21.495  0.00  0.00    +0.000 N 
ATOM     22  C   UNL     1      -1.368  10.516  21.216  0.00  0.00    +0.000 C 
ATOM     23  C   UNL     1      -1.014  11.343  22.471  0.00  0.00    +0.000 C 
ATOM     24  C   UNL     1      -0.052  10.182  22.807  0.00  0.00    +0.000 C 
BRANCH  23  25
ATOM     25  C   UNL     1      -0.315  12.706  22.248  0.00  0.00    +0.000 A 
ATOM     26  N   UNL     1       0.786  12.800  21.524  0.00  0.00    +0.000 NA
ATOM     27  C   UNL     1       1.130  14.135  21.519  0.00  0.00    +0.000 A 
ATOM     28  C   UNL     1       2.147  14.821  20.829  0.00  0.00    +0.000 A 
ATOM     29  C   UNL     1       2.265  16.212  21.003  0.00  0.00    +0.000 A 
ATOM     30  C   UNL     1       1.440  16.895  21.893  0.00  0.00    +0.000 A 
ATOM     31  C   UNL     1       0.435  16.229  22.594  0.00  0.00    +0.000 A 
ATOM     32  C   UNL     1       0.279  14.861  22.336  0.00  0.00    +0.000 A 
ATOM     33  N   UNL     1      -0.697  13.958  22.685  0.00  0.00    +0.000 N 
ATOM     34  C   UNL     1      -1.966  14.351  23.236  0.00  0.00    +0.000 C 
ENDBRANCH  23  25
ENDBRANCH   9  21
TORSDOF 3
ENDMDL
