MODEL 1
REMARK VINA RESULT:      -7.1      0.000      0.000
REMARK  Name = 
REMARK  2 active torsions:
REMARK  status: ('A' for Active; 'I' for Inactive)
REMARK    1  A    between atoms: C_1  and  O_2
REMARK    2  A    between atoms: O_2  and  C_3
REMARK                            x       y       z     vdW  Elec       q    Type
REMARK                         _______ _______ _______ _____ _____    ______ ____
ROOT
ATOM      1  C   UNL     1       5.458   4.458  15.680  0.00  0.00    +0.000 A 
ATOM      2  C   UNL     1       5.532   5.867  15.728  0.00  0.00    +0.000 A 
ATOM      3  C   UNL     1       4.743   6.586  16.628  0.00  0.00    +0.000 A 
ATOM      4  C   UNL     1       3.882   5.905  17.483  0.00  0.00    +0.000 A 
ATOM      5  C   UNL     1       3.786   4.513  17.453  0.00  0.00    +0.000 A 
ATOM      6  C   UNL     1       4.575   3.784  16.544  0.00  0.00    +0.000 A 
ATOM      7  C   UNL     1       2.837   3.926  18.429  0.00  0.00    +0.000 A 
ATOM      8  C   UNL     1       2.574   2.554  18.586  0.00  0.00    +0.000 A 
ATOM      9  C   UNL     1       1.658   2.130  19.559  0.00  0.00    +0.000 A 
ATOM     10  C   UNL     1       1.006   3.066  20.374  0.00  0.00    +0.000 A 
ATOM     11  C   UNL     1       1.264   4.432  20.216  0.00  0.00    +0.000 A 
ATOM     12  C   UNL     1       2.175   4.848  19.245  0.00  0.00    +0.000 A 
ATOM     13  I   UNL     1       2.662   6.851  18.895  0.00  0.00    +0.000 I 
ENDROOT
BRANCH   1  15
ATOM     14  C   UNL     1       6.195   3.818  13.450  0.00  0.00    +0.000 C 
ATOM     15  O   UNL     1       6.220   3.722  14.827  0.00  0.00    +0.000 OA
ENDBRANCH   1  15
TORSDOF 1
ENDMDL
MODEL 2
REMARK VINA RESULT:      -6.7      2.047      3.010
REMARK  Name = 
REMARK  2 active torsions:
REMARK  status: ('A' for Active; 'I' for Inactive)
REMARK    1  A    between atoms: C_1  and  O_2
REMARK    2  A    between atoms: O_2  and  C_3
REMARK                            x       y       z     vdW  Elec       q    Type
REMARK                         _______ _______ _______ _____ _____    ______ ____
ROOT
ATOM      1  C   UNL     1       6.231   6.126  16.744  0.00  0.00    +0.000 A 
ATOM      2  C   UNL     1       6.395   4.960  15.963  0.00  0.00    +0.000 A 
ATOM      3  C   UNL     1       5.551   3.864  16.143  0.00  0.00    +0.000 A 
ATOM      4  C   UNL     1       4.539   3.926  17.098  0.00  0.00    +0.000 A 
ATOM      5  C   UNL     1       4.358   5.064  17.886  0.00  0.00    +0.000 A 
ATOM      6  C   UNL     1       5.211   6.169  17.711  0.00  0.00    +0.000 A 
ATOM      7  C   UNL     1       3.234   4.989  18.850  0.00  0.00    +0.000 A 
ATOM      8  C   UNL     1       2.859   6.008  19.743  0.00  0.00    +0.000 A 
ATOM      9  C   UNL     1       1.764   5.812  20.598  0.00  0.00    +0.000 A 
ATOM     10  C   UNL     1       1.046   4.609  20.564  0.00  0.00    +0.000 A 
ATOM     11  C   UNL     1       1.421   3.593  19.679  0.00  0.00    +0.000 A 
ATOM     12  C   UNL     1       2.511   3.793  18.832  0.00  0.00    +0.000 A 
ATOM     13  I   UNL     1       3.188   2.370  17.457  0.00  0.00    +0.000 I 
ENDROOT
BRANCH   1  15
ATOM     14  C   UNL     1       7.682   7.880  17.605  0.00  0.00    +0.000 C 
ATOM     15  O   UNL     1       7.026   7.219  16.587  0.00  0.00    +0.000 OA
ENDBRANCH   1  15
TORSDOF 1
ENDMDL
MODEL 3
REMARK VINA RESULT:      -6.4      2.903      5.824
REMARK  Name = 
REMARK  2 active torsions:
REMARK  status: ('A' for Active; 'I' for Inactive)
REMARK    1  A    between atoms: C_1  and  O_2
REMARK    2  A    between atoms: O_2  and  C_3
REMARK                            x       y       z     vdW  Elec       q    Type
REMARK                         _______ _______ _______ _____ _____    ______ ____
ROOT
ATOM      1  C   UNL     1       1.747   6.308  20.427  0.00  0.00    +0.000 A 
ATOM      2  C   UNL     1       1.319   5.010  20.784  0.00  0.00    +0.000 A 
ATOM      3  C   UNL     1       1.749   3.899  20.058  0.00  0.00    +0.000 A 
ATOM      4  C   UNL     1       2.608   4.075  18.977  0.00  0.00    +0.000 A 
ATOM      5  C   UNL     1       3.043   5.347  18.599  0.00  0.00    +0.000 A 
ATOM      6  C   UNL     1       2.607   6.471  19.325  0.00  0.00    +0.000 A 
ATOM      7  C   UNL     1       3.963   5.378  17.438  0.00  0.00    +0.000 A 
ATOM      8  C   UNL     1       4.531   6.538  16.880  0.00  0.00    +0.000 A 
ATOM      9  C   UNL     1       5.399   6.426  15.785  0.00  0.00    +0.000 A 
ATOM     10  C   UNL     1       5.703   5.168  15.247  0.00  0.00    +0.000 A 
ATOM     11  C   UNL     1       5.136   4.015  15.798  0.00  0.00    +0.000 A 
ATOM     12  C   UNL     1       4.271   4.132  16.887  0.00  0.00    +0.000 A 
ATOM     13  I   UNL     1       3.350   2.501  17.817  0.00  0.00    +0.000 I 
ENDROOT
BRANCH   1  15
ATOM     14  C   UNL     1       1.177   8.669  20.579  0.00  0.00    +0.000 C 
ATOM     15  O   UNL     1       1.359   7.413  21.119  0.00  0.00    +0.000 OA
ENDBRANCH   1  15
TORSDOF 1
ENDMDL
MODEL 4
REMARK VINA RESULT:      -6.3      1.669      2.070
REMARK  Name = 
REMARK  2 active torsions:
REMARK  status: ('A' for Active; 'I' for Inactive)
REMARK    1  A    between atoms: C_1  and  O_2
REMARK    2  A    between atoms: O_2  and  C_3
REMARK                            x       y       z     vdW  Elec       q    Type
REMARK                         _______ _______ _______ _____ _____    ______ ____
ROOT
ATOM      1  C   UNL     1       5.957   4.076  14.305  0.00  0.00    +0.000 A 
ATOM      2  C   UNL     1       7.135   4.644  14.838  0.00  0.00    +0.000 A 
ATOM      3  C   UNL     1       7.190   5.030  16.178  0.00  0.00    +0.000 A 
ATOM      4  C   UNL     1       6.076   4.850  16.992  0.00  0.00    +0.000 A 
ATOM      5  C   UNL     1       4.897   4.295  16.490  0.00  0.00    +0.000 A 
ATOM      6  C   UNL     1       4.835   3.909  15.138  0.00  0.00    +0.000 A 
ATOM      7  C   UNL     1       3.799   4.153  17.476  0.00  0.00    +0.000 A 
ATOM      8  C   UNL     1       2.526   3.621  17.205  0.00  0.00    +0.000 A 
ATOM      9  C   UNL     1       1.579   3.532  18.235  0.00  0.00    +0.000 A 
ATOM     10  C   UNL     1       1.896   3.969  19.529  0.00  0.00    +0.000 A 
ATOM     11  C   UNL     1       3.160   4.501  19.798  0.00  0.00    +0.000 A 
ATOM     12  C   UNL     1       4.098   4.590  18.769  0.00  0.00    +0.000 A 
ATOM     13  I   UNL     1       6.027   5.360  19.020  0.00  0.00    +0.000 I 
ENDROOT
BRANCH   1  15
ATOM     14  C   UNL     1       6.891   3.740  12.083  0.00  0.00    +0.000 C 
ATOM     15  O   UNL     1       5.869   3.675  13.009  0.00  0.00    +0.000 OA
ENDBRANCH   1  15
TORSDOF 1
ENDMDL
MODEL 5
REMARK VINA RESULT:      -6.1      2.932      5.551
REMARK  Name = 
REMARK  2 active torsions:
REMARK  status: ('A' for Active; 'I' for Inactive)
REMARK    1  A    between atoms: C_1  and  O_2
REMARK    2  A    between atoms: O_2  and  C_3
REMARK                            x       y       z     vdW  Elec       q    Type
REMARK                         _______ _______ _______ _____ _____    ______ ____
ROOT
ATOM      1  C   UNL     1       2.115   7.691  19.280  0.00  0.00    +0.000 A 
ATOM      2  C   UNL     1       1.784   6.733  20.264  0.00  0.00    +0.000 A 
ATOM      3  C   UNL     1       2.295   5.437  20.189  0.00  0.00    +0.000 A 
ATOM      4  C   UNL     1       3.139   5.091  19.137  0.00  0.00    +0.000 A 
ATOM      5  C   UNL     1       3.479   6.017  18.149  0.00  0.00    +0.000 A 
ATOM      6  C   UNL     1       2.961   7.324  18.218  0.00  0.00    +0.000 A 
ATOM      7  C   UNL     1       4.395   5.510  17.101  0.00  0.00    +0.000 A 
ATOM      8  C   UNL     1       4.876   6.256  16.009  0.00  0.00    +0.000 A 
ATOM      9  C   UNL     1       5.751   5.656  15.092  0.00  0.00    +0.000 A 
ATOM     10  C   UNL     1       6.146   4.322  15.259  0.00  0.00    +0.000 A 
ATOM     11  C   UNL     1       5.666   3.578  16.340  0.00  0.00    +0.000 A 
ATOM     12  C   UNL     1       4.794   4.179  17.249  0.00  0.00    +0.000 A 
ATOM     13  I   UNL     1       3.995   3.196  18.914  0.00  0.00    +0.000 I 
ENDROOT
BRANCH   1  15
ATOM     14  C   UNL     1       1.322   9.739  18.231  0.00  0.00    +0.000 C 
ATOM     15  O   UNL     1       1.647   8.967  19.327  0.00  0.00    +0.000 OA
ENDBRANCH   1  15
TORSDOF 1
ENDMDL
MODEL 6
REMARK VINA RESULT:      -6.0      2.330      5.448
REMARK  Name = 
REMARK  2 active torsions:
REMARK  status: ('A' for Active; 'I' for Inactive)
REMARK    1  A    between atoms: C_1  and  O_2
REMARK    2  A    between atoms: O_2  and  C_3
REMARK                            x       y       z     vdW  Elec       q    Type
REMARK                         _______ _______ _______ _____ _____    ______ ____
ROOT
ATOM      1  C   UNL     1       2.409   4.050  18.494  0.00  0.00    +0.000 A 
ATOM      2  C   UNL     1       3.006   4.615  19.642  0.00  0.00    +0.000 A 
ATOM      3  C   UNL     1       4.310   5.110  19.589  0.00  0.00    +0.000 A 
ATOM      4  C   UNL     1       5.021   5.047  18.394  0.00  0.00    +0.000 A 
ATOM      5  C   UNL     1       4.456   4.490  17.246  0.00  0.00    +0.000 A 
ATOM      6  C   UNL     1       3.144   3.984  17.296  0.00  0.00    +0.000 A 
ATOM      7  C   UNL     1       5.327   4.504  16.046  0.00  0.00    +0.000 A 
ATOM      8  C   UNL     1       4.976   4.002  14.780  0.00  0.00    +0.000 A 
ATOM      9  C   UNL     1       5.893   4.088  13.722  0.00  0.00    +0.000 A 
ATOM     10  C   UNL     1       7.152   4.670  13.922  0.00  0.00    +0.000 A 
ATOM     11  C   UNL     1       7.504   5.165  15.182  0.00  0.00    +0.000 A 
ATOM     12  C   UNL     1       6.589   5.076  16.231  0.00  0.00    +0.000 A 
ATOM     13  I   UNL     1       6.970   5.772  18.166  0.00  0.00    +0.000 I 
ENDROOT
BRANCH   1  15
ATOM     14  C   UNL     1       0.760   2.316  18.941  0.00  0.00    +0.000 C 
ATOM     15  O   UNL     1       1.136   3.569  18.503  0.00  0.00    +0.000 OA
ENDBRANCH   1  15
TORSDOF 1
ENDMDL
MODEL 7
REMARK VINA RESULT:      -6.0      1.979      2.950
REMARK  Name = 
REMARK  2 active torsions:
REMARK  status: ('A' for Active; 'I' for Inactive)
REMARK    1  A    between atoms: C_1  and  O_2
REMARK    2  A    between atoms: O_2  and  C_3
REMARK                            x       y       z     vdW  Elec       q    Type
REMARK                         _______ _______ _______ _____ _____    ______ ____
ROOT
ATOM      1  C   UNL     1       6.009   3.847  13.438  0.00  0.00    +0.000 A 
ATOM      2  C   UNL     1       7.172   4.647  13.506  0.00  0.00    +0.000 A 
ATOM      3  C   UNL     1       7.479   5.350  14.672  0.00  0.00    +0.000 A 
ATOM      4  C   UNL     1       6.633   5.257  15.773  0.00  0.00    +0.000 A 
ATOM      5  C   UNL     1       5.476   4.478  15.732  0.00  0.00    +0.000 A 
ATOM      6  C   UNL     1       5.159   3.772  14.557  0.00  0.00    +0.000 A 
ATOM      7  C   UNL     1       4.681   4.465  16.983  0.00  0.00    +0.000 A 
ATOM      8  C   UNL     1       3.483   3.754  17.179  0.00  0.00    +0.000 A 
ATOM      9  C   UNL     1       2.835   3.820  18.421  0.00  0.00    +0.000 A 
ATOM     10  C   UNL     1       3.374   4.587  19.462  0.00  0.00    +0.000 A 
ATOM     11  C   UNL     1       4.562   5.298  19.267  0.00  0.00    +0.000 A 
ATOM     12  C   UNL     1       5.203   5.231  18.030  0.00  0.00    +0.000 A 
ATOM     13  I   UNL     1       6.984   6.235  17.589  0.00  0.00    +0.000 I 
ENDROOT
BRANCH   1  15
ATOM     14  C   UNL     1       4.511   3.268  11.610  0.00  0.00    +0.000 C 
ATOM     15  O   UNL     1       5.684   3.138  12.325  0.00  0.00    +0.000 OA
ENDBRANCH   1  15
TORSDOF 1
ENDMDL
MODEL 8
REMARK VINA RESULT:      -6.0      3.523      4.770
REMARK  Name = 
REMARK  2 active torsions:
REMARK  status: ('A' for Active; 'I' for Inactive)
REMARK    1  A    between atoms: C_1  and  O_2
REMARK    2  A    between atoms: O_2  and  C_3
REMARK                            x       y       z     vdW  Elec       q    Type
REMARK                         _______ _______ _______ _____ _____    ______ ____
ROOT
ATOM      1  C   UNL     1       1.861   8.556  19.051  0.00  0.00    +0.000 A 
ATOM      2  C   UNL     1       2.637   8.639  17.874  0.00  0.00    +0.000 A 
ATOM      3  C   UNL     1       3.396   7.548  17.450  0.00  0.00    +0.000 A 
ATOM      4  C   UNL     1       3.383   6.371  18.193  0.00  0.00    +0.000 A 
ATOM      5  C   UNL     1       2.629   6.263  19.363  0.00  0.00    +0.000 A 
ATOM      6  C   UNL     1       1.866   7.363  19.798  0.00  0.00    +0.000 A 
ATOM      7  C   UNL     1       2.703   4.947  20.041  0.00  0.00    +0.000 A 
ATOM      8  C   UNL     1       2.031   4.604  21.228  0.00  0.00    +0.000 A 
ATOM      9  C   UNL     1       2.179   3.314  21.759  0.00  0.00    +0.000 A 
ATOM     10  C   UNL     1       2.991   2.371  21.114  0.00  0.00    +0.000 A 
ATOM     11  C   UNL     1       3.663   2.713  19.937  0.00  0.00    +0.000 A 
ATOM     12  C   UNL     1       3.514   3.997  19.413  0.00  0.00    +0.000 A 
ATOM     13  I   UNL     1       4.452   4.653  17.662  0.00  0.00    +0.000 I 
ENDROOT
BRANCH   1  15
ATOM     14  C   UNL     1       0.088  10.200  18.771  0.00  0.00    +0.000 C 
ATOM     15  O   UNL     1       1.098   9.593  19.489  0.00  0.00    +0.000 OA
ENDBRANCH   1  15
TORSDOF 1
ENDMDL
MODEL 9
REMARK VINA RESULT:      -5.9      2.398      3.687
REMARK  Name = 
REMARK  2 active torsions:
REMARK  status: ('A' for Active; 'I' for Inactive)
REMARK    1  A    between atoms: C_1  and  O_2
REMARK    2  A    between atoms: O_2  and  C_3
REMARK                            x       y       z     vdW  Elec       q    Type
REMARK                         _______ _______ _______ _____ _____    ______ ____
ROOT
ATOM      1  C   UNL     1       5.273   5.543  16.094  0.00  0.00    +0.000 A 
ATOM      2  C   UNL     1       5.324   4.347  16.845  0.00  0.00    +0.000 A 
ATOM      3  C   UNL     1       4.588   4.220  18.023  0.00  0.00    +0.000 A 
ATOM      4  C   UNL     1       3.797   5.280  18.458  0.00  0.00    +0.000 A 
ATOM      5  C   UNL     1       3.731   6.474  17.738  0.00  0.00    +0.000 A 
ATOM      6  C   UNL     1       4.476   6.609  16.552  0.00  0.00    +0.000 A 
ATOM      7  C   UNL     1       2.839   7.508  18.314  0.00  0.00    +0.000 A 
ATOM      8  C   UNL     1       2.612   8.784  17.768  0.00  0.00    +0.000 A 
ATOM      9  C   UNL     1       1.730   9.665  18.410  0.00  0.00    +0.000 A 
ATOM     10  C   UNL     1       1.078   9.281  19.589  0.00  0.00    +0.000 A 
ATOM     11  C   UNL     1       1.307   8.014  20.136  0.00  0.00    +0.000 A 
ATOM     12  C   UNL     1       2.186   7.141  19.494  0.00  0.00    +0.000 A 
ATOM     13  I   UNL     1       2.626   5.219  20.189  0.00  0.00    +0.000 I 
ENDROOT
BRANCH   1  15
ATOM     14  C   UNL     1       6.763   4.739  14.346  0.00  0.00    +0.000 C 
ATOM     15  O   UNL     1       5.965   5.699  14.934  0.00  0.00    +0.000 OA
ENDBRANCH   1  15
TORSDOF 1
ENDMDL
