MODEL 1
REMARK VINA RESULT:      -7.7      0.000      0.000
REMARK  Name = 
REMARK  3 active torsions:
REMARK  status: ('A' for Active; 'I' for Inactive)
REMARK    1  A    between atoms: C_1  and  C_2
REMARK    2  A    between atoms: C_8  and  C_9
REMARK    3  A    between atoms: C_15  and  N_16
REMARK                            x       y       z     vdW  Elec       q    Type
REMARK                         _______ _______ _______ _____ _____    ______ ____
ROOT
ATOM      1  C   UNL     1       2.579   8.065  18.137  0.00  0.00    +0.000 C 
ATOM      2  O   UNL     1       2.417   8.747  17.127  0.00  0.00    +0.000 OA
ATOM      3  N   UNL     1       3.512   7.008  18.197  0.00  0.00    +0.000 N 
ATOM      4  C   UNL     1       4.450   6.880  17.081  0.00  0.00    +0.000 C 
ATOM      5  C   UNL     1       4.842   5.435  16.777  0.00  0.00    +0.000 C 
ATOM      6  C   UNL     1       5.186   4.643  18.035  0.00  0.00    +0.000 C 
ATOM      7  C   UNL     1       4.061   4.690  19.082  0.00  0.00    +0.000 C 
ATOM      8  C   UNL     1       3.850   6.198  19.381  0.00  0.00    +0.000 C 
ENDROOT
BRANCH   1  16
ATOM      9  C   UNL     1       1.018  10.671  18.368  0.00  0.00    +0.000 C 
ATOM     10  C   UNL     1       0.951   9.570  19.391  0.00  0.00    +0.000 A 
ATOM     11  C   UNL     1       0.117   9.746  20.505  0.00  0.00    +0.000 A 
ATOM     12  F   UNL     1      -0.651  10.841  20.605  0.00  0.00    +0.000 F 
ATOM     13  C   UNL     1       0.052   8.813  21.537  0.00  0.00    +0.000 A 
ATOM     14  C   UNL     1       0.902   7.716  21.520  0.00  0.00    +0.000 A 
ATOM     15  C   UNL     1       1.778   7.551  20.450  0.00  0.00    +0.000 A 
ATOM     16  C   UNL     1       1.739   8.402  19.332  0.00  0.00    +0.000 A 
ENDBRANCH   1  16
BRANCH   7  17
ATOM     17  N   UNL     1       2.761   4.052  18.648  0.00  0.00    +0.000 NA
ATOM     18  C   UNL     1       1.533   4.568  19.338  0.00  0.00    +0.000 C 
ATOM     19  C   UNL     1       1.338   3.681  20.562  0.00  0.00    +0.000 C 
ATOM     20  C   UNL     1       1.562   2.251  20.121  0.00  0.00    +0.000 C 
ATOM     21  S   UNL     1       2.597   2.334  18.656  0.00  0.00    +0.000 S 
ATOM     22  O   UNL     1       1.764   1.975  17.531  0.00  0.00    +0.000 OA
ATOM     23  O   UNL     1       3.852   1.684  18.941  0.00  0.00    +0.000 OA
ENDBRANCH   7  17
TORSDOF 2
ENDMDL
MODEL 2
REMARK VINA RESULT:      -7.6      2.417      3.981
REMARK  Name = 
REMARK  3 active torsions:
REMARK  status: ('A' for Active; 'I' for Inactive)
REMARK    1  A    between atoms: C_1  and  C_2
REMARK    2  A    between atoms: C_8  and  C_9
REMARK    3  A    between atoms: C_15  and  N_16
REMARK                            x       y       z     vdW  Elec       q    Type
REMARK                         _______ _______ _______ _____ _____    ______ ____
ROOT
ATOM      1  C   UNL     1       2.268   5.984  20.118  0.00  0.00    +0.000 C 
ATOM      2  O   UNL     1       2.259   5.908  21.346  0.00  0.00    +0.000 OA
ATOM      3  N   UNL     1       2.550   4.875  19.293  0.00  0.00    +0.000 N 
ATOM      4  C   UNL     1       2.620   3.562  19.936  0.00  0.00    +0.000 C 
ATOM      5  C   UNL     1       3.624   2.616  19.280  0.00  0.00    +0.000 C 
ATOM      6  C   UNL     1       3.518   2.611  17.757  0.00  0.00    +0.000 C 
ATOM      7  C   UNL     1       3.634   4.022  17.158  0.00  0.00    +0.000 C 
ATOM      8  C   UNL     1       2.491   4.836  17.820  0.00  0.00    +0.000 C 
ENDROOT
BRANCH   1  16
ATOM      9  C   UNL     1       0.621   8.101  21.562  0.00  0.00    +0.000 C 
ATOM     10  C   UNL     1       1.270   8.325  20.224  0.00  0.00    +0.000 A 
ATOM     11  C   UNL     1       1.120   9.578  19.612  0.00  0.00    +0.000 A 
ATOM     12  F   UNL     1       0.474  10.566  20.250  0.00  0.00    +0.000 F 
ATOM     13  C   UNL     1       1.623   9.848  18.342  0.00  0.00    +0.000 A 
ATOM     14  C   UNL     1       2.211   8.826  17.610  0.00  0.00    +0.000 A 
ATOM     15  C   UNL     1       2.320   7.559  18.177  0.00  0.00    +0.000 A 
ATOM     16  C   UNL     1       1.958   7.320  19.513  0.00  0.00    +0.000 A 
ENDBRANCH   1  16
BRANCH   7  17
ATOM     17  N   UNL     1       4.965   4.701  17.384  0.00  0.00    +0.000 NA
ATOM     18  C   UNL     1       4.921   6.200  17.421  0.00  0.00    +0.000 C 
ATOM     19  C   UNL     1       5.145   6.660  15.986  0.00  0.00    +0.000 C 
ATOM     20  C   UNL     1       6.276   5.829  15.419  0.00  0.00    +0.000 C 
ATOM     21  S   UNL     1       6.314   4.313  16.380  0.00  0.00    +0.000 S 
ATOM     22  O   UNL     1       7.498   4.369  17.208  0.00  0.00    +0.000 OA
ATOM     23  O   UNL     1       6.021   3.205  15.505  0.00  0.00    +0.000 OA
ENDBRANCH   7  17
TORSDOF 2
ENDMDL
MODEL 3
REMARK VINA RESULT:      -7.3      7.568     10.169
REMARK  Name = 
REMARK  3 active torsions:
REMARK  status: ('A' for Active; 'I' for Inactive)
REMARK    1  A    between atoms: C_1  and  C_2
REMARK    2  A    between atoms: C_8  and  C_9
REMARK    3  A    between atoms: C_15  and  N_16
REMARK                            x       y       z     vdW  Elec       q    Type
REMARK                         _______ _______ _______ _____ _____    ______ ____
ROOT
ATOM      1  C   UNL     1      -1.634  11.918  22.538  0.00  0.00    +0.000 C 
ATOM      2  O   UNL     1      -1.148  11.157  23.372  0.00  0.00    +0.000 OA
ATOM      3  N   UNL     1      -2.835  12.622  22.764  0.00  0.00    +0.000 N 
ATOM      4  C   UNL     1      -3.385  12.590  24.120  0.00  0.00    +0.000 C 
ATOM      5  C   UNL     1      -4.911  12.634  24.160  0.00  0.00    +0.000 C 
ATOM      6  C   UNL     1      -5.494  13.691  23.226  0.00  0.00    +0.000 C 
ATOM      7  C   UNL     1      -4.994  13.534  21.781  0.00  0.00    +0.000 C 
ATOM      8  C   UNL     1      -3.448  13.626  21.875  0.00  0.00    +0.000 C 
ENDROOT
BRANCH   1  16
ATOM      9  C   UNL     1       0.243  14.258  22.008  0.00  0.00    +0.000 C 
ATOM     10  C   UNL     1       0.043  13.120  21.045  0.00  0.00    +0.000 A 
ATOM     11  C   UNL     1       0.767  13.129  19.843  0.00  0.00    +0.000 A 
ATOM     12  F   UNL     1       1.666  14.096  19.606  0.00  0.00    +0.000 F 
ATOM     13  C   UNL     1       0.588  12.157  18.863  0.00  0.00    +0.000 A 
ATOM     14  C   UNL     1      -0.401  11.197  19.026  0.00  0.00    +0.000 A 
ATOM     15  C   UNL     1      -1.170  11.203  20.187  0.00  0.00    +0.000 A 
ATOM     16  C   UNL     1      -0.890  12.083  21.247  0.00  0.00    +0.000 A 
ENDBRANCH   1  16
BRANCH   7  17
ATOM     17  N   UNL     1      -5.405  12.247  21.103  0.00  0.00    +0.000 NA
ATOM     18  C   UNL     1      -4.799  12.014  19.750  0.00  0.00    +0.000 C 
ATOM     19  C   UNL     1      -5.767  12.629  18.746  0.00  0.00    +0.000 C 
ATOM     20  C   UNL     1      -7.165  12.224  19.164  0.00  0.00    +0.000 C 
ATOM     21  S   UNL     1      -7.078  11.863  20.921  0.00  0.00    +0.000 S 
ATOM     22  O   UNL     1      -7.210  10.431  21.063  0.00  0.00    +0.000 OA
ATOM     23  O   UNL     1      -7.916  12.801  21.625  0.00  0.00    +0.000 OA
ENDBRANCH   7  17
TORSDOF 2
ENDMDL
MODEL 4
REMARK VINA RESULT:      -7.2      6.679      9.945
REMARK  Name = 
REMARK  3 active torsions:
REMARK  status: ('A' for Active; 'I' for Inactive)
REMARK    1  A    between atoms: C_1  and  C_2
REMARK    2  A    between atoms: C_8  and  C_9
REMARK    3  A    between atoms: C_15  and  N_16
REMARK                            x       y       z     vdW  Elec       q    Type
REMARK                         _______ _______ _______ _____ _____    ______ ____
ROOT
ATOM      1  C   UNL     1       0.854  12.259  20.489  0.00  0.00    +0.000 C 
ATOM      2  O   UNL     1       0.992  11.675  21.562  0.00  0.00    +0.000 OA
ATOM      3  N   UNL     1       1.729  13.281  20.064  0.00  0.00    +0.000 N 
ATOM      4  C   UNL     1       2.950  13.485  20.846  0.00  0.00    +0.000 C 
ATOM      5  C   UNL     1       3.410  14.941  20.887  0.00  0.00    +0.000 C 
ATOM      6  C   UNL     1       3.375  15.607  19.515  0.00  0.00    +0.000 C 
ATOM      7  C   UNL     1       1.996  15.495  18.845  0.00  0.00    +0.000 C 
ATOM      8  C   UNL     1       1.710  13.972  18.762  0.00  0.00    +0.000 C 
ENDROOT
BRANCH   1  16
ATOM      9  C   UNL     1       1.126  10.152  18.306  0.00  0.00    +0.000 C 
ATOM     10  C   UNL     1      -0.181  10.798  18.676  0.00  0.00    +0.000 A 
ATOM     11  C   UNL     1      -1.338  10.404  17.989  0.00  0.00    +0.000 A 
ATOM     12  F   UNL     1      -1.279   9.420  17.079  0.00  0.00    +0.000 F 
ATOM     13  C   UNL     1      -2.574  11.003  18.215  0.00  0.00    +0.000 A 
ATOM     14  C   UNL     1      -2.660  12.089  19.075  0.00  0.00    +0.000 A 
ATOM     15  C   UNL     1      -1.512  12.533  19.726  0.00  0.00    +0.000 A 
ATOM     16  C   UNL     1      -0.295  11.837  19.623  0.00  0.00    +0.000 A 
ENDBRANCH   1  16
BRANCH   7  17
ATOM     17  N   UNL     1       0.877  16.203  19.573  0.00  0.00    +0.000 NA
ATOM     18  C   UNL     1      -0.489  16.022  18.979  0.00  0.00    +0.000 C 
ATOM     19  C   UNL     1      -0.668  17.164  17.987  0.00  0.00    +0.000 C 
ATOM     20  C   UNL     1      -0.162  18.424  18.656  0.00  0.00    +0.000 C 
ATOM     21  S   UNL     1       1.000  17.890  19.916  0.00  0.00    +0.000 S 
ATOM     22  O   UNL     1       0.368  18.117  21.195  0.00  0.00    +0.000 OA
ATOM     23  O   UNL     1       2.307  18.403  19.584  0.00  0.00    +0.000 OA
ENDBRANCH   7  17
TORSDOF 2
ENDMDL
MODEL 5
REMARK VINA RESULT:      -7.1      9.100     10.539
REMARK  Name = 
REMARK  3 active torsions:
REMARK  status: ('A' for Active; 'I' for Inactive)
REMARK    1  A    between atoms: C_1  and  C_2
REMARK    2  A    between atoms: C_8  and  C_9
REMARK    3  A    between atoms: C_15  and  N_16
REMARK                            x       y       z     vdW  Elec       q    Type
REMARK                         _______ _______ _______ _____ _____    ______ ____
ROOT
ATOM      1  C   UNL     1       6.400  14.543  21.734  0.00  0.00    +0.000 C 
ATOM      2  O   UNL     1       5.182  14.383  21.777  0.00  0.00    +0.000 OA
ATOM      3  N   UNL     1       7.088  14.796  20.528  0.00  0.00    +0.000 N 
ATOM      4  C   UNL     1       6.279  15.083  19.343  0.00  0.00    +0.000 C 
ATOM      5  C   UNL     1       6.906  14.586  18.042  0.00  0.00    +0.000 C 
ATOM      6  C   UNL     1       8.390  14.926  17.937  0.00  0.00    +0.000 C 
ATOM      7  C   UNL     1       9.192  14.426  19.150  0.00  0.00    +0.000 C 
ATOM      8  C   UNL     1       8.524  15.097  20.380  0.00  0.00    +0.000 C 
ENDROOT
BRANCH   1  16
ATOM      9  C   UNL     1       7.078  11.898  23.084  0.00  0.00    +0.000 C 
ATOM     10  C   UNL     1       7.534  13.234  23.602  0.00  0.00    +0.000 A 
ATOM     11  C   UNL     1       8.322  13.266  24.762  0.00  0.00    +0.000 A 
ATOM     12  F   UNL     1       8.714  12.121  25.341  0.00  0.00    +0.000 F 
ATOM     13  C   UNL     1       8.723  14.461  25.352  0.00  0.00    +0.000 A 
ATOM     14  C   UNL     1       8.258  15.665  24.842  0.00  0.00    +0.000 A 
ATOM     15  C   UNL     1       7.429  15.654  23.724  0.00  0.00    +0.000 A 
ATOM     16  C   UNL     1       7.148  14.464  23.031  0.00  0.00    +0.000 A 
ENDBRANCH   1  16
BRANCH   7  17
ATOM     17  N   UNL     1       9.219  12.924  19.319  0.00  0.00    +0.000 NA
ATOM     18  C   UNL     1       9.688  12.439  20.658  0.00  0.00    +0.000 C 
ATOM     19  C   UNL     1      11.196  12.261  20.534  0.00  0.00    +0.000 C 
ATOM     20  C   UNL     1      11.460  11.576  19.211  0.00  0.00    +0.000 C 
ATOM     21  S   UNL     1      10.046  11.941  18.166  0.00  0.00    +0.000 S 
ATOM     22  O   UNL     1       9.296  10.713  18.030  0.00  0.00    +0.000 OA
ATOM     23  O   UNL     1      10.495  12.715  17.036  0.00  0.00    +0.000 OA
ENDBRANCH   7  17
TORSDOF 2
ENDMDL
MODEL 6
REMARK VINA RESULT:      -7.1      7.808     10.471
REMARK  Name = 
REMARK  3 active torsions:
REMARK  status: ('A' for Active; 'I' for Inactive)
REMARK    1  A    between atoms: C_1  and  C_2
REMARK    2  A    between atoms: C_8  and  C_9
REMARK    3  A    between atoms: C_15  and  N_16
REMARK                            x       y       z     vdW  Elec       q    Type
REMARK                         _______ _______ _______ _____ _____    ______ ____
ROOT
ATOM      1  C   UNL     1      -6.422  12.329  21.905  0.00  0.00    +0.000 C 
ATOM      2  O   UNL     1      -7.129  11.555  22.548  0.00  0.00    +0.000 OA
ATOM      3  N   UNL     1      -6.383  12.323  20.494  0.00  0.00    +0.000 N 
ATOM      4  C   UNL     1      -7.381  11.509  19.799  0.00  0.00    +0.000 C 
ATOM      5  C   UNL     1      -6.875  10.914  18.487  0.00  0.00    +0.000 C 
ATOM      6  C   UNL     1      -6.127  11.931  17.630  0.00  0.00    +0.000 C 
ATOM      7  C   UNL     1      -4.978  12.609  18.395  0.00  0.00    +0.000 C 
ATOM      8  C   UNL     1      -5.649  13.266  19.630  0.00  0.00    +0.000 C 
ENDROOT
BRANCH   1  16
ATOM      9  C   UNL     1      -7.341  15.171  22.500  0.00  0.00    +0.000 C 
ATOM     10  C   UNL     1      -6.061  14.586  23.028  0.00  0.00    +0.000 A 
ATOM     11  C   UNL     1      -5.251  15.385  23.848  0.00  0.00    +0.000 A 
ATOM     12  F   UNL     1      -5.657  16.613  24.204  0.00  0.00    +0.000 F 
ATOM     13  C   UNL     1      -4.014  14.950  24.318  0.00  0.00    +0.000 A 
ATOM     14  C   UNL     1      -3.514  13.728  23.894  0.00  0.00    +0.000 A 
ATOM     15  C   UNL     1      -4.277  12.942  23.035  0.00  0.00    +0.000 A 
ATOM     16  C   UNL     1      -5.589  13.303  22.682  0.00  0.00    +0.000 A 
ENDBRANCH   1  16
BRANCH   7  17
ATOM     17  N   UNL     1      -3.869  11.679  18.830  0.00  0.00    +0.000 NA
ATOM     18  C   UNL     1      -2.989  12.202  19.927  0.00  0.00    +0.000 C 
ATOM     19  C   UNL     1      -1.845  12.933  19.233  0.00  0.00    +0.000 C 
ATOM     20  C   UNL     1      -1.390  12.064  18.081  0.00  0.00    +0.000 C 
ATOM     21  S   UNL     1      -2.787  11.018  17.659  0.00  0.00    +0.000 S 
ATOM     22  O   UNL     1      -2.454   9.678  18.087  0.00  0.00    +0.000 OA
ATOM     23  O   UNL     1      -3.206  11.330  16.315  0.00  0.00    +0.000 OA
ENDBRANCH   7  17
TORSDOF 2
ENDMDL
MODEL 7
REMARK VINA RESULT:      -7.0      9.267     11.456
REMARK  Name = 
REMARK  3 active torsions:
REMARK  status: ('A' for Active; 'I' for Inactive)
REMARK    1  A    between atoms: C_1  and  C_2
REMARK    2  A    between atoms: C_8  and  C_9
REMARK    3  A    between atoms: C_15  and  N_16
REMARK                            x       y       z     vdW  Elec       q    Type
REMARK                         _______ _______ _______ _____ _____    ______ ____
ROOT
ATOM      1  C   UNL     1       9.279  12.118  20.817  0.00  0.00    +0.000 C 
ATOM      2  O   UNL     1       9.244  10.894  20.925  0.00  0.00    +0.000 OA
ATOM      3  N   UNL     1       8.462  12.970  21.591  0.00  0.00    +0.000 N 
ATOM      4  C   UNL     1       7.716  12.362  22.693  0.00  0.00    +0.000 C 
ATOM      5  C   UNL     1       6.367  13.029  22.957  0.00  0.00    +0.000 C 
ATOM      6  C   UNL     1       6.457  14.552  22.969  0.00  0.00    +0.000 C 
ATOM      7  C   UNL     1       7.096  15.111  21.687  0.00  0.00    +0.000 C 
ATOM      8  C   UNL     1       8.494  14.444  21.609  0.00  0.00    +0.000 C 
ENDROOT
BRANCH   1  16
ATOM      9  C   UNL     1       8.838  11.936  17.809  0.00  0.00    +0.000 C 
ATOM     10  C   UNL     1       9.985  12.679  18.435  0.00  0.00    +0.000 A 
ATOM     11  C   UNL     1      10.895  13.334  17.592  0.00  0.00    +0.000 A 
ATOM     12  F   UNL     1      10.693  13.350  16.266  0.00  0.00    +0.000 F 
ATOM     13  C   UNL     1      12.026  13.981  18.082  0.00  0.00    +0.000 A 
ATOM     14  C   UNL     1      12.324  13.904  19.435  0.00  0.00    +0.000 A 
ATOM     15  C   UNL     1      11.463  13.212  20.283  0.00  0.00    +0.000 A 
ATOM     16  C   UNL     1      10.242  12.691  19.821  0.00  0.00    +0.000 A 
ENDBRANCH   1  16
BRANCH   7  17
ATOM     17  N   UNL     1       6.314  14.847  20.421  0.00  0.00    +0.000 NA
ATOM     18  C   UNL     1       7.101  14.957  19.148  0.00  0.00    +0.000 C 
ATOM     19  C   UNL     1       6.971  16.408  18.700  0.00  0.00    +0.000 C 
ATOM     20  C   UNL     1       5.520  16.803  18.872  0.00  0.00    +0.000 C 
ATOM     21  S   UNL     1       4.845  15.701  20.119  0.00  0.00    +0.000 S 
ATOM     22  O   UNL     1       3.950  14.793  19.439  0.00  0.00    +0.000 OA
ATOM     23  O   UNL     1       4.446  16.488  21.260  0.00  0.00    +0.000 OA
ENDBRANCH   7  17
TORSDOF 2
ENDMDL
MODEL 8
REMARK VINA RESULT:      -7.0      7.794     10.184
REMARK  Name = 
REMARK  3 active torsions:
REMARK  status: ('A' for Active; 'I' for Inactive)
REMARK    1  A    between atoms: C_1  and  C_2
REMARK    2  A    between atoms: C_8  and  C_9
REMARK    3  A    between atoms: C_15  and  N_16
REMARK                            x       y       z     vdW  Elec       q    Type
REMARK                         _______ _______ _______ _____ _____    ______ ____
ROOT
ATOM      1  C   UNL     1      -5.381  12.873  22.492  0.00  0.00    +0.000 C 
ATOM      2  O   UNL     1      -5.873  12.293  23.458  0.00  0.00    +0.000 OA
ATOM      3  N   UNL     1      -5.868  12.704  21.179  0.00  0.00    +0.000 N 
ATOM      4  C   UNL     1      -7.128  11.977  21.020  0.00  0.00    +0.000 C 
ATOM      5  C   UNL     1      -7.206  11.169  19.726  0.00  0.00    +0.000 C 
ATOM      6  C   UNL     1      -6.731  11.958  18.510  0.00  0.00    +0.000 C 
ATOM      7  C   UNL     1      -5.319  12.536  18.702  0.00  0.00    +0.000 C 
ATOM      8  C   UNL     1      -5.415  13.422  19.973  0.00  0.00    +0.000 C 
ENDROOT
BRANCH   1  16
ATOM      9  C   UNL     1      -2.612  11.855  23.253  0.00  0.00    +0.000 C 
ATOM     10  C   UNL     1      -2.928  13.308  23.025  0.00  0.00    +0.000 A 
ATOM     11  C   UNL     1      -1.892  14.244  23.158  0.00  0.00    +0.000 A 
ATOM     12  F   UNL     1      -0.641  13.832  23.410  0.00  0.00    +0.000 F 
ATOM     13  C   UNL     1      -2.112  15.614  23.039  0.00  0.00    +0.000 A 
ATOM     14  C   UNL     1      -3.406  16.086  22.877  0.00  0.00    +0.000 A 
ATOM     15  C   UNL     1      -4.458  15.176  22.799  0.00  0.00    +0.000 A 
ATOM     16  C   UNL     1      -4.226  13.791  22.761  0.00  0.00    +0.000 A 
ENDBRANCH   1  16
BRANCH   7  17
ATOM     17  N   UNL     1      -4.226  11.504  18.861  0.00  0.00    +0.000 NA
ATOM     18  C   UNL     1      -3.017  11.964  19.619  0.00  0.00    +0.000 C 
ATOM     19  C   UNL     1      -2.062  12.536  18.578  0.00  0.00    +0.000 C 
ATOM     20  C   UNL     1      -2.052  11.580  17.405  0.00  0.00    +0.000 C 
ATOM     21  S   UNL     1      -3.606  10.683  17.475  0.00  0.00    +0.000 S 
ATOM     22  O   UNL     1      -3.294   9.331  17.878  0.00  0.00    +0.000 OA
ATOM     23  O   UNL     1      -4.369  10.992  16.291  0.00  0.00    +0.000 OA
ENDBRANCH   7  17
TORSDOF 2
ENDMDL
MODEL 9
REMARK VINA RESULT:      -7.0      7.919     10.165
REMARK  Name = 
REMARK  3 active torsions:
REMARK  status: ('A' for Active; 'I' for Inactive)
REMARK    1  A    between atoms: C_1  and  C_2
REMARK    2  A    between atoms: C_8  and  C_9
REMARK    3  A    between atoms: C_15  and  N_16
REMARK                            x       y       z     vdW  Elec       q    Type
REMARK                         _______ _______ _______ _____ _____    ______ ____
ROOT
ATOM      1  C   UNL     1      -4.907  12.765  22.778  0.00  0.00    +0.000 C 
ATOM      2  O   UNL     1      -5.423  12.155  23.713  0.00  0.00    +0.000 OA
ATOM      3  N   UNL     1      -5.466  12.778  21.483  0.00  0.00    +0.000 N 
ATOM      4  C   UNL     1      -6.810  12.218  21.327  0.00  0.00    +0.000 C 
ATOM      5  C   UNL     1      -7.038  11.551  19.972  0.00  0.00    +0.000 C 
ATOM      6  C   UNL     1      -6.525  12.393  18.808  0.00  0.00    +0.000 C 
ATOM      7  C   UNL     1      -5.048  12.786  18.976  0.00  0.00    +0.000 C 
ATOM      8  C   UNL     1      -4.984  13.551  20.324  0.00  0.00    +0.000 C 
ENDROOT
BRANCH   1  16
ATOM      9  C   UNL     1      -4.875  15.730  23.473  0.00  0.00    +0.000 C 
ATOM     10  C   UNL     1      -3.645  14.865  23.473  0.00  0.00    +0.000 A 
ATOM     11  C   UNL     1      -2.419  15.450  23.821  0.00  0.00    +0.000 A 
ATOM     12  F   UNL     1      -2.372  16.732  24.215  0.00  0.00    +0.000 F 
ATOM     13  C   UNL     1      -1.220  14.743  23.774  0.00  0.00    +0.000 A 
ATOM     14  C   UNL     1      -1.212  13.446  23.279  0.00  0.00    +0.000 A 
ATOM     15  C   UNL     1      -2.411  12.865  22.875  0.00  0.00    +0.000 A 
ATOM     16  C   UNL     1      -3.642  13.515  23.066  0.00  0.00    +0.000 A 
ENDBRANCH   1  16
BRANCH   7  17
ATOM     17  N   UNL     1      -4.079  11.626  18.982  0.00  0.00    +0.000 NA
ATOM     18  C   UNL     1      -2.749  11.906  19.616  0.00  0.00    +0.000 C 
ATOM     19  C   UNL     1      -1.847  12.405  18.492  0.00  0.00    +0.000 C 
ATOM     20  C   UNL     1      -2.078  11.505  17.298  0.00  0.00    +0.000 C 
ATOM     21  S   UNL     1      -3.714  10.797  17.512  0.00  0.00    +0.000 S 
ATOM     22  O   UNL     1      -3.529   9.401  17.839  0.00  0.00    +0.000 OA
ATOM     23  O   UNL     1      -4.556  11.244  16.430  0.00  0.00    +0.000 OA
ENDBRANCH   7  17
TORSDOF 2
ENDMDL
