MODEL 1
REMARK VINA RESULT:      -6.1      0.000      0.000
REMARK  Name = 
REMARK  7 active torsions:
REMARK  status: ('A' for Active; 'I' for Inactive)
REMARK    1  A    between atoms: C_1  and  C_2
REMARK    2  A    between atoms: C_2  and  N_3
REMARK    3  A    between atoms: N_3  and  C_4
REMARK    4  A    between atoms: C_4  and  C_5
REMARK    5  A    between atoms: C_6  and  O_8
REMARK    6  A    between atoms: O_8  and  C_9
REMARK    7  A    between atoms: C_10  and  C_11
REMARK                            x       y       z     vdW  Elec       q    Type
REMARK                         _______ _______ _______ _____ _____    ______ ____
ROOT
ATOM      1  C   UNL     1      -2.621  12.626  20.091  0.00  0.00    +0.000 C 
ATOM      2  C   UNL     1      -1.905  11.751  19.349  0.00  0.00    +0.000 C 
ATOM      3  O   UNL     1      -0.613  11.361  19.673  0.00  0.00    +0.000 OA
ATOM      4  C   UNL     1      -0.479  10.731  20.879  0.00  0.00    +0.000 A 
ATOM      5  C   UNL     1       0.063   9.447  20.865  0.00  0.00    +0.000 A 
ATOM      6  C   UNL     1       0.286   8.789  22.070  0.00  0.00    +0.000 A 
ATOM      7  C   UNL     1       0.006   9.465  23.245  0.00  0.00    +0.000 A 
ATOM      8  N   UNL     1      -0.462  10.731  23.294  0.00  0.00    +0.000 NA
ATOM      9  C   UNL     1      -0.732  11.338  22.104  0.00  0.00    +0.000 A 
ATOM     10  N   UNL     1      -1.250  12.663  22.142  0.00  0.00    +0.000 N 
ATOM     11  C   UNL     1      -1.035  13.541  23.190  0.00  0.00    +0.000 A 
ATOM     12  C   UNL     1      -1.595  14.760  22.885  0.00  0.00    +0.000 A 
ATOM     13  C   UNL     1      -2.243  14.611  21.643  0.00  0.00    +0.000 A 
ATOM     14  C   UNL     1      -2.049  13.309  21.204  0.00  0.00    +0.000 A 
ENDROOT
BRANCH   2  15
ATOM     15  C   UNL     1      -2.371  11.234  18.096  0.00  0.00    +0.000 A 
ATOM     16  C   UNL     1      -2.283  11.770  16.829  0.00  0.00    +0.000 A 
ATOM     17  C   UNL     1      -2.741  10.899  15.804  0.00  0.00    +0.000 A 
ATOM     18  C   UNL     1      -3.257   9.733  16.319  0.00  0.00    +0.000 A 
ATOM     19  S   UNL     1      -3.203   9.713  18.023  0.00  0.00    +0.000 S 
ENDBRANCH   2  15
BRANCH   1  20
ATOM     20  O   UNL     1      -3.911  13.085  19.734  0.00  0.00    +0.000 OA
BRANCH  20  22
ATOM     21  N   UNL     1      -6.172  12.589  19.890  0.00  0.00    +0.000 N 
ATOM     22  C   UNL     1      -4.923  12.560  20.513  0.00  0.00    +0.000 C 
ATOM     23  O   UNL     1      -4.759  12.116  21.647  0.00  0.00    +0.000 OA
BRANCH  21  25
ATOM     24  C   UNL     1      -7.732  10.788  20.684  0.00  0.00    +0.000 C 
ATOM     25  C   UNL     1      -7.359  12.264  20.687  0.00  0.00    +0.000 C 
ENDBRANCH  21  25
BRANCH  21  26
ATOM     26  C   UNL     1      -6.347  13.009  18.499  0.00  0.00    +0.000 C 
ATOM     27  C   UNL     1      -6.229  11.851  17.519  0.00  0.00    +0.000 C 
ENDBRANCH  21  26
ENDBRANCH  20  22
ENDBRANCH   1  20
TORSDOF 5
ENDMDL
MODEL 2
REMARK VINA RESULT:      -5.8      2.661      6.752
REMARK  Name = 
REMARK  7 active torsions:
REMARK  status: ('A' for Active; 'I' for Inactive)
REMARK    1  A    between atoms: C_1  and  C_2
REMARK    2  A    between atoms: C_2  and  N_3
REMARK    3  A    between atoms: N_3  and  C_4
REMARK    4  A    between atoms: C_4  and  C_5
REMARK    5  A    between atoms: C_6  and  O_8
REMARK    6  A    between atoms: O_8  and  C_9
REMARK    7  A    between atoms: C_10  and  C_11
REMARK                            x       y       z     vdW  Elec       q    Type
REMARK                         _______ _______ _______ _____ _____    ______ ____
ROOT
ATOM      1  C   UNL     1      -2.903  13.398  21.752  0.00  0.00    +0.000 C 
ATOM      2  C   UNL     1      -3.375  14.359  22.579  0.00  0.00    +0.000 C 
ATOM      3  O   UNL     1      -4.683  14.821  22.535  0.00  0.00    +0.000 OA
ATOM      4  C   UNL     1      -5.643  13.879  22.782  0.00  0.00    +0.000 A 
ATOM      5  C   UNL     1      -6.507  14.121  23.848  0.00  0.00    +0.000 A 
ATOM      6  C   UNL     1      -7.545  13.230  24.098  0.00  0.00    +0.000 A 
ATOM      7  C   UNL     1      -7.710  12.159  23.237  0.00  0.00    +0.000 A 
ATOM      8  N   UNL     1      -6.927  11.931  22.160  0.00  0.00    +0.000 NA
ATOM      9  C   UNL     1      -5.877  12.779  21.965  0.00  0.00    +0.000 A 
ATOM     10  N   UNL     1      -5.030  12.534  20.849  0.00  0.00    +0.000 N 
ATOM     11  C   UNL     1      -5.439  11.867  19.707  0.00  0.00    +0.000 A 
ATOM     12  C   UNL     1      -4.416  11.869  18.788  0.00  0.00    +0.000 A 
ATOM     13  C   UNL     1      -3.313  12.489  19.407  0.00  0.00    +0.000 A 
ATOM     14  C   UNL     1      -3.691  12.873  20.686  0.00  0.00    +0.000 A 
ENDROOT
BRANCH   2  15
ATOM     15  C   UNL     1      -2.537  15.068  23.499  0.00  0.00    +0.000 A 
ATOM     16  C   UNL     1      -2.375  14.901  24.859  0.00  0.00    +0.000 A 
ATOM     17  C   UNL     1      -1.345  15.706  25.417  0.00  0.00    +0.000 A 
ATOM     18  C   UNL     1      -0.790  16.546  24.480  0.00  0.00    +0.000 A 
ATOM     19  S   UNL     1      -1.529  16.371  22.953  0.00  0.00    +0.000 S 
ENDBRANCH   2  15
BRANCH   1  20
ATOM     20  O   UNL     1      -1.555  12.967  21.738  0.00  0.00    +0.000 OA
BRANCH  20  22
ATOM     21  N   UNL     1      -0.482  10.915  21.583  0.00  0.00    +0.000 N 
ATOM     22  C   UNL     1      -1.363  11.722  22.305  0.00  0.00    +0.000 C 
ATOM     23  O   UNL     1      -1.912  11.344  23.338  0.00  0.00    +0.000 OA
BRANCH  21  25
ATOM     24  C   UNL     1       1.041   9.081  22.372  0.00  0.00    +0.000 C 
ATOM     25  C   UNL     1      -0.362   9.503  21.956  0.00  0.00    +0.000 C 
ENDBRANCH  21  25
BRANCH  21  26
ATOM     26  C   UNL     1       0.260  11.406  20.421  0.00  0.00    +0.000 C 
ATOM     27  C   UNL     1      -0.068  10.639  19.149  0.00  0.00    +0.000 C 
ENDBRANCH  21  26
ENDBRANCH  20  22
ENDBRANCH   1  20
TORSDOF 5
ENDMDL
MODEL 3
REMARK VINA RESULT:      -5.7      4.868      7.347
REMARK  Name = 
REMARK  7 active torsions:
REMARK  status: ('A' for Active; 'I' for Inactive)
REMARK    1  A    between atoms: C_1  and  C_2
REMARK    2  A    between atoms: C_2  and  N_3
REMARK    3  A    between atoms: N_3  and  C_4
REMARK    4  A    between atoms: C_4  and  C_5
REMARK    5  A    between atoms: C_6  and  O_8
REMARK    6  A    between atoms: O_8  and  C_9
REMARK    7  A    between atoms: C_10  and  C_11
REMARK                            x       y       z     vdW  Elec       q    Type
REMARK                         _______ _______ _______ _____ _____    ______ ____
ROOT
ATOM      1  C   UNL     1       1.951  14.374  19.977  0.00  0.00    +0.000 C 
ATOM      2  C   UNL     1       0.747  14.944  20.210  0.00  0.00    +0.000 C 
ATOM      3  O   UNL     1       0.530  16.313  20.146  0.00  0.00    +0.000 OA
ATOM      4  C   UNL     1       0.770  16.885  18.927  0.00  0.00    +0.000 A 
ATOM      5  C   UNL     1      -0.289  17.562  18.327  0.00  0.00    +0.000 A 
ATOM      6  C   UNL     1      -0.080  18.222  17.121  0.00  0.00    +0.000 A 
ATOM      7  C   UNL     1       1.198  18.221  16.589  0.00  0.00    +0.000 A 
ATOM      8  N   UNL     1       2.259  17.626  17.177  0.00  0.00    +0.000 NA
ATOM      9  C   UNL     1       2.023  16.933  18.326  0.00  0.00    +0.000 A 
ATOM     10  N   UNL     1       3.127  16.280  18.942  0.00  0.00    +0.000 N 
ATOM     11  C   UNL     1       4.442  16.682  18.782  0.00  0.00    +0.000 A 
ATOM     12  C   UNL     1       5.256  15.900  19.569  0.00  0.00    +0.000 A 
ATOM     13  C   UNL     1       4.429  14.934  20.176  0.00  0.00    +0.000 A 
ATOM     14  C   UNL     1       3.123  15.159  19.764  0.00  0.00    +0.000 A 
ENDROOT
BRANCH   2  15
ATOM     15  C   UNL     1      -0.390  14.195  20.658  0.00  0.00    +0.000 A 
ATOM     16  C   UNL     1      -1.434  13.655  19.937  0.00  0.00    +0.000 A 
ATOM     17  C   UNL     1      -2.314  12.854  20.714  0.00  0.00    +0.000 A 
ATOM     18  C   UNL     1      -1.973  12.866  22.045  0.00  0.00    +0.000 A 
ATOM     19  S   UNL     1      -0.616  13.856  22.345  0.00  0.00    +0.000 S 
ENDBRANCH   2  15
BRANCH   1  20
ATOM     20  O   UNL     1       2.202  12.988  20.108  0.00  0.00    +0.000 OA
BRANCH  20  22
ATOM     21  N   UNL     1       1.206  11.055  19.297  0.00  0.00    +0.000 N 
ATOM     22  C   UNL     1       1.856  12.252  18.991  0.00  0.00    +0.000 C 
ATOM     23  O   UNL     1       2.097  12.598  17.837  0.00  0.00    +0.000 OA
BRANCH  21  25
ATOM     24  C   UNL     1       2.149   9.142  17.971  0.00  0.00    +0.000 C 
ATOM     25  C   UNL     1       0.981  10.086  18.220  0.00  0.00    +0.000 C 
ENDBRANCH  21  25
BRANCH  21  26
ATOM     26  C   UNL     1       0.815  10.700  20.662  0.00  0.00    +0.000 C 
ATOM     27  C   UNL     1      -0.299   9.665  20.702  0.00  0.00    +0.000 C 
ENDBRANCH  21  26
ENDBRANCH  20  22
ENDBRANCH   1  20
TORSDOF 5
ENDMDL
MODEL 4
REMARK VINA RESULT:      -5.7      1.560      1.839
REMARK  Name = 
REMARK  7 active torsions:
REMARK  status: ('A' for Active; 'I' for Inactive)
REMARK    1  A    between atoms: C_1  and  C_2
REMARK    2  A    between atoms: C_2  and  N_3
REMARK    3  A    between atoms: N_3  and  C_4
REMARK    4  A    between atoms: C_4  and  C_5
REMARK    5  A    between atoms: C_6  and  O_8
REMARK    6  A    between atoms: O_8  and  C_9
REMARK    7  A    between atoms: C_10  and  C_11
REMARK                            x       y       z     vdW  Elec       q    Type
REMARK                         _______ _______ _______ _____ _____    ______ ____
ROOT
ATOM      1  C   UNL     1      -3.020  12.930  20.328  0.00  0.00    +0.000 C 
ATOM      2  C   UNL     1      -2.405  12.050  19.505  0.00  0.00    +0.000 C 
ATOM      3  O   UNL     1      -1.100  11.620  19.694  0.00  0.00    +0.000 OA
ATOM      4  C   UNL     1      -0.866  10.963  20.870  0.00  0.00    +0.000 A 
ATOM      5  C   UNL     1      -0.365   9.666  20.781  0.00  0.00    +0.000 A 
ATOM      6  C   UNL     1      -0.044   8.979  21.947  0.00  0.00    +0.000 A 
ATOM      7  C   UNL     1      -0.187   9.639  23.156  0.00  0.00    +0.000 A 
ATOM      8  N   UNL     1      -0.612  10.917  23.271  0.00  0.00    +0.000 NA
ATOM      9  C   UNL     1      -0.980  11.553  22.123  0.00  0.00    +0.000 A 
ATOM     10  N   UNL     1      -1.453  12.891  22.234  0.00  0.00    +0.000 N 
ATOM     11  C   UNL     1      -1.111  13.743  23.270  0.00  0.00    +0.000 A 
ATOM     12  C   UNL     1      -1.662  14.982  23.042  0.00  0.00    +0.000 A 
ATOM     13  C   UNL     1      -2.434  14.874  21.868  0.00  0.00    +0.000 A 
ATOM     14  C   UNL     1      -2.321  13.576  21.390  0.00  0.00    +0.000 A 
ENDROOT
BRANCH   2  15
ATOM     15  C   UNL     1      -3.008  11.570  18.297  0.00  0.00    +0.000 A 
ATOM     16  C   UNL     1      -4.323  11.614  17.885  0.00  0.00    +0.000 A 
ATOM     17  C   UNL     1      -4.524  11.157  16.554  0.00  0.00    +0.000 A 
ATOM     18  C   UNL     1      -3.359  10.686  15.996  0.00  0.00    +0.000 A 
ATOM     19  S   UNL     1      -2.049  10.780  17.085  0.00  0.00    +0.000 S 
ENDBRANCH   2  15
BRANCH   1  20
ATOM     20  O   UNL     1      -4.324  13.431  20.109  0.00  0.00    +0.000 OA
BRANCH  20  22
ATOM     21  N   UNL     1      -6.027  14.220  21.473  0.00  0.00    +0.000 N 
ATOM     22  C   UNL     1      -5.210  13.142  21.128  0.00  0.00    +0.000 C 
ATOM     23  O   UNL     1      -5.278  12.052  21.692  0.00  0.00    +0.000 OA
BRANCH  21  25
ATOM     24  C   UNL     1      -6.404  15.000  23.830  0.00  0.00    +0.000 C 
ATOM     25  C   UNL     1      -6.855  14.113  22.678  0.00  0.00    +0.000 C 
ENDBRANCH  21  25
BRANCH  21  26
ATOM     26  C   UNL     1      -6.027  15.478  20.724  0.00  0.00    +0.000 C 
ATOM     27  C   UNL     1      -7.208  15.593  19.773  0.00  0.00    +0.000 C 
ENDBRANCH  21  26
ENDBRANCH  20  22
ENDBRANCH   1  20
TORSDOF 5
ENDMDL
MODEL 5
REMARK VINA RESULT:      -5.7      2.055      6.450
REMARK  Name = 
REMARK  7 active torsions:
REMARK  status: ('A' for Active; 'I' for Inactive)
REMARK    1  A    between atoms: C_1  and  C_2
REMARK    2  A    between atoms: C_2  and  N_3
REMARK    3  A    between atoms: N_3  and  C_4
REMARK    4  A    between atoms: C_4  and  C_5
REMARK    5  A    between atoms: C_6  and  O_8
REMARK    6  A    between atoms: O_8  and  C_9
REMARK    7  A    between atoms: C_10  and  C_11
REMARK                            x       y       z     vdW  Elec       q    Type
REMARK                         _______ _______ _______ _____ _____    ______ ____
ROOT
ATOM      1  C   UNL     1      -2.449  12.617  20.080  0.00  0.00    +0.000 C 
ATOM      2  C   UNL     1      -3.320  13.410  20.745  0.00  0.00    +0.000 C 
ATOM      3  O   UNL     1      -4.612  13.654  20.302  0.00  0.00    +0.000 OA
ATOM      4  C   UNL     1      -5.412  12.550  20.198  0.00  0.00    +0.000 A 
ATOM      5  C   UNL     1      -6.591  12.551  20.941  0.00  0.00    +0.000 A 
ATOM      6  C   UNL     1      -7.474  11.484  20.818  0.00  0.00    +0.000 A 
ATOM      7  C   UNL     1      -7.167  10.482  19.914  0.00  0.00    +0.000 A 
ATOM      8  N   UNL     1      -6.062  10.482  19.136  0.00  0.00    +0.000 NA
ATOM      9  C   UNL     1      -5.178  11.504  19.314  0.00  0.00    +0.000 A 
ATOM     10  N   UNL     1      -3.999  11.502  18.518  0.00  0.00    +0.000 N 
ATOM     11  C   UNL     1      -3.907  10.881  17.284  0.00  0.00    +0.000 A 
ATOM     12  C   UNL     1      -2.670  11.133  16.739  0.00  0.00    +0.000 A 
ATOM     13  C   UNL     1      -1.944  11.867  17.698  0.00  0.00    +0.000 A 
ATOM     14  C   UNL     1      -2.761  12.068  18.801  0.00  0.00    +0.000 A 
ENDROOT
BRANCH   2  15
ATOM     15  C   UNL     1      -2.951  14.162  21.907  0.00  0.00    +0.000 A 
ATOM     16  C   UNL     1      -3.122  13.867  23.244  0.00  0.00    +0.000 A 
ATOM     17  C   UNL     1      -2.499  14.796  24.121  0.00  0.00    +0.000 A 
ATOM     18  C   UNL     1      -1.930  15.842  23.434  0.00  0.00    +0.000 A 
ATOM     19  S   UNL     1      -2.171  15.704  21.751  0.00  0.00    +0.000 S 
ENDBRANCH   2  15
BRANCH   1  20
ATOM     20  O   UNL     1      -1.107  12.415  20.482  0.00  0.00    +0.000 OA
BRANCH  20  22
ATOM     21  N   UNL     1       0.038  10.403  20.642  0.00  0.00    +0.000 N 
ATOM     22  C   UNL     1      -0.912  11.256  21.207  0.00  0.00    +0.000 C 
ATOM     23  O   UNL     1      -1.513  10.984  22.244  0.00  0.00    +0.000 OA
BRANCH  21  25
ATOM     24  C   UNL     1       1.352   8.882  22.147  0.00  0.00    +0.000 C 
ATOM     25  C   UNL     1       0.179   9.052  21.192  0.00  0.00    +0.000 C 
ENDBRANCH  21  25
BRANCH  21  26
ATOM     26  C   UNL     1       0.836  10.780  19.474  0.00  0.00    +0.000 C 
ATOM     27  C   UNL     1       0.967   9.649  18.465  0.00  0.00    +0.000 C 
ENDBRANCH  21  26
ENDBRANCH  20  22
ENDBRANCH   1  20
TORSDOF 5
ENDMDL
MODEL 6
REMARK VINA RESULT:      -5.7      3.279      5.334
REMARK  Name = 
REMARK  7 active torsions:
REMARK  status: ('A' for Active; 'I' for Inactive)
REMARK    1  A    between atoms: C_1  and  C_2
REMARK    2  A    between atoms: C_2  and  N_3
REMARK    3  A    between atoms: N_3  and  C_4
REMARK    4  A    between atoms: C_4  and  C_5
REMARK    5  A    between atoms: C_6  and  O_8
REMARK    6  A    between atoms: O_8  and  C_9
REMARK    7  A    between atoms: C_10  and  C_11
REMARK                            x       y       z     vdW  Elec       q    Type
REMARK                         _______ _______ _______ _____ _____    ______ ____
ROOT
ATOM      1  C   UNL     1      -1.334  12.653  22.660  0.00  0.00    +0.000 C 
ATOM      2  C   UNL     1      -0.681  13.838  22.643  0.00  0.00    +0.000 C 
ATOM      3  O   UNL     1       0.667  13.955  22.336  0.00  0.00    +0.000 OA
ATOM      4  C   UNL     1       1.020  13.535  21.083  0.00  0.00    +0.000 A 
ATOM      5  C   UNL     1       1.636  14.468  20.252  0.00  0.00    +0.000 A 
ATOM      6  C   UNL     1       2.077  14.074  18.994  0.00  0.00    +0.000 A 
ATOM      7  C   UNL     1       1.931  12.744  18.638  0.00  0.00    +0.000 A 
ATOM      8  N   UNL     1       1.394  11.802  19.444  0.00  0.00    +0.000 NA
ATOM      9  C   UNL     1       0.912  12.219  20.648  0.00  0.00    +0.000 A 
ATOM     10  N   UNL     1       0.321  11.241  21.496  0.00  0.00    +0.000 N 
ATOM     11  C   UNL     1       0.631   9.893  21.446  0.00  0.00    +0.000 A 
ATOM     12  C   UNL     1      -0.045   9.232  22.444  0.00  0.00    +0.000 A 
ATOM     13  C   UNL     1      -0.860  10.187  23.085  0.00  0.00    +0.000 A 
ATOM     14  C   UNL     1      -0.648  11.416  22.478  0.00  0.00    +0.000 A 
ENDROOT
BRANCH   2  15
ATOM     15  C   UNL     1      -1.293  15.066  23.054  0.00  0.00    +0.000 A 
ATOM     16  C   UNL     1      -1.869  16.065  22.296  0.00  0.00    +0.000 A 
ATOM     17  C   UNL     1      -2.502  17.077  23.067  0.00  0.00    +0.000 A 
ATOM     18  C   UNL     1      -2.324  16.877  24.415  0.00  0.00    +0.000 A 
ATOM     19  S   UNL     1      -1.381  15.492  24.733  0.00  0.00    +0.000 S 
ENDBRANCH   2  15
BRANCH   1  20
ATOM     20  O   UNL     1      -2.690  12.510  23.039  0.00  0.00    +0.000 OA
BRANCH  20  22
ATOM     21  N   UNL     1      -4.708  13.481  22.433  0.00  0.00    +0.000 N 
ATOM     22  C   UNL     1      -3.583  12.766  22.017  0.00  0.00    +0.000 C 
ATOM     23  O   UNL     1      -3.423  12.401  20.855  0.00  0.00    +0.000 OA
BRANCH  21  25
ATOM     24  C   UNL     1      -6.836  12.487  21.542  0.00  0.00    +0.000 C 
ATOM     25  C   UNL     1      -5.828  13.627  21.498  0.00  0.00    +0.000 C 
ENDBRANCH  21  25
BRANCH  21  26
ATOM     26  C   UNL     1      -4.843  14.016  23.788  0.00  0.00    +0.000 C 
ATOM     27  C   UNL     1      -5.713  15.263  23.842  0.00  0.00    +0.000 C 
ENDBRANCH  21  26
ENDBRANCH  20  22
ENDBRANCH   1  20
TORSDOF 5
ENDMDL
MODEL 7
REMARK VINA RESULT:      -5.6      4.231      6.990
REMARK  Name = 
REMARK  7 active torsions:
REMARK  status: ('A' for Active; 'I' for Inactive)
REMARK    1  A    between atoms: C_1  and  C_2
REMARK    2  A    between atoms: C_2  and  N_3
REMARK    3  A    between atoms: N_3  and  C_4
REMARK    4  A    between atoms: C_4  and  C_5
REMARK    5  A    between atoms: C_6  and  O_8
REMARK    6  A    between atoms: O_8  and  C_9
REMARK    7  A    between atoms: C_10  and  C_11
REMARK                            x       y       z     vdW  Elec       q    Type
REMARK                         _______ _______ _______ _____ _____    ______ ____
ROOT
ATOM      1  C   UNL     1       1.267  12.458  19.033  0.00  0.00    +0.000 C 
ATOM      2  C   UNL     1       0.145  13.036  19.519  0.00  0.00    +0.000 C 
ATOM      3  O   UNL     1      -0.945  12.308  19.977  0.00  0.00    +0.000 OA
ATOM      4  C   UNL     1      -0.692  11.481  21.036  0.00  0.00    +0.000 A 
ATOM      5  C   UNL     1      -1.440  11.688  22.193  0.00  0.00    +0.000 A 
ATOM      6  C   UNL     1      -1.272  10.831  23.275  0.00  0.00    +0.000 A 
ATOM      7  C   UNL     1      -0.397   9.767  23.136  0.00  0.00    +0.000 A 
ATOM      8  N   UNL     1       0.297   9.504  22.008  0.00  0.00    +0.000 NA
ATOM      9  C   UNL     1       0.166  10.389  20.979  0.00  0.00    +0.000 A 
ATOM     10  N   UNL     1       0.912  10.137  19.794  0.00  0.00    +0.000 N 
ATOM     11  C   UNL     1       1.337   8.878  19.407  0.00  0.00    +0.000 A 
ATOM     12  C   UNL     1       1.956   8.962  18.182  0.00  0.00    +0.000 A 
ATOM     13  C   UNL     1       1.984  10.327  17.833  0.00  0.00    +0.000 A 
ATOM     14  C   UNL     1       1.362  11.048  18.843  0.00  0.00    +0.000 A 
ENDROOT
BRANCH   2  15
ATOM     15  C   UNL     1      -0.068  14.452  19.499  0.00  0.00    +0.000 A 
ATOM     16  C   UNL     1      -0.255  15.304  18.431  0.00  0.00    +0.000 A 
ATOM     17  C   UNL     1      -0.575  16.637  18.809  0.00  0.00    +0.000 A 
ATOM     18  C   UNL     1      -0.542  16.801  20.174  0.00  0.00    +0.000 A 
ATOM     19  S   UNL     1      -0.106  15.361  20.977  0.00  0.00    +0.000 S 
ENDBRANCH   2  15
BRANCH   1  20
ATOM     20  O   UNL     1       2.356  13.186  18.499  0.00  0.00    +0.000 OA
BRANCH  20  22
ATOM     21  N   UNL     1       3.749  14.991  18.930  0.00  0.00    +0.000 N 
ATOM     22  C   UNL     1       3.081  13.880  19.448  0.00  0.00    +0.000 C 
ATOM     23  O   UNL     1       3.147  13.560  20.632  0.00  0.00    +0.000 OA
BRANCH  21  25
ATOM     24  C   UNL     1       6.156  15.201  19.616  0.00  0.00    +0.000 C 
ATOM     25  C   UNL     1       4.721  15.682  19.782  0.00  0.00    +0.000 C 
ENDBRANCH  21  25
BRANCH  21  26
ATOM     26  C   UNL     1       3.575  15.438  17.547  0.00  0.00    +0.000 C 
ATOM     27  C   UNL     1       2.994  16.840  17.454  0.00  0.00    +0.000 C 
ENDBRANCH  21  26
ENDBRANCH  20  22
ENDBRANCH   1  20
TORSDOF 5
ENDMDL
MODEL 8
REMARK VINA RESULT:      -5.6      3.114      5.358
REMARK  Name = 
REMARK  7 active torsions:
REMARK  status: ('A' for Active; 'I' for Inactive)
REMARK    1  A    between atoms: C_1  and  C_2
REMARK    2  A    between atoms: C_2  and  N_3
REMARK    3  A    between atoms: N_3  and  C_4
REMARK    4  A    between atoms: C_4  and  C_5
REMARK    5  A    between atoms: C_6  and  O_8
REMARK    6  A    between atoms: O_8  and  C_9
REMARK    7  A    between atoms: C_10  and  C_11
REMARK                            x       y       z     vdW  Elec       q    Type
REMARK                         _______ _______ _______ _____ _____    ______ ____
ROOT
ATOM      1  C   UNL     1      -0.737  11.430  19.801  0.00  0.00    +0.000 C 
ATOM      2  C   UNL     1      -0.606  12.113  20.961  0.00  0.00    +0.000 C 
ATOM      3  O   UNL     1       0.624  12.412  21.530  0.00  0.00    +0.000 OA
ATOM      4  C   UNL     1       1.448  13.191  20.765  0.00  0.00    +0.000 A 
ATOM      5  C   UNL     1       1.871  14.398  21.318  0.00  0.00    +0.000 A 
ATOM      6  C   UNL     1       2.764  15.195  20.611  0.00  0.00    +0.000 A 
ATOM      7  C   UNL     1       3.242  14.725  19.400  0.00  0.00    +0.000 A 
ATOM      8  N   UNL     1       2.898  13.533  18.865  0.00  0.00    +0.000 NA
ATOM      9  C   UNL     1       1.975  12.793  19.542  0.00  0.00    +0.000 A 
ATOM     10  N   UNL     1       1.586  11.547  18.977  0.00  0.00    +0.000 N 
ATOM     11  C   UNL     1       2.386  10.810  18.120  0.00  0.00    +0.000 A 
ATOM     12  C   UNL     1       1.758   9.623  17.820  0.00  0.00    +0.000 A 
ATOM     13  C   UNL     1       0.497   9.659  18.448  0.00  0.00    +0.000 A 
ATOM     14  C   UNL     1       0.388  10.858  19.137  0.00  0.00    +0.000 A 
ENDROOT
BRANCH   2  15
ATOM     15  C   UNL     1      -1.728  12.492  21.768  0.00  0.00    +0.000 A 
ATOM     16  C   UNL     1      -2.226  11.914  22.917  0.00  0.00    +0.000 A 
ATOM     17  C   UNL     1      -3.279  12.655  23.520  0.00  0.00    +0.000 A 
ATOM     18  C   UNL     1      -3.627  13.751  22.768  0.00  0.00    +0.000 A 
ATOM     19  S   UNL     1      -2.702  13.862  21.339  0.00  0.00    +0.000 S 
ENDBRANCH   2  15
BRANCH   1  20
ATOM     20  O   UNL     1      -1.984  11.058  19.246  0.00  0.00    +0.000 OA
BRANCH  20  22
ATOM     21  N   UNL     1      -3.331  11.027  17.357  0.00  0.00    +0.000 N 
ATOM     22  C   UNL     1      -2.202  11.563  17.979  0.00  0.00    +0.000 C 
ATOM     23  O   UNL     1      -1.478  12.394  17.436  0.00  0.00    +0.000 OA
BRANCH  21  25
ATOM     24  C   UNL     1      -2.958  10.281  14.988  0.00  0.00    +0.000 C 
ATOM     25  C   UNL     1      -3.549  11.315  15.936  0.00  0.00    +0.000 C 
ENDBRANCH  21  25
BRANCH  21  26
ATOM     26  C   UNL     1      -4.256  10.127  18.047  0.00  0.00    +0.000 C 
ATOM     27  C   UNL     1      -5.612  10.766  18.305  0.00  0.00    +0.000 C 
ENDBRANCH  21  26
ENDBRANCH  20  22
ENDBRANCH   1  20
TORSDOF 5
ENDMDL
MODEL 9
REMARK VINA RESULT:      -5.6      3.141      5.430
REMARK  Name = 
REMARK  7 active torsions:
REMARK  status: ('A' for Active; 'I' for Inactive)
REMARK    1  A    between atoms: C_1  and  C_2
REMARK    2  A    between atoms: C_2  and  N_3
REMARK    3  A    between atoms: N_3  and  C_4
REMARK    4  A    between atoms: C_4  and  C_5
REMARK    5  A    between atoms: C_6  and  O_8
REMARK    6  A    between atoms: O_8  and  C_9
REMARK    7  A    between atoms: C_10  and  C_11
REMARK                            x       y       z     vdW  Elec       q    Type
REMARK                         _______ _______ _______ _____ _____    ______ ____
ROOT
ATOM      1  C   UNL     1      -1.100  12.432  22.496  0.00  0.00    +0.000 C 
ATOM      2  C   UNL     1      -0.460  13.623  22.546  0.00  0.00    +0.000 C 
ATOM      3  O   UNL     1       0.875  13.781  22.201  0.00  0.00    +0.000 OA
ATOM      4  C   UNL     1       1.187  13.460  20.909  0.00  0.00    +0.000 A 
ATOM      5  C   UNL     1       1.762  14.461  20.129  0.00  0.00    +0.000 A 
ATOM      6  C   UNL     1       2.162  14.166  18.830  0.00  0.00    +0.000 A 
ATOM      7  C   UNL     1       2.018  12.865  18.381  0.00  0.00    +0.000 A 
ATOM      8  N   UNL     1       1.520  11.859  19.132  0.00  0.00    +0.000 NA
ATOM      9  C   UNL     1       1.077  12.178  20.381  0.00  0.00    +0.000 A 
ATOM     10  N   UNL     1       0.527  11.132  21.173  0.00  0.00    +0.000 N 
ATOM     11  C   UNL     1       0.849   9.796  21.011  0.00  0.00    +0.000 A 
ATOM     12  C   UNL     1       0.216   9.054  21.980  0.00  0.00    +0.000 A 
ATOM     13  C   UNL     1      -0.585   9.947  22.719  0.00  0.00    +0.000 A 
ATOM     14  C   UNL     1      -0.408  11.221  22.199  0.00  0.00    +0.000 A 
ENDROOT
BRANCH   2  15
ATOM     15  C   UNL     1      -1.070  14.809  23.068  0.00  0.00    +0.000 A 
ATOM     16  C   UNL     1      -1.267  15.201  24.376  0.00  0.00    +0.000 A 
ATOM     17  C   UNL     1      -1.788  16.517  24.508  0.00  0.00    +0.000 A 
ATOM     18  C   UNL     1      -2.063  17.082  23.285  0.00  0.00    +0.000 A 
ATOM     19  S   UNL     1      -1.713  16.016  22.000  0.00  0.00    +0.000 S 
ENDBRANCH   2  15
BRANCH   1  20
ATOM     20  O   UNL     1      -2.439  12.244  22.911  0.00  0.00    +0.000 OA
BRANCH  20  22
ATOM     21  N   UNL     1      -4.493  13.257  22.536  0.00  0.00    +0.000 N 
ATOM     22  C   UNL     1      -3.373  12.641  21.974  0.00  0.00    +0.000 C 
ATOM     23  O   UNL     1      -3.250  12.469  20.764  0.00  0.00    +0.000 OA
BRANCH  21  25
ATOM     24  C   UNL     1      -6.607  12.355  21.524  0.00  0.00    +0.000 C 
ATOM     25  C   UNL     1      -5.648  13.527  21.675  0.00  0.00    +0.000 C 
ENDBRANCH  21  25
BRANCH  21  26
ATOM     26  C   UNL     1      -4.586  13.566  23.964  0.00  0.00    +0.000 C 
ATOM     27  C   UNL     1      -4.953  12.352  24.803  0.00  0.00    +0.000 C 
ENDBRANCH  21  26
ENDBRANCH  20  22
ENDBRANCH   1  20
TORSDOF 5
ENDMDL
