MODEL 1
REMARK VINA RESULT:      -7.6      0.000      0.000
REMARK  Name = 
REMARK  8 active torsions:
REMARK  status: ('A' for Active; 'I' for Inactive)
REMARK    1  A    between atoms: C_2  and  C_3
REMARK    2  A    between atoms: C_3  and  O_4
REMARK    3  A    between atoms: O_4  and  N_5
REMARK    4  A    between atoms: C_6  and  C_7
REMARK    5  A    between atoms: C_7  and  O_8
REMARK    6  A    between atoms: O_8  and  C_9
REMARK    7  A    between atoms: C_12  and  C_13
REMARK    8  A    between atoms: C_13  and  C_14
REMARK                            x       y       z     vdW  Elec       q    Type
REMARK                         _______ _______ _______ _____ _____    ______ ____
ROOT
ATOM      1  C   UNL     1       6.022   4.985  16.126  0.00  0.00    +0.000 A 
ATOM      2  C   UNL     1       5.666   6.287  16.476  0.00  0.00    +0.000 A 
ATOM      3  C   UNL     1       4.475   6.530  17.162  0.00  0.00    +0.000 A 
ATOM      4  C   UNL     1       3.616   5.475  17.495  0.00  0.00    +0.000 A 
ATOM      5  C   UNL     1       3.942   4.180  17.073  0.00  0.00    +0.000 A 
ATOM      6  C   UNL     1       5.139   3.939  16.390  0.00  0.00    +0.000 A 
ENDROOT
BRANCH   1   7
ATOM      7  O   UNL     1       7.208   4.630  15.537  0.00  0.00    +0.000 OA
BRANCH   7   8
ATOM      8  C   UNL     1       7.274   4.898  14.141  0.00  0.00    +0.000 C 
BRANCH   8  10
ATOM      9  N   UNL     1       6.593   3.636  12.180  0.00  0.00    +0.000 NA
ATOM     10  C   UNL     1       6.389   3.916  13.426  0.00  0.00    +0.000 C 
BRANCH   9  11
ATOM     11  O   UNL     1       5.675   2.651  11.783  0.00  0.00    +0.000 OA
BRANCH  11  12
ATOM     12  C   UNL     1       4.364   3.221  11.799  0.00  0.00    +0.000 C 
BRANCH  12  14
ATOM     13  C   UNL     1       2.887   3.746   9.836  0.00  0.00    +0.000 C 
ATOM     14  C   UNL     1       4.084   3.774  10.437  0.00  0.00    +0.000 C 
ENDBRANCH  12  14
ENDBRANCH  11  12
ENDBRANCH   9  11
ENDBRANCH   8  10
ENDBRANCH   7   8
ENDBRANCH   1   7
BRANCH   4  15
ATOM     15  C   UNL     1       2.381   5.738  18.322  0.00  0.00    +0.000 C 
BRANCH  15  16
ATOM     16  C   UNL     1       2.058   4.676  19.345  0.00  0.00    +0.000 A 
ATOM     17  C   UNL     1       2.546   4.783  20.655  0.00  0.00    +0.000 A 
ATOM     18  C   UNL     1       2.194   3.839  21.621  0.00  0.00    +0.000 A 
ATOM     19  C   UNL     1       1.360   2.773  21.285  0.00  0.00    +0.000 A 
ATOM     20  C   UNL     1       0.892   2.641  19.979  0.00  0.00    +0.000 A 
ATOM     21  C   UNL     1       1.242   3.586  19.013  0.00  0.00    +0.000 A 
ENDBRANCH  15  16
ENDBRANCH   4  15
TORSDOF 8
ENDMDL
MODEL 2
REMARK VINA RESULT:      -7.3      4.374      6.641
REMARK  Name = 
REMARK  8 active torsions:
REMARK  status: ('A' for Active; 'I' for Inactive)
REMARK    1  A    between atoms: C_2  and  C_3
REMARK    2  A    between atoms: C_3  and  O_4
REMARK    3  A    between atoms: O_4  and  N_5
REMARK    4  A    between atoms: C_6  and  C_7
REMARK    5  A    between atoms: C_7  and  O_8
REMARK    6  A    between atoms: O_8  and  C_9
REMARK    7  A    between atoms: C_12  and  C_13
REMARK    8  A    between atoms: C_13  and  C_14
REMARK                            x       y       z     vdW  Elec       q    Type
REMARK                         _______ _______ _______ _____ _____    ______ ____
ROOT
ATOM      1  C   UNL     1       6.463   6.178  17.216  0.00  0.00    +0.000 A 
ATOM      2  C   UNL     1       6.256   5.656  18.493  0.00  0.00    +0.000 A 
ATOM      3  C   UNL     1       5.401   4.568  18.677  0.00  0.00    +0.000 A 
ATOM      4  C   UNL     1       4.727   3.998  17.590  0.00  0.00    +0.000 A 
ATOM      5  C   UNL     1       4.880   4.576  16.324  0.00  0.00    +0.000 A 
ATOM      6  C   UNL     1       5.742   5.662  16.140  0.00  0.00    +0.000 A 
ENDROOT
BRANCH   1   7
ATOM      7  O   UNL     1       7.350   7.179  16.915  0.00  0.00    +0.000 OA
BRANCH   7   8
ATOM      8  C   UNL     1       7.996   7.752  18.047  0.00  0.00    +0.000 C 
BRANCH   8  10
ATOM      9  N   UNL     1       9.009   9.914  18.492  0.00  0.00    +0.000 NA
ATOM     10  C   UNL     1       8.154   9.227  17.808  0.00  0.00    +0.000 C 
BRANCH   9  11
ATOM     11  O   UNL     1       9.000  11.238  18.027  0.00  0.00    +0.000 OA
BRANCH  11  12
ATOM     12  C   UNL     1      10.341  11.733  18.046  0.00  0.00    +0.000 C 
BRANCH  12  14
ATOM     13  C   UNL     1      12.100  11.800  19.839  0.00  0.00    +0.000 C 
ATOM     14  C   UNL     1      10.815  11.730  19.465  0.00  0.00    +0.000 C 
ENDBRANCH  12  14
ENDBRANCH  11  12
ENDBRANCH   9  11
ENDBRANCH   8  10
ENDBRANCH   7   8
ENDBRANCH   1   7
BRANCH   4  15
ATOM     15  C   UNL     1       3.883   2.762  17.787  0.00  0.00    +0.000 C 
BRANCH  15  16
ATOM     16  C   UNL     1       2.958   2.802  18.979  0.00  0.00    +0.000 A 
ATOM     17  C   UNL     1       3.453   2.553  20.268  0.00  0.00    +0.000 A 
ATOM     18  C   UNL     1       2.614   2.655  21.379  0.00  0.00    +0.000 A 
ATOM     19  C   UNL     1       1.272   2.995  21.214  0.00  0.00    +0.000 A 
ATOM     20  C   UNL     1       0.763   3.217  19.935  0.00  0.00    +0.000 A 
ATOM     21  C   UNL     1       1.601   3.117  18.823  0.00  0.00    +0.000 A 
ENDBRANCH  15  16
ENDBRANCH   4  15
TORSDOF 8
ENDMDL
MODEL 3
REMARK VINA RESULT:      -7.3      0.424      1.132
REMARK  Name = 
REMARK  8 active torsions:
REMARK  status: ('A' for Active; 'I' for Inactive)
REMARK    1  A    between atoms: C_2  and  C_3
REMARK    2  A    between atoms: C_3  and  O_4
REMARK    3  A    between atoms: O_4  and  N_5
REMARK    4  A    between atoms: C_6  and  C_7
REMARK    5  A    between atoms: C_7  and  O_8
REMARK    6  A    between atoms: O_8  and  C_9
REMARK    7  A    between atoms: C_12  and  C_13
REMARK    8  A    between atoms: C_13  and  C_14
REMARK                            x       y       z     vdW  Elec       q    Type
REMARK                         _______ _______ _______ _____ _____    ______ ____
ROOT
ATOM      1  C   UNL     1       5.880   4.747  15.892  0.00  0.00    +0.000 A 
ATOM      2  C   UNL     1       5.484   6.083  15.954  0.00  0.00    +0.000 A 
ATOM      3  C   UNL     1       4.410   6.461  16.761  0.00  0.00    +0.000 A 
ATOM      4  C   UNL     1       3.705   5.506  17.504  0.00  0.00    +0.000 A 
ATOM      5  C   UNL     1       4.058   4.157  17.376  0.00  0.00    +0.000 A 
ATOM      6  C   UNL     1       5.139   3.781  16.572  0.00  0.00    +0.000 A 
ENDROOT
BRANCH   1   7
ATOM      7  O   UNL     1       6.975   4.287  15.207  0.00  0.00    +0.000 OA
BRANCH   7   8
ATOM      8  C   UNL     1       7.339   5.077  14.081  0.00  0.00    +0.000 C 
BRANCH   8  10
ATOM      9  N   UNL     1       6.034   3.382  12.931  0.00  0.00    +0.000 NA
ATOM     10  C   UNL     1       6.812   4.410  12.841  0.00  0.00    +0.000 C 
BRANCH   9  11
ATOM     11  O   UNL     1       5.639   3.001  11.639  0.00  0.00    +0.000 OA
BRANCH  11  12
ATOM     12  C   UNL     1       4.211   3.028  11.576  0.00  0.00    +0.000 C 
BRANCH  12  14
ATOM     13  C   UNL     1       2.848   3.784   9.606  0.00  0.00    +0.000 C 
ATOM     14  C   UNL     1       3.813   4.000  10.510  0.00  0.00    +0.000 C 
ENDBRANCH  12  14
ENDBRANCH  11  12
ENDBRANCH   9  11
ENDBRANCH   8  10
ENDBRANCH   7   8
ENDBRANCH   1   7
BRANCH   4  15
ATOM     15  C   UNL     1       2.609   5.940  18.447  0.00  0.00    +0.000 C 
BRANCH  15  16
ATOM     16  C   UNL     1       2.089   4.860  19.364  0.00  0.00    +0.000 A 
ATOM     17  C   UNL     1       1.229   3.867  18.872  0.00  0.00    +0.000 A 
ATOM     18  C   UNL     1       0.800   2.829  19.701  0.00  0.00    +0.000 A 
ATOM     19  C   UNL     1       1.215   2.779  21.031  0.00  0.00    +0.000 A 
ATOM     20  C   UNL     1       2.047   3.776  21.538  0.00  0.00    +0.000 A 
ATOM     21  C   UNL     1       2.478   4.814  20.710  0.00  0.00    +0.000 A 
ENDBRANCH  15  16
ENDBRANCH   4  15
TORSDOF 8
ENDMDL
MODEL 4
REMARK VINA RESULT:      -7.2      0.938      1.291
REMARK  Name = 
REMARK  8 active torsions:
REMARK  status: ('A' for Active; 'I' for Inactive)
REMARK    1  A    between atoms: C_2  and  C_3
REMARK    2  A    between atoms: C_3  and  O_4
REMARK    3  A    between atoms: O_4  and  N_5
REMARK    4  A    between atoms: C_6  and  C_7
REMARK    5  A    between atoms: C_7  and  O_8
REMARK    6  A    between atoms: O_8  and  C_9
REMARK    7  A    between atoms: C_12  and  C_13
REMARK    8  A    between atoms: C_13  and  C_14
REMARK                            x       y       z     vdW  Elec       q    Type
REMARK                         _______ _______ _______ _____ _____    ______ ____
ROOT
ATOM      1  C   UNL     1       6.595   4.910  16.050  0.00  0.00    +0.000 A 
ATOM      2  C   UNL     1       6.663   4.477  17.375  0.00  0.00    +0.000 A 
ATOM      3  C   UNL     1       5.699   4.886  18.298  0.00  0.00    +0.000 A 
ATOM      4  C   UNL     1       4.663   5.747  17.915  0.00  0.00    +0.000 A 
ATOM      5  C   UNL     1       4.646   6.239  16.603  0.00  0.00    +0.000 A 
ATOM      6  C   UNL     1       5.609   5.823  15.678  0.00  0.00    +0.000 A 
ENDROOT
BRANCH   1   7
ATOM      7  O   UNL     1       7.433   4.494  15.048  0.00  0.00    +0.000 OA
BRANCH   7   8
ATOM      8  C   UNL     1       7.339   5.256  13.849  0.00  0.00    +0.000 C 
BRANCH   8  10
ATOM      9  N   UNL     1       6.604   3.186  12.812  0.00  0.00    +0.000 NA
ATOM     10  C   UNL     1       6.529   4.476  12.852  0.00  0.00    +0.000 C 
BRANCH   9  11
ATOM     11  O   UNL     1       5.704   2.712  11.845  0.00  0.00    +0.000 OA
BRANCH  11  12
ATOM     12  C   UNL     1       4.563   3.572  11.829  0.00  0.00    +0.000 C 
BRANCH  12  14
ATOM     13  C   UNL     1       3.053   3.841   9.839  0.00  0.00    +0.000 C 
ATOM     14  C   UNL     1       3.622   3.073  10.777  0.00  0.00    +0.000 C 
ENDBRANCH  12  14
ENDBRANCH  11  12
ENDBRANCH   9  11
ENDBRANCH   8  10
ENDBRANCH   7   8
ENDBRANCH   1   7
BRANCH   4  15
ATOM     15  C   UNL     1       3.573   6.102  18.896  0.00  0.00    +0.000 C 
BRANCH  15  16
ATOM     16  C   UNL     1       2.615   4.983  19.222  0.00  0.00    +0.000 A 
ATOM     17  C   UNL     1       2.215   4.757  20.548  0.00  0.00    +0.000 A 
ATOM     18  C   UNL     1       1.278   3.767  20.844  0.00  0.00    +0.000 A 
ATOM     19  C   UNL     1       0.740   2.985  19.824  0.00  0.00    +0.000 A 
ATOM     20  C   UNL     1       1.151   3.181  18.506  0.00  0.00    +0.000 A 
ATOM     21  C   UNL     1       2.087   4.173  18.208  0.00  0.00    +0.000 A 
ENDBRANCH  15  16
ENDBRANCH   4  15
TORSDOF 8
ENDMDL
MODEL 5
REMARK VINA RESULT:      -7.2      4.338      6.723
REMARK  Name = 
REMARK  8 active torsions:
REMARK  status: ('A' for Active; 'I' for Inactive)
REMARK    1  A    between atoms: C_2  and  C_3
REMARK    2  A    between atoms: C_3  and  O_4
REMARK    3  A    between atoms: O_4  and  N_5
REMARK    4  A    between atoms: C_6  and  C_7
REMARK    5  A    between atoms: C_7  and  O_8
REMARK    6  A    between atoms: O_8  and  C_9
REMARK    7  A    between atoms: C_12  and  C_13
REMARK    8  A    between atoms: C_13  and  C_14
REMARK                            x       y       z     vdW  Elec       q    Type
REMARK                         _______ _______ _______ _____ _____    ______ ____
ROOT
ATOM      1  C   UNL     1       6.023   6.501  16.752  0.00  0.00    +0.000 A 
ATOM      2  C   UNL     1       4.832   6.783  17.422  0.00  0.00    +0.000 A 
ATOM      3  C   UNL     1       3.850   5.800  17.554  0.00  0.00    +0.000 A 
ATOM      4  C   UNL     1       4.038   4.525  17.005  0.00  0.00    +0.000 A 
ATOM      5  C   UNL     1       5.202   4.273  16.268  0.00  0.00    +0.000 A 
ATOM      6  C   UNL     1       6.188   5.258  16.142  0.00  0.00    +0.000 A 
ENDROOT
BRANCH   1   7
ATOM      7  O   UNL     1       7.084   7.362  16.649  0.00  0.00    +0.000 OA
BRANCH   7   8
ATOM      8  C   UNL     1       7.843   7.506  17.844  0.00  0.00    +0.000 C 
BRANCH   8  10
ATOM      9  N   UNL     1       8.981   9.341  18.958  0.00  0.00    +0.000 NA
ATOM     10  C   UNL     1       8.161   8.963  18.033  0.00  0.00    +0.000 C 
BRANCH   9  11
ATOM     11  O   UNL     1       9.149  10.731  18.872  0.00  0.00    +0.000 OA
BRANCH  11  12
ATOM     12  C   UNL     1       9.377  11.241  20.188  0.00  0.00    +0.000 C 
BRANCH  12  14
ATOM     13  C   UNL     1      10.962  13.191  20.232  0.00  0.00    +0.000 C 
ATOM     14  C   UNL     1       9.729  12.691  20.068  0.00  0.00    +0.000 C 
ENDBRANCH  12  14
ENDBRANCH  11  12
ENDBRANCH   9  11
ENDBRANCH   8  10
ENDBRANCH   7   8
ENDBRANCH   1   7
BRANCH   4  15
ATOM     15  C   UNL     1       3.013   3.442  17.240  0.00  0.00    +0.000 C 
BRANCH  15  16
ATOM     16  C   UNL     1       2.542   3.305  18.667  0.00  0.00    +0.000 A 
ATOM     17  C   UNL     1       3.379   2.737  19.638  0.00  0.00    +0.000 A 
ATOM     18  C   UNL     1       2.972   2.670  20.971  0.00  0.00    +0.000 A 
ATOM     19  C   UNL     1       1.722   3.159  21.346  0.00  0.00    +0.000 A 
ATOM     20  C   UNL     1       0.869   3.700  20.385  0.00  0.00    +0.000 A 
ATOM     21  C   UNL     1       1.276   3.769  19.051  0.00  0.00    +0.000 A 
ENDBRANCH  15  16
ENDBRANCH   4  15
TORSDOF 8
ENDMDL
MODEL 6
REMARK VINA RESULT:      -7.2      1.365      1.936
REMARK  Name = 
REMARK  8 active torsions:
REMARK  status: ('A' for Active; 'I' for Inactive)
REMARK    1  A    between atoms: C_2  and  C_3
REMARK    2  A    between atoms: C_3  and  O_4
REMARK    3  A    between atoms: O_4  and  N_5
REMARK    4  A    between atoms: C_6  and  C_7
REMARK    5  A    between atoms: C_7  and  O_8
REMARK    6  A    between atoms: O_8  and  C_9
REMARK    7  A    between atoms: C_12  and  C_13
REMARK    8  A    between atoms: C_13  and  C_14
REMARK                            x       y       z     vdW  Elec       q    Type
REMARK                         _______ _______ _______ _____ _____    ______ ____
ROOT
ATOM      1  C   UNL     1       5.971   5.865  16.495  0.00  0.00    +0.000 A 
ATOM      2  C   UNL     1       5.004   6.869  16.417  0.00  0.00    +0.000 A 
ATOM      3  C   UNL     1       3.993   6.947  17.375  0.00  0.00    +0.000 A 
ATOM      4  C   UNL     1       3.922   6.012  18.416  0.00  0.00    +0.000 A 
ATOM      5  C   UNL     1       4.849   4.963  18.444  0.00  0.00    +0.000 A 
ATOM      6  C   UNL     1       5.867   4.890  17.486  0.00  0.00    +0.000 A 
ENDROOT
BRANCH   1   7
ATOM      7  O   UNL     1       7.055   5.758  15.663  0.00  0.00    +0.000 OA
BRANCH   7   8
ATOM      8  C   UNL     1       7.263   4.453  15.134  0.00  0.00    +0.000 C 
BRANCH   8  10
ATOM      9  N   UNL     1       6.149   3.362  13.271  0.00  0.00    +0.000 NA
ATOM     10  C   UNL     1       6.734   4.420  13.727  0.00  0.00    +0.000 C 
BRANCH   9  11
ATOM     11  O   UNL     1       5.697   3.622  11.968  0.00  0.00    +0.000 OA
BRANCH  11  12
ATOM     12  C   UNL     1       5.172   2.410  11.421  0.00  0.00    +0.000 C 
BRANCH  12  14
ATOM     13  C   UNL     1       6.192   0.117  11.314  0.00  0.00    +0.000 C 
ATOM     14  C   UNL     1       6.307   1.450  11.249  0.00  0.00    +0.000 C 
ENDBRANCH  12  14
ENDBRANCH  11  12
ENDBRANCH   9  11
ENDBRANCH   8  10
ENDBRANCH   7   8
ENDBRANCH   1   7
BRANCH   4  15
ATOM     15  C   UNL     1       2.883   6.165  19.500  0.00  0.00    +0.000 C 
BRANCH  15  16
ATOM     16  C   UNL     1       2.218   4.882  19.934  0.00  0.00    +0.000 A 
ATOM     17  C   UNL     1       1.400   4.171  19.044  0.00  0.00    +0.000 A 
ATOM     18  C   UNL     1       0.838   2.951  19.420  0.00  0.00    +0.000 A 
ATOM     19  C   UNL     1       1.077   2.433  20.692  0.00  0.00    +0.000 A 
ATOM     20  C   UNL     1       1.866   3.144  21.595  0.00  0.00    +0.000 A 
ATOM     21  C   UNL     1       2.430   4.364  21.220  0.00  0.00    +0.000 A 
ENDBRANCH  15  16
ENDBRANCH   4  15
TORSDOF 8
ENDMDL
MODEL 7
REMARK VINA RESULT:      -7.1      1.245      1.477
REMARK  Name = 
REMARK  8 active torsions:
REMARK  status: ('A' for Active; 'I' for Inactive)
REMARK    1  A    between atoms: C_2  and  C_3
REMARK    2  A    between atoms: C_3  and  O_4
REMARK    3  A    between atoms: O_4  and  N_5
REMARK    4  A    between atoms: C_6  and  C_7
REMARK    5  A    between atoms: C_7  and  O_8
REMARK    6  A    between atoms: O_8  and  C_9
REMARK    7  A    between atoms: C_12  and  C_13
REMARK    8  A    between atoms: C_13  and  C_14
REMARK                            x       y       z     vdW  Elec       q    Type
REMARK                         _______ _______ _______ _____ _____    ______ ____
ROOT
ATOM      1  C   UNL     1       6.699   4.878  16.277  0.00  0.00    +0.000 A 
ATOM      2  C   UNL     1       7.145   4.774  17.595  0.00  0.00    +0.000 A 
ATOM      3  C   UNL     1       6.283   5.064  18.653  0.00  0.00    +0.000 A 
ATOM      4  C   UNL     1       4.968   5.479  18.409  0.00  0.00    +0.000 A 
ATOM      5  C   UNL     1       4.551   5.656  17.084  0.00  0.00    +0.000 A 
ATOM      6  C   UNL     1       5.415   5.358  16.024  0.00  0.00    +0.000 A 
ENDROOT
BRANCH   1   7
ATOM      7  O   UNL     1       7.433   4.527  15.173  0.00  0.00    +0.000 OA
BRANCH   7   8
ATOM      8  C   UNL     1       6.892   4.984  13.938  0.00  0.00    +0.000 C 
BRANCH   8  10
ATOM      9  N   UNL     1       5.374   3.721  12.524  0.00  0.00    +0.000 NA
ATOM     10  C   UNL     1       6.525   3.786  13.108  0.00  0.00    +0.000 C 
BRANCH   9  11
ATOM     11  O   UNL     1       5.317   2.541  11.767  0.00  0.00    +0.000 OA
BRANCH  11  12
ATOM     12  C   UNL     1       4.061   2.499  11.087  0.00  0.00    +0.000 C 
BRANCH  12  14
ATOM     13  C   UNL     1       2.966   4.241   9.645  0.00  0.00    +0.000 C 
ATOM     14  C   UNL     1       3.685   3.901  10.723  0.00  0.00    +0.000 C 
ENDBRANCH  12  14
ENDBRANCH  11  12
ENDBRANCH   9  11
ENDBRANCH   8  10
ENDBRANCH   7   8
ENDBRANCH   1   7
BRANCH   4  15
ATOM     15  C   UNL     1       4.018   5.695  19.561  0.00  0.00    +0.000 C 
BRANCH  15  16
ATOM     16  C   UNL     1       2.995   4.603  19.761  0.00  0.00    +0.000 A 
ATOM     17  C   UNL     1       3.376   3.255  19.690  0.00  0.00    +0.000 A 
ATOM     18  C   UNL     1       2.447   2.244  19.941  0.00  0.00    +0.000 A 
ATOM     19  C   UNL     1       1.128   2.568  20.254  0.00  0.00    +0.000 A 
ATOM     20  C   UNL     1       0.732   3.903  20.300  0.00  0.00    +0.000 A 
ATOM     21  C   UNL     1       1.659   4.916  20.050  0.00  0.00    +0.000 A 
ENDBRANCH  15  16
ENDBRANCH   4  15
TORSDOF 8
ENDMDL
MODEL 8
REMARK VINA RESULT:      -7.1      4.412      6.863
REMARK  Name = 
REMARK  8 active torsions:
REMARK  status: ('A' for Active; 'I' for Inactive)
REMARK    1  A    between atoms: C_2  and  C_3
REMARK    2  A    between atoms: C_3  and  O_4
REMARK    3  A    between atoms: O_4  and  N_5
REMARK    4  A    between atoms: C_6  and  C_7
REMARK    5  A    between atoms: C_7  and  O_8
REMARK    6  A    between atoms: O_8  and  C_9
REMARK    7  A    between atoms: C_12  and  C_13
REMARK    8  A    between atoms: C_13  and  C_14
REMARK                            x       y       z     vdW  Elec       q    Type
REMARK                         _______ _______ _______ _____ _____    ______ ____
ROOT
ATOM      1  C   UNL     1       6.725   6.411  17.085  0.00  0.00    +0.000 A 
ATOM      2  C   UNL     1       6.871   5.023  17.097  0.00  0.00    +0.000 A 
ATOM      3  C   UNL     1       5.746   4.198  17.124  0.00  0.00    +0.000 A 
ATOM      4  C   UNL     1       4.458   4.747  17.157  0.00  0.00    +0.000 A 
ATOM      5  C   UNL     1       4.321   6.140  17.223  0.00  0.00    +0.000 A 
ATOM      6  C   UNL     1       5.450   6.965  17.189  0.00  0.00    +0.000 A 
ENDROOT
BRANCH   1   7
ATOM      7  O   UNL     1       7.757   7.305  16.964  0.00  0.00    +0.000 OA
BRANCH   7   8
ATOM      8  C   UNL     1       8.167   7.898  18.191  0.00  0.00    +0.000 C 
BRANCH   8  10
ATOM      9  N   UNL     1       9.013  10.088  18.816  0.00  0.00    +0.000 NA
ATOM     10  C   UNL     1       8.345   9.374  17.970  0.00  0.00    +0.000 C 
BRANCH   9  11
ATOM     11  O   UNL     1       9.081  11.406  18.339  0.00  0.00    +0.000 OA
BRANCH  11  12
ATOM     12  C   UNL     1       9.459  12.259  19.422  0.00  0.00    +0.000 C 
BRANCH  12  14
ATOM     13  C   UNL     1      11.923  11.965  19.814  0.00  0.00    +0.000 C 
ATOM     14  C   UNL     1      10.651  11.653  20.095  0.00  0.00    +0.000 C 
ENDBRANCH  12  14
ENDBRANCH  11  12
ENDBRANCH   9  11
ENDBRANCH   8  10
ENDBRANCH   7   8
ENDBRANCH   1   7
BRANCH   4  15
ATOM     15  C   UNL     1       3.250   3.846  17.086  0.00  0.00    +0.000 C 
BRANCH  15  16
ATOM     16  C   UNL     1       2.525   3.644  18.394  0.00  0.00    +0.000 A 
ATOM     17  C   UNL     1       1.354   2.873  18.443  0.00  0.00    +0.000 A 
ATOM     18  C   UNL     1       0.719   2.628  19.662  0.00  0.00    +0.000 A 
ATOM     19  C   UNL     1       1.239   3.159  20.841  0.00  0.00    +0.000 A 
ATOM     20  C   UNL     1       2.386   3.951  20.801  0.00  0.00    +0.000 A 
ATOM     21  C   UNL     1       3.023   4.196  19.583  0.00  0.00    +0.000 A 
ENDBRANCH  15  16
ENDBRANCH   4  15
TORSDOF 8
ENDMDL
MODEL 9
REMARK VINA RESULT:      -7.1      4.645      6.765
REMARK  Name = 
REMARK  8 active torsions:
REMARK  status: ('A' for Active; 'I' for Inactive)
REMARK    1  A    between atoms: C_2  and  C_3
REMARK    2  A    between atoms: C_3  and  O_4
REMARK    3  A    between atoms: O_4  and  N_5
REMARK    4  A    between atoms: C_6  and  C_7
REMARK    5  A    between atoms: C_7  and  O_8
REMARK    6  A    between atoms: O_8  and  C_9
REMARK    7  A    between atoms: C_12  and  C_13
REMARK    8  A    between atoms: C_13  and  C_14
REMARK                            x       y       z     vdW  Elec       q    Type
REMARK                         _______ _______ _______ _____ _____    ______ ____
ROOT
ATOM      1  C   UNL     1       7.001   6.597  17.800  0.00  0.00    +0.000 A 
ATOM      2  C   UNL     1       5.964   7.006  16.961  0.00  0.00    +0.000 A 
ATOM      3  C   UNL     1       4.948   6.116  16.614  0.00  0.00    +0.000 A 
ATOM      4  C   UNL     1       4.962   4.797  17.085  0.00  0.00    +0.000 A 
ATOM      5  C   UNL     1       6.046   4.371  17.863  0.00  0.00    +0.000 A 
ATOM      6  C   UNL     1       7.061   5.267  18.216  0.00  0.00    +0.000 A 
ENDROOT
BRANCH   1   7
ATOM      7  O   UNL     1       7.992   7.416  18.276  0.00  0.00    +0.000 OA
BRANCH   7   8
ATOM      8  C   UNL     1       7.962   8.739  17.754  0.00  0.00    +0.000 C 
BRANCH   8  10
ATOM      9  N   UNL     1       9.274  10.736  18.191  0.00  0.00    +0.000 NA
ATOM     10  C   UNL     1       8.801   9.619  18.638  0.00  0.00    +0.000 C 
BRANCH   9  11
ATOM     11  O   UNL     1       9.957  11.384  19.232  0.00  0.00    +0.000 OA
BRANCH  11  12
ATOM     12  C   UNL     1      11.296  11.642  18.802  0.00  0.00    +0.000 C 
BRANCH  12  14
ATOM     13  C   UNL     1      10.819  13.596  17.295  0.00  0.00    +0.000 C 
ATOM     14  C   UNL     1      11.231  12.333  17.476  0.00  0.00    +0.000 C 
ENDBRANCH  12  14
ENDBRANCH  11  12
ENDBRANCH   9  11
ENDBRANCH   8  10
ENDBRANCH   7   8
ENDBRANCH   1   7
BRANCH   4  15
ATOM     15  C   UNL     1       3.808   3.873  16.783  0.00  0.00    +0.000 C 
BRANCH  15  16
ATOM     16  C   UNL     1       2.849   3.650  17.927  0.00  0.00    +0.000 A 
ATOM     17  C   UNL     1       2.475   4.718  18.756  0.00  0.00    +0.000 A 
ATOM     18  C   UNL     1       1.537   4.530  19.772  0.00  0.00    +0.000 A 
ATOM     19  C   UNL     1       0.973   3.272  19.979  0.00  0.00    +0.000 A 
ATOM     20  C   UNL     1       1.358   2.197  19.180  0.00  0.00    +0.000 A 
ATOM     21  C   UNL     1       2.295   2.384  18.162  0.00  0.00    +0.000 A 
ENDBRANCH  15  16
ENDBRANCH   4  15
TORSDOF 8
ENDMDL
