MODEL 1
REMARK VINA RESULT:      -7.4      0.000      0.000
REMARK  Name = 
REMARK  7 active torsions:
REMARK  status: ('A' for Active; 'I' for Inactive)
REMARK    1  A    between atoms: C_1  and  O_2
REMARK    2  A    between atoms: O_2  and  C_3
REMARK    3  A    between atoms: C_7  and  C_8
REMARK    4  A    between atoms: N_13  and  C_14
REMARK    5  A    between atoms: C_14  and  C_15
REMARK    6  A    between atoms: C_15  and  C_16
REMARK    7  A    between atoms: C_16  and  C_17
REMARK                            x       y       z     vdW  Elec       q    Type
REMARK                         _______ _______ _______ _____ _____    ______ ____
ROOT
ATOM      1  C   UNL     1       3.070   7.076  17.810  0.00  0.00    +0.000 C 
ATOM      2  C   UNL     1       2.328   7.779  18.680  0.00  0.00    +0.000 C 
ATOM      3  S   UNL     1       1.850   7.300  20.260  0.00  0.00    +0.000 S 
ATOM      4  C   UNL     1       0.856   8.726  20.497  0.00  0.00    +0.000 C 
ATOM      5  S   UNL     1      -0.003   8.947  21.908  0.00  0.00    +0.000 S 
ATOM      6  N   UNL     1       0.920   9.535  19.376  0.00  0.00    +0.000 N 
ATOM      7  C   UNL     1       1.762   9.108  18.360  0.00  0.00    +0.000 C 
ATOM      8  O   UNL     1       2.025   9.719  17.327  0.00  0.00    +0.000 OA
ENDROOT
BRANCH   1  13
ATOM      9  C   UNL     1       3.080   3.366  18.359  0.00  0.00    +0.000 A 
ATOM     10  C   UNL     1       4.309   3.203  19.003  0.00  0.00    +0.000 A 
ATOM     11  C   UNL     1       5.168   4.287  19.190  0.00  0.00    +0.000 A 
ATOM     12  C   UNL     1       4.792   5.555  18.750  0.00  0.00    +0.000 A 
ATOM     13  C   UNL     1       3.559   5.729  18.116  0.00  0.00    +0.000 A 
ATOM     14  C   UNL     1       2.716   4.629  17.898  0.00  0.00    +0.000 A 
BRANCH   9  16
ATOM     15  C   UNL     1       0.989   2.308  18.779  0.00  0.00    +0.000 C 
ATOM     16  O   UNL     1       2.317   2.232  18.277  0.00  0.00    +0.000 OA
ENDBRANCH   9  16
ENDBRANCH   1  13
BRANCH   6  17
ATOM     17  C   UNL     1       0.287  10.850  19.262  0.00  0.00    +0.000 C 
BRANCH  17  18
ATOM     18  C   UNL     1      -0.976  10.875  18.383  0.00  0.00    +0.000 C 
BRANCH  18  19
ATOM     19  C   UNL     1      -2.151  11.665  18.965  0.00  0.00    +0.000 C 
BRANCH  19  20
ATOM     20  C   UNL     1      -3.376  11.620  18.069  0.00  0.00    +0.000 C 
ATOM     21  O   UNL     1      -3.276  11.290  16.888  0.00  0.00    +0.000 OA
ATOM     22  N   UNL     1      -4.596  11.931  18.642  0.00  0.00    +0.000 N 
ATOM     23  C   UNL     1      -5.801  11.817  17.823  0.00  0.00    +0.000 C 
ATOM     24  C   UNL     1      -6.525  13.156  17.736  0.00  0.00    +0.000 C 
ATOM     25  C   UNL     1      -6.794  13.724  19.129  0.00  0.00    +0.000 C 
ATOM     26  C   UNL     1      -5.503  13.797  19.947  0.00  0.00    +0.000 C 
ATOM     27  C   UNL     1      -4.810  12.435  19.998  0.00  0.00    +0.000 C 
ENDBRANCH  19  20
ENDBRANCH  18  19
ENDBRANCH  17  18
ENDBRANCH   6  17
TORSDOF 6
ENDMDL
MODEL 2
REMARK VINA RESULT:      -7.4      3.503      4.329
REMARK  Name = 
REMARK  7 active torsions:
REMARK  status: ('A' for Active; 'I' for Inactive)
REMARK    1  A    between atoms: C_1  and  O_2
REMARK    2  A    between atoms: O_2  and  C_3
REMARK    3  A    between atoms: C_7  and  C_8
REMARK    4  A    between atoms: N_13  and  C_14
REMARK    5  A    between atoms: C_14  and  C_15
REMARK    6  A    between atoms: C_15  and  C_16
REMARK    7  A    between atoms: C_16  and  C_17
REMARK                            x       y       z     vdW  Elec       q    Type
REMARK                         _______ _______ _______ _____ _____    ______ ____
ROOT
ATOM      1  C   UNL     1       1.292   8.188  21.344  0.00  0.00    +0.000 C 
ATOM      2  C   UNL     1       0.492   9.243  21.124  0.00  0.00    +0.000 C 
ATOM      3  S   UNL     1      -0.170   9.748  19.621  0.00  0.00    +0.000 S 
ATOM      4  C   UNL     1      -0.884  11.195  20.310  0.00  0.00    +0.000 C 
ATOM      5  S   UNL     1      -1.730  12.271  19.359  0.00  0.00    +0.000 S 
ATOM      6  N   UNL     1      -0.612  11.253  21.666  0.00  0.00    +0.000 N 
ATOM      7  C   UNL     1       0.089  10.180  22.196  0.00  0.00    +0.000 C 
ATOM      8  O   UNL     1       0.354   9.998  23.382  0.00  0.00    +0.000 OA
ENDROOT
BRANCH   1  13
ATOM      9  C   UNL     1       2.307   5.082  19.503  0.00  0.00    +0.000 A 
ATOM     10  C   UNL     1       2.907   5.637  18.370  0.00  0.00    +0.000 A 
ATOM     11  C   UNL     1       2.913   7.018  18.168  0.00  0.00    +0.000 A 
ATOM     12  C   UNL     1       2.335   7.861  19.115  0.00  0.00    +0.000 A 
ATOM     13  C   UNL     1       1.743   7.315  20.257  0.00  0.00    +0.000 A 
ATOM     14  C   UNL     1       1.706   5.924  20.436  0.00  0.00    +0.000 A 
BRANCH   9  16
ATOM     15  C   UNL     1       1.324   3.033  20.216  0.00  0.00    +0.000 C 
ATOM     16  O   UNL     1       2.406   3.720  19.599  0.00  0.00    +0.000 OA
ENDBRANCH   9  16
ENDBRANCH   1  13
BRANCH   6  17
ATOM     17  C   UNL     1      -1.130  12.276  22.576  0.00  0.00    +0.000 C 
BRANCH  17  18
ATOM     18  C   UNL     1      -2.502  11.948  23.189  0.00  0.00    +0.000 C 
BRANCH  18  19
ATOM     19  C   UNL     1      -3.245  13.146  23.785  0.00  0.00    +0.000 C 
BRANCH  19  20
ATOM     20  C   UNL     1      -4.622  12.770  24.303  0.00  0.00    +0.000 C 
ATOM     21  O   UNL     1      -4.750  12.213  25.393  0.00  0.00    +0.000 OA
ATOM     22  N   UNL     1      -5.712  13.109  23.522  0.00  0.00    +0.000 N 
ATOM     23  C   UNL     1      -7.052  12.832  24.034  0.00  0.00    +0.000 C 
ATOM     24  C   UNL     1      -7.811  11.904  23.092  0.00  0.00    +0.000 C 
ATOM     25  C   UNL     1      -7.812  12.453  21.667  0.00  0.00    +0.000 C 
ATOM     26  C   UNL     1      -6.387  12.746  21.193  0.00  0.00    +0.000 C 
ATOM     27  C   UNL     1      -5.665  13.672  22.172  0.00  0.00    +0.000 C 
ENDBRANCH  19  20
ENDBRANCH  18  19
ENDBRANCH  17  18
ENDBRANCH   6  17
TORSDOF 6
ENDMDL
MODEL 3
REMARK VINA RESULT:      -7.4      7.227      9.487
REMARK  Name = 
REMARK  7 active torsions:
REMARK  status: ('A' for Active; 'I' for Inactive)
REMARK    1  A    between atoms: C_1  and  O_2
REMARK    2  A    between atoms: O_2  and  C_3
REMARK    3  A    between atoms: C_7  and  C_8
REMARK    4  A    between atoms: N_13  and  C_14
REMARK    5  A    between atoms: C_14  and  C_15
REMARK    6  A    between atoms: C_15  and  C_16
REMARK    7  A    between atoms: C_16  and  C_17
REMARK                            x       y       z     vdW  Elec       q    Type
REMARK                         _______ _______ _______ _____ _____    ______ ____
ROOT
ATOM      1  C   UNL     1       3.820   5.451  17.158  0.00  0.00    +0.000 C 
ATOM      2  C   UNL     1       5.054   5.656  17.644  0.00  0.00    +0.000 C 
ATOM      3  S   UNL     1       5.811   4.821  18.941  0.00  0.00    +0.000 S 
ATOM      4  C   UNL     1       7.230   5.850  18.905  0.00  0.00    +0.000 C 
ATOM      5  S   UNL     1       8.479   5.627  19.986  0.00  0.00    +0.000 S 
ATOM      6  N   UNL     1       7.100   6.796  17.902  0.00  0.00    +0.000 N 
ATOM      7  C   UNL     1       5.954   6.710  17.125  0.00  0.00    +0.000 C 
ATOM      8  O   UNL     1       5.691   7.393  16.139  0.00  0.00    +0.000 OA
ENDROOT
BRANCH   1  13
ATOM      9  C   UNL     1       1.600   3.712  19.631  0.00  0.00    +0.000 A 
ATOM     10  C   UNL     1       1.470   2.459  19.026  0.00  0.00    +0.000 A 
ATOM     11  C   UNL     1       2.040   2.206  17.777  0.00  0.00    +0.000 A 
ATOM     12  C   UNL     1       2.768   3.203  17.131  0.00  0.00    +0.000 A 
ATOM     13  C   UNL     1       2.913   4.455  17.734  0.00  0.00    +0.000 A 
ATOM     14  C   UNL     1       2.306   4.715  18.972  0.00  0.00    +0.000 A 
BRANCH   9  16
ATOM     15  C   UNL     1       1.492   2.919  21.873  0.00  0.00    +0.000 C 
ATOM     16  O   UNL     1       1.029   3.814  20.871  0.00  0.00    +0.000 OA
ENDBRANCH   9  16
ENDBRANCH   1  13
BRANCH   6  17
ATOM     17  C   UNL     1       8.136   7.760  17.528  0.00  0.00    +0.000 C 
BRANCH  17  18
ATOM     18  C   UNL     1       7.898   9.186  18.054  0.00  0.00    +0.000 C 
BRANCH  18  19
ATOM     19  C   UNL     1       8.960   9.699  19.030  0.00  0.00    +0.000 C 
BRANCH  19  20
ATOM     20  C   UNL     1       9.536  11.037  18.604  0.00  0.00    +0.000 C 
ATOM     21  O   UNL     1      10.139  11.148  17.538  0.00  0.00    +0.000 OA
ATOM     22  N   UNL     1       9.326  12.118  19.442  0.00  0.00    +0.000 N 
ATOM     23  C   UNL     1       9.800  13.434  19.018  0.00  0.00    +0.000 C 
ATOM     24  C   UNL     1      10.793  14.002  20.026  0.00  0.00    +0.000 C 
ATOM     25  C   UNL     1      10.205  13.998  21.435  0.00  0.00    +0.000 C 
ATOM     26  C   UNL     1       9.705  12.603  21.815  0.00  0.00    +0.000 C 
ATOM     27  C   UNL     1       8.720  12.073  20.773  0.00  0.00    +0.000 C 
ENDBRANCH  19  20
ENDBRANCH  18  19
ENDBRANCH  17  18
ENDBRANCH   6  17
TORSDOF 6
ENDMDL
MODEL 4
REMARK VINA RESULT:      -7.4      2.835      3.668
REMARK  Name = 
REMARK  7 active torsions:
REMARK  status: ('A' for Active; 'I' for Inactive)
REMARK    1  A    between atoms: C_1  and  O_2
REMARK    2  A    between atoms: O_2  and  C_3
REMARK    3  A    between atoms: C_7  and  C_8
REMARK    4  A    between atoms: N_13  and  C_14
REMARK    5  A    between atoms: C_14  and  C_15
REMARK    6  A    between atoms: C_15  and  C_16
REMARK    7  A    between atoms: C_16  and  C_17
REMARK                            x       y       z     vdW  Elec       q    Type
REMARK                         _______ _______ _______ _____ _____    ______ ____
ROOT
ATOM      1  C   UNL     1       1.205   8.205  21.349  0.00  0.00    +0.000 C 
ATOM      2  C   UNL     1       0.504   9.313  21.064  0.00  0.00    +0.000 C 
ATOM      3  S   UNL     1       0.003   9.854  19.512  0.00  0.00    +0.000 S 
ATOM      4  C   UNL     1      -0.657  11.353  20.140  0.00  0.00    +0.000 C 
ATOM      5  S   UNL     1      -1.344  12.481  19.122  0.00  0.00    +0.000 S 
ATOM      6  N   UNL     1      -0.491  11.401  21.513  0.00  0.00    +0.000 N 
ATOM      7  C   UNL     1       0.084  10.284  22.099  0.00  0.00    +0.000 C 
ATOM      8  O   UNL     1       0.240  10.091  23.303  0.00  0.00    +0.000 OA
ENDROOT
BRANCH   1  13
ATOM      9  C   UNL     1       2.220   5.031  19.629  0.00  0.00    +0.000 A 
ATOM     10  C   UNL     1       2.875   5.542  18.506  0.00  0.00    +0.000 A 
ATOM     11  C   UNL     1       2.920   6.918  18.269  0.00  0.00    +0.000 A 
ATOM     12  C   UNL     1       2.325   7.797  19.171  0.00  0.00    +0.000 A 
ATOM     13  C   UNL     1       1.678   7.294  20.303  0.00  0.00    +0.000 A 
ATOM     14  C   UNL     1       1.604   5.910  20.516  0.00  0.00    +0.000 A 
BRANCH   9  16
ATOM     15  C   UNL     1       1.053   2.963  19.804  0.00  0.00    +0.000 C 
ATOM     16  O   UNL     1       2.286   3.670  19.763  0.00  0.00    +0.000 OA
ENDBRANCH   9  16
ENDBRANCH   1  13
BRANCH   6  17
ATOM     17  C   UNL     1      -1.005  12.465  22.377  0.00  0.00    +0.000 C 
BRANCH  17  18
ATOM     18  C   UNL     1      -2.476  12.293  22.794  0.00  0.00    +0.000 C 
BRANCH  18  19
ATOM     19  C   UNL     1      -3.474  13.145  22.005  0.00  0.00    +0.000 C 
BRANCH  19  20
ATOM     20  C   UNL     1      -4.896  12.627  22.125  0.00  0.00    +0.000 C 
ATOM     21  O   UNL     1      -5.369  12.345  23.225  0.00  0.00    +0.000 OA
ATOM     22  N   UNL     1      -5.636  12.520  20.961  0.00  0.00    +0.000 N 
ATOM     23  C   UNL     1      -7.033  12.101  21.057  0.00  0.00    +0.000 C 
ATOM     24  C   UNL     1      -7.273  10.827  20.254  0.00  0.00    +0.000 C 
ATOM     25  C   UNL     1      -6.790  10.990  18.813  0.00  0.00    +0.000 C 
ATOM     26  C   UNL     1      -5.332  11.452  18.776  0.00  0.00    +0.000 C 
ATOM     27  C   UNL     1      -5.140  12.724  19.600  0.00  0.00    +0.000 C 
ENDBRANCH  19  20
ENDBRANCH  18  19
ENDBRANCH  17  18
ENDBRANCH   6  17
TORSDOF 6
ENDMDL
MODEL 5
REMARK VINA RESULT:      -7.3      3.279      4.059
REMARK  Name = 
REMARK  7 active torsions:
REMARK  status: ('A' for Active; 'I' for Inactive)
REMARK    1  A    between atoms: C_1  and  O_2
REMARK    2  A    between atoms: O_2  and  C_3
REMARK    3  A    between atoms: C_7  and  C_8
REMARK    4  A    between atoms: N_13  and  C_14
REMARK    5  A    between atoms: C_14  and  C_15
REMARK    6  A    between atoms: C_15  and  C_16
REMARK    7  A    between atoms: C_16  and  C_17
REMARK                            x       y       z     vdW  Elec       q    Type
REMARK                         _______ _______ _______ _____ _____    ______ ____
ROOT
ATOM      1  C   UNL     1       3.012   7.141  17.819  0.00  0.00    +0.000 C 
ATOM      2  C   UNL     1       2.325   7.875  18.707  0.00  0.00    +0.000 C 
ATOM      3  S   UNL     1       1.873   7.420  20.301  0.00  0.00    +0.000 S 
ATOM      4  C   UNL     1       0.946   8.886  20.562  0.00  0.00    +0.000 C 
ATOM      5  S   UNL     1       0.137   9.145  21.997  0.00  0.00    +0.000 S 
ATOM      6  N   UNL     1       1.011   9.690  19.438  0.00  0.00    +0.000 N 
ATOM      7  C   UNL     1       1.805   9.226  18.399  0.00  0.00    +0.000 C 
ATOM      8  O   UNL     1       2.064   9.824  17.358  0.00  0.00    +0.000 OA
ENDROOT
BRANCH   1  13
ATOM      9  C   UNL     1       2.917   3.416  18.241  0.00  0.00    +0.000 A 
ATOM     10  C   UNL     1       4.091   3.207  18.968  0.00  0.00    +0.000 A 
ATOM     11  C   UNL     1       4.952   4.268  19.255  0.00  0.00    +0.000 A 
ATOM     12  C   UNL     1       4.632   5.557  18.832  0.00  0.00    +0.000 A 
ATOM     13  C   UNL     1       3.453   5.776  18.114  0.00  0.00    +0.000 A 
ATOM     14  C   UNL     1       2.610   4.700  17.797  0.00  0.00    +0.000 A 
BRANCH   9  16
ATOM     15  C   UNL     1       0.939   2.222  18.817  0.00  0.00    +0.000 C 
ATOM     16  O   UNL     1       2.143   2.301  18.064  0.00  0.00    +0.000 OA
ENDBRANCH   9  16
ENDBRANCH   1  13
BRANCH   6  17
ATOM     17  C   UNL     1       0.430  11.030  19.338  0.00  0.00    +0.000 C 
BRANCH  17  18
ATOM     18  C   UNL     1       1.342  12.159  19.848  0.00  0.00    +0.000 C 
BRANCH  18  19
ATOM     19  C   UNL     1       1.576  13.298  18.852  0.00  0.00    +0.000 C 
BRANCH  19  20
ATOM     20  C   UNL     1       0.433  14.297  18.839  0.00  0.00    +0.000 C 
ATOM     21  O   UNL     1      -0.736  13.912  18.867  0.00  0.00    +0.000 OA
ATOM     22  N   UNL     1       0.760  15.641  18.831  0.00  0.00    +0.000 N 
ATOM     23  C   UNL     1      -0.320  16.624  18.901  0.00  0.00    +0.000 C 
ATOM     24  C   UNL     1      -0.297  17.540  17.682  0.00  0.00    +0.000 C 
ATOM     25  C   UNL     1       1.082  18.171  17.498  0.00  0.00    +0.000 C 
ATOM     26  C   UNL     1       2.172  17.098  17.456  0.00  0.00    +0.000 C 
ATOM     27  C   UNL     1       2.104  16.201  18.692  0.00  0.00    +0.000 C 
ENDBRANCH  19  20
ENDBRANCH  18  19
ENDBRANCH  17  18
ENDBRANCH   6  17
TORSDOF 6
ENDMDL
MODEL 6
REMARK VINA RESULT:      -7.3      1.224      1.950
REMARK  Name = 
REMARK  7 active torsions:
REMARK  status: ('A' for Active; 'I' for Inactive)
REMARK    1  A    between atoms: C_1  and  O_2
REMARK    2  A    between atoms: O_2  and  C_3
REMARK    3  A    between atoms: C_7  and  C_8
REMARK    4  A    between atoms: N_13  and  C_14
REMARK    5  A    between atoms: C_14  and  C_15
REMARK    6  A    between atoms: C_15  and  C_16
REMARK    7  A    between atoms: C_16  and  C_17
REMARK                            x       y       z     vdW  Elec       q    Type
REMARK                         _______ _______ _______ _____ _____    ______ ____
ROOT
ATOM      1  C   UNL     1       2.735   7.701  17.922  0.00  0.00    +0.000 C 
ATOM      2  C   UNL     1       2.065   8.448  18.813  0.00  0.00    +0.000 C 
ATOM      3  S   UNL     1       1.525   7.968  20.372  0.00  0.00    +0.000 S 
ATOM      4  C   UNL     1       0.687   9.483  20.655  0.00  0.00    +0.000 C 
ATOM      5  S   UNL     1      -0.156   9.745  22.070  0.00  0.00    +0.000 S 
ATOM      6  N   UNL     1       0.847  10.320  19.565  0.00  0.00    +0.000 N 
ATOM      7  C   UNL     1       1.646   9.840  18.538  0.00  0.00    +0.000 C 
ATOM      8  O   UNL     1       1.982  10.456  17.529  0.00  0.00    +0.000 OA
ENDROOT
BRANCH   1  13
ATOM      9  C   UNL     1       4.785   4.635  18.600  0.00  0.00    +0.000 A 
ATOM     10  C   UNL     1       3.846   3.633  18.342  0.00  0.00    +0.000 A 
ATOM     11  C   UNL     1       2.526   3.956  18.022  0.00  0.00    +0.000 A 
ATOM     12  C   UNL     1       2.139   5.292  17.937  0.00  0.00    +0.000 A 
ATOM     13  C   UNL     1       3.075   6.300  18.182  0.00  0.00    +0.000 A 
ATOM     14  C   UNL     1       4.391   5.969  18.539  0.00  0.00    +0.000 A 
BRANCH   9  16
ATOM     15  C   UNL     1       7.108   4.737  18.087  0.00  0.00    +0.000 C 
ATOM     16  O   UNL     1       6.051   4.183  18.861  0.00  0.00    +0.000 OA
ENDBRANCH   9  16
ENDBRANCH   1  13
BRANCH   6  17
ATOM     17  C   UNL     1       0.359  11.698  19.495  0.00  0.00    +0.000 C 
BRANCH  17  18
ATOM     18  C   UNL     1      -0.795  11.915  18.500  0.00  0.00    +0.000 C 
BRANCH  18  19
ATOM     19  C   UNL     1      -1.928  10.890  18.593  0.00  0.00    +0.000 C 
BRANCH  19  20
ATOM     20  C   UNL     1      -3.007  11.127  17.551  0.00  0.00    +0.000 C 
ATOM     21  O   UNL     1      -2.748  11.041  16.351  0.00  0.00    +0.000 OA
ATOM     22  N   UNL     1      -4.283  11.406  18.007  0.00  0.00    +0.000 N 
ATOM     23  C   UNL     1      -5.357  11.558  17.027  0.00  0.00    +0.000 C 
ATOM     24  C   UNL     1      -5.995  12.939  17.135  0.00  0.00    +0.000 C 
ATOM     25  C   UNL     1      -6.441  13.226  18.567  0.00  0.00    +0.000 C 
ATOM     26  C   UNL     1      -5.284  13.028  19.549  0.00  0.00    +0.000 C 
ATOM     27  C   UNL     1      -4.672  11.635  19.398  0.00  0.00    +0.000 C 
ENDBRANCH  19  20
ENDBRANCH  18  19
ENDBRANCH  17  18
ENDBRANCH   6  17
TORSDOF 6
ENDMDL
MODEL 7
REMARK VINA RESULT:      -7.3      1.919      2.966
REMARK  Name = 
REMARK  7 active torsions:
REMARK  status: ('A' for Active; 'I' for Inactive)
REMARK    1  A    between atoms: C_1  and  O_2
REMARK    2  A    between atoms: O_2  and  C_3
REMARK    3  A    between atoms: C_7  and  C_8
REMARK    4  A    between atoms: N_13  and  C_14
REMARK    5  A    between atoms: C_14  and  C_15
REMARK    6  A    between atoms: C_15  and  C_16
REMARK    7  A    between atoms: C_16  and  C_17
REMARK                            x       y       z     vdW  Elec       q    Type
REMARK                         _______ _______ _______ _____ _____    ______ ____
ROOT
ATOM      1  C   UNL     1       2.255   8.087  18.107  0.00  0.00    +0.000 C 
ATOM      2  C   UNL     1       1.794   8.652  19.233  0.00  0.00    +0.000 C 
ATOM      3  S   UNL     1       1.571   7.893  20.759  0.00  0.00    +0.000 S 
ATOM      4  C   UNL     1       0.838   9.318  21.471  0.00  0.00    +0.000 C 
ATOM      5  S   UNL     1       0.303   9.310  23.050  0.00  0.00    +0.000 S 
ATOM      6  N   UNL     1       0.790  10.338  20.538  0.00  0.00    +0.000 N 
ATOM      7  C   UNL     1       1.356  10.064  19.301  0.00  0.00    +0.000 C 
ATOM      8  O   UNL     1       1.493  10.855  18.372  0.00  0.00    +0.000 OA
ENDROOT
BRANCH   1  13
ATOM      9  C   UNL     1       4.304   4.984  17.622  0.00  0.00    +0.000 A 
ATOM     10  C   UNL     1       3.299   4.017  17.556  0.00  0.00    +0.000 A 
ATOM     11  C   UNL     1       1.959   4.364  17.746  0.00  0.00    +0.000 A 
ATOM     12  C   UNL     1       1.613   5.693  17.983  0.00  0.00    +0.000 A 
ATOM     13  C   UNL     1       2.612   6.668  18.039  0.00  0.00    +0.000 A 
ATOM     14  C   UNL     1       3.959   6.308  17.884  0.00  0.00    +0.000 A 
BRANCH   9  16
ATOM     15  C   UNL     1       5.831   4.012  16.074  0.00  0.00    +0.000 C 
ATOM     16  O   UNL     1       5.568   4.518  17.377  0.00  0.00    +0.000 OA
ENDBRANCH   9  16
ENDBRANCH   1  13
BRANCH   6  17
ATOM     17  C   UNL     1       0.325  11.699  20.814  0.00  0.00    +0.000 C 
BRANCH  17  18
ATOM     18  C   UNL     1      -1.174  11.805  21.143  0.00  0.00    +0.000 C 
BRANCH  18  19
ATOM     19  C   UNL     1      -1.915  12.931  20.417  0.00  0.00    +0.000 C 
BRANCH  19  20
ATOM     20  C   UNL     1      -3.199  12.449  19.765  0.00  0.00    +0.000 C 
ATOM     21  O   UNL     1      -4.273  12.534  20.360  0.00  0.00    +0.000 OA
ATOM     22  N   UNL     1      -3.113  11.951  18.477  0.00  0.00    +0.000 N 
ATOM     23  C   UNL     1      -4.345  11.557  17.797  0.00  0.00    +0.000 C 
ATOM     24  C   UNL     1      -4.296  10.085  17.400  0.00  0.00    +0.000 C 
ATOM     25  C   UNL     1      -3.036   9.778  16.592  0.00  0.00    +0.000 C 
ATOM     26  C   UNL     1      -1.783  10.233  17.342  0.00  0.00    +0.000 C 
ATOM     27  C   UNL     1      -1.881  11.709  17.726  0.00  0.00    +0.000 C 
ENDBRANCH  19  20
ENDBRANCH  18  19
ENDBRANCH  17  18
ENDBRANCH   6  17
TORSDOF 6
ENDMDL
MODEL 8
REMARK VINA RESULT:      -7.2      1.311      2.097
REMARK  Name = 
REMARK  7 active torsions:
REMARK  status: ('A' for Active; 'I' for Inactive)
REMARK    1  A    between atoms: C_1  and  O_2
REMARK    2  A    between atoms: O_2  and  C_3
REMARK    3  A    between atoms: C_7  and  C_8
REMARK    4  A    between atoms: N_13  and  C_14
REMARK    5  A    between atoms: C_14  and  C_15
REMARK    6  A    between atoms: C_15  and  C_16
REMARK    7  A    between atoms: C_16  and  C_17
REMARK                            x       y       z     vdW  Elec       q    Type
REMARK                         _______ _______ _______ _____ _____    ______ ____
ROOT
ATOM      1  C   UNL     1       2.870   7.359  17.930  0.00  0.00    +0.000 C 
ATOM      2  C   UNL     1       2.147   8.054  18.821  0.00  0.00    +0.000 C 
ATOM      3  S   UNL     1       1.779   7.603  20.438  0.00  0.00    +0.000 S 
ATOM      4  C   UNL     1       0.738   8.991  20.692  0.00  0.00    +0.000 C 
ATOM      5  S   UNL     1      -0.051   9.217  22.144  0.00  0.00    +0.000 S 
ATOM      6  N   UNL     1       0.703   9.769  19.548  0.00  0.00    +0.000 N 
ATOM      7  C   UNL     1       1.505   9.348  18.498  0.00  0.00    +0.000 C 
ATOM      8  O   UNL     1       1.683   9.939  17.435  0.00  0.00    +0.000 OA
ENDROOT
BRANCH   1  13
ATOM      9  C   UNL     1       5.394   4.700  18.720  0.00  0.00    +0.000 A 
ATOM     10  C   UNL     1       4.632   3.548  18.507  0.00  0.00    +0.000 A 
ATOM     11  C   UNL     1       3.277   3.637  18.182  0.00  0.00    +0.000 A 
ATOM     12  C   UNL     1       2.677   4.887  18.045  0.00  0.00    +0.000 A 
ATOM     13  C   UNL     1       3.434   6.044  18.244  0.00  0.00    +0.000 A 
ATOM     14  C   UNL     1       4.786   5.948  18.607  0.00  0.00    +0.000 A 
BRANCH   9  16
ATOM     15  C   UNL     1       7.549   5.614  19.152  0.00  0.00    +0.000 C 
ATOM     16  O   UNL     1       6.716   4.473  18.991  0.00  0.00    +0.000 OA
ENDBRANCH   9  16
ENDBRANCH   1  13
BRANCH   6  17
ATOM     17  C   UNL     1       0.007  11.052  19.434  0.00  0.00    +0.000 C 
BRANCH  17  18
ATOM     18  C   UNL     1      -1.444  10.946  18.935  0.00  0.00    +0.000 C 
BRANCH  18  19
ATOM     19  C   UNL     1      -2.368  12.076  19.396  0.00  0.00    +0.000 C 
BRANCH  19  20
ATOM     20  C   UNL     1      -3.764  11.954  18.812  0.00  0.00    +0.000 C 
ATOM     21  O   UNL     1      -3.925  11.639  17.633  0.00  0.00    +0.000 OA
ATOM     22  N   UNL     1      -4.833  12.177  19.661  0.00  0.00    +0.000 N 
ATOM     23  C   UNL     1      -6.187  11.987  19.145  0.00  0.00    +0.000 C 
ATOM     24  C   UNL     1      -6.996  13.275  19.261  0.00  0.00    +0.000 C 
ATOM     25  C   UNL     1      -6.965  13.814  20.690  0.00  0.00    +0.000 C 
ATOM     26  C   UNL     1      -5.525  13.970  21.183  0.00  0.00    +0.000 C 
ATOM     27  C   UNL     1      -4.754  12.658  21.041  0.00  0.00    +0.000 C 
ENDBRANCH  19  20
ENDBRANCH  18  19
ENDBRANCH  17  18
ENDBRANCH   6  17
TORSDOF 6
ENDMDL
MODEL 9
REMARK VINA RESULT:      -7.2      3.502      5.601
REMARK  Name = 
REMARK  7 active torsions:
REMARK  status: ('A' for Active; 'I' for Inactive)
REMARK    1  A    between atoms: C_1  and  O_2
REMARK    2  A    between atoms: O_2  and  C_3
REMARK    3  A    between atoms: C_7  and  C_8
REMARK    4  A    between atoms: N_13  and  C_14
REMARK    5  A    between atoms: C_14  and  C_15
REMARK    6  A    between atoms: C_15  and  C_16
REMARK    7  A    between atoms: C_16  and  C_17
REMARK                            x       y       z     vdW  Elec       q    Type
REMARK                         _______ _______ _______ _____ _____    ______ ____
ROOT
ATOM      1  C   UNL     1       2.703   7.367  17.860  0.00  0.00    +0.000 C 
ATOM      2  C   UNL     1       2.091   8.091  18.809  0.00  0.00    +0.000 C 
ATOM      3  S   UNL     1       1.796   7.628  20.438  0.00  0.00    +0.000 S 
ATOM      4  C   UNL     1       0.877   9.080  20.787  0.00  0.00    +0.000 C 
ATOM      5  S   UNL     1       0.201   9.328  22.291  0.00  0.00    +0.000 S 
ATOM      6  N   UNL     1       0.826   9.886  19.663  0.00  0.00    +0.000 N 
ATOM      7  C   UNL     1       1.526   9.434  18.554  0.00  0.00    +0.000 C 
ATOM      8  O   UNL     1       1.678  10.036  17.494  0.00  0.00    +0.000 OA
ENDROOT
BRANCH   1  13
ATOM      9  C   UNL     1       5.072   4.517  18.440  0.00  0.00    +0.000 A 
ATOM     10  C   UNL     1       4.219   3.428  18.248  0.00  0.00    +0.000 A 
ATOM     11  C   UNL     1       2.857   3.620  18.005  0.00  0.00    +0.000 A 
ATOM     12  C   UNL     1       2.341   4.912  17.932  0.00  0.00    +0.000 A 
ATOM     13  C   UNL     1       3.190   6.008  18.111  0.00  0.00    +0.000 A 
ATOM     14  C   UNL     1       4.550   5.808  18.391  0.00  0.00    +0.000 A 
BRANCH   9  16
ATOM     15  C   UNL     1       7.353   5.188  18.313  0.00  0.00    +0.000 C 
ATOM     16  O   UNL     1       6.388   4.192  18.628  0.00  0.00    +0.000 OA
ENDBRANCH   9  16
ENDBRANCH   1  13
BRANCH   6  17
ATOM     17  C   UNL     1       0.219  11.217  19.619  0.00  0.00    +0.000 C 
BRANCH  17  18
ATOM     18  C   UNL     1       1.126  12.348  20.136  0.00  0.00    +0.000 C 
BRANCH  18  19
ATOM     19  C   UNL     1       1.174  13.593  19.247  0.00  0.00    +0.000 C 
BRANCH  19  20
ATOM     20  C   UNL     1       2.508  13.744  18.538  0.00  0.00    +0.000 C 
ATOM     21  O   UNL     1       3.041  12.777  17.994  0.00  0.00    +0.000 OA
ATOM     22  N   UNL     1       3.072  15.006  18.501  0.00  0.00    +0.000 N 
ATOM     23  C   UNL     1       4.314  15.196  17.755  0.00  0.00    +0.000 C 
ATOM     24  C   UNL     1       5.419  15.718  18.667  0.00  0.00    +0.000 C 
ATOM     25  C   UNL     1       4.965  16.973  19.412  0.00  0.00    +0.000 C 
ATOM     26  C   UNL     1       3.651  16.722  20.153  0.00  0.00    +0.000 C 
ATOM     27  C   UNL     1       2.579  16.193  19.201  0.00  0.00    +0.000 C 
ENDBRANCH  19  20
ENDBRANCH  18  19
ENDBRANCH  17  18
ENDBRANCH   6  17
TORSDOF 6
ENDMDL
