MODEL 1
REMARK VINA RESULT:      -7.7      0.000      0.000
REMARK  Name = 
REMARK  8 active torsions:
REMARK  status: ('A' for Active; 'I' for Inactive)
REMARK    1  A    between atoms: C_1  and  O_2
REMARK    2  A    between atoms: O_2  and  C_3
REMARK    3  A    between atoms: C_6  and  C_7
REMARK    4  A    between atoms: C_7  and  C_8
REMARK    5  A    between atoms: C_11  and  O_12
REMARK    6  A    between atoms: C_13  and  O_14
REMARK    7  A    between atoms: O_14  and  C_15
REMARK    8  A    between atoms: N_20  and  C_21
REMARK                            x       y       z     vdW  Elec       q    Type
REMARK                         _______ _______ _______ _____ _____    ______ ____
ROOT
ATOM      1  C   UNL     1       3.399   4.150  18.423  0.00  0.00    +0.000 C 
ATOM      2  C   UNL     1       2.759   5.431  18.960  0.00  0.00    +0.000 A 
ATOM      3  C   UNL     1       2.823   6.629  18.224  0.00  0.00    +0.000 A 
ATOM      4  C   UNL     1       2.311   7.814  18.761  0.00  0.00    +0.000 A 
ATOM      5  C   UNL     1       1.686   7.831  20.013  0.00  0.00    +0.000 A 
ATOM      6  C   UNL     1       1.615   6.641  20.741  0.00  0.00    +0.000 A 
ATOM      7  C   UNL     1       2.157   5.449  20.231  0.00  0.00    +0.000 A 
ATOM      8  C   UNL     1       2.040   4.185  21.050  0.00  0.00    +0.000 C 
ATOM      9  C   UNL     1       2.894   3.026  20.530  0.00  0.00    +0.000 C 
ATOM     10  N   UNL     1       2.827   2.946  19.072  0.00  0.00    +0.000 NA
ATOM     11  C   UNL     1       3.345   1.685  18.567  0.00  0.00    +0.000 C 
ENDROOT
BRANCH   4  12
ATOM     12  O   UNL     1       2.432   8.985  18.061  0.00  0.00    +0.000 OA
ATOM     13  H   UNL     1       3.001   9.594  18.555  0.00  0.00    +0.000 HD
ENDBRANCH   4  12
BRANCH   5  14
ATOM     14  O   UNL     1       1.193   9.036  20.441  0.00  0.00    +0.000 OA
ATOM     15  C   UNL     1       1.113   9.241  21.845  0.00  0.00    +0.000 C 
ENDBRANCH   5  14
BRANCH   1  16
ATOM     16  C   UNL     1       4.961   4.256  18.319  0.00  0.00    +0.000 C 
BRANCH  16  20
ATOM     17  C   UNL     1       6.831   4.719  14.432  0.00  0.00    +0.000 A 
ATOM     18  C   UNL     1       5.521   4.250  14.533  0.00  0.00    +0.000 A 
ATOM     19  C   UNL     1       4.922   4.072  15.787  0.00  0.00    +0.000 A 
ATOM     20  C   UNL     1       5.634   4.349  16.964  0.00  0.00    +0.000 A 
ATOM     21  C   UNL     1       6.957   4.792  16.842  0.00  0.00    +0.000 A 
ATOM     22  C   UNL     1       7.558   4.955  15.593  0.00  0.00    +0.000 A 
BRANCH  17  24
ATOM     23  C   UNL     1       6.839   3.943  12.213  0.00  0.00    +0.000 C 
ATOM     24  O   UNL     1       7.324   4.887  13.168  0.00  0.00    +0.000 OA
ENDBRANCH  17  24
ENDBRANCH  16  20
ENDBRANCH   1  16
TORSDOF 5
ENDMDL
MODEL 2
REMARK VINA RESULT:      -7.6      0.284      1.040
REMARK  Name = 
REMARK  8 active torsions:
REMARK  status: ('A' for Active; 'I' for Inactive)
REMARK    1  A    between atoms: C_1  and  O_2
REMARK    2  A    between atoms: O_2  and  C_3
REMARK    3  A    between atoms: C_6  and  C_7
REMARK    4  A    between atoms: C_7  and  C_8
REMARK    5  A    between atoms: C_11  and  O_12
REMARK    6  A    between atoms: C_13  and  O_14
REMARK    7  A    between atoms: O_14  and  C_15
REMARK    8  A    between atoms: N_20  and  C_21
REMARK                            x       y       z     vdW  Elec       q    Type
REMARK                         _______ _______ _______ _____ _____    ______ ____
ROOT
ATOM      1  C   UNL     1       3.365   4.031  18.447  0.00  0.00    +0.000 C 
ATOM      2  C   UNL     1       2.759   5.337  18.966  0.00  0.00    +0.000 A 
ATOM      3  C   UNL     1       2.821   6.512  18.195  0.00  0.00    +0.000 A 
ATOM      4  C   UNL     1       2.343   7.720  18.712  0.00  0.00    +0.000 A 
ATOM      5  C   UNL     1       1.754   7.782  19.980  0.00  0.00    +0.000 A 
ATOM      6  C   UNL     1       1.686   6.614  20.743  0.00  0.00    +0.000 A 
ATOM      7  C   UNL     1       2.195   5.400  20.252  0.00  0.00    +0.000 A 
ATOM      8  C   UNL     1       2.082   4.161  21.109  0.00  0.00    +0.000 C 
ATOM      9  C   UNL     1       2.902   2.975  20.599  0.00  0.00    +0.000 C 
ATOM     10  N   UNL     1       2.793   2.856  19.145  0.00  0.00    +0.000 NA
ATOM     11  C   UNL     1       3.277   1.572  18.662  0.00  0.00    +0.000 C 
ENDROOT
BRANCH   4  12
ATOM     12  O   UNL     1       2.462   8.870  17.976  0.00  0.00    +0.000 OA
ATOM     13  H   UNL     1       2.913   9.542  18.508  0.00  0.00    +0.000 HD
ENDBRANCH   4  12
BRANCH   5  14
ATOM     14  O   UNL     1       1.292   9.007  20.388  0.00  0.00    +0.000 OA
ATOM     15  C   UNL     1       0.108   9.023  21.173  0.00  0.00    +0.000 C 
ENDBRANCH   5  14
BRANCH   1  16
ATOM     16  C   UNL     1       4.924   4.109  18.297  0.00  0.00    +0.000 C 
BRANCH  16  20
ATOM     17  C   UNL     1       6.763   4.743  14.419  0.00  0.00    +0.000 A 
ATOM     18  C   UNL     1       7.498   4.937  15.588  0.00  0.00    +0.000 A 
ATOM     19  C   UNL     1       6.902   4.761  16.843  0.00  0.00    +0.000 A 
ATOM     20  C   UNL     1       5.550   4.400  16.947  0.00  0.00    +0.000 A 
ATOM     21  C   UNL     1       4.822   4.237  15.762  0.00  0.00    +0.000 A 
ATOM     22  C   UNL     1       5.412   4.427  14.512  0.00  0.00    +0.000 A 
BRANCH  17  24
ATOM     23  C   UNL     1       7.010   4.045  12.188  0.00  0.00    +0.000 C 
ATOM     24  O   UNL     1       7.435   4.911  13.240  0.00  0.00    +0.000 OA
ENDBRANCH  17  24
ENDBRANCH  16  20
ENDBRANCH   1  16
TORSDOF 5
ENDMDL
MODEL 3
REMARK VINA RESULT:      -7.4      1.709      7.275
REMARK  Name = 
REMARK  8 active torsions:
REMARK  status: ('A' for Active; 'I' for Inactive)
REMARK    1  A    between atoms: C_1  and  O_2
REMARK    2  A    between atoms: O_2  and  C_3
REMARK    3  A    between atoms: C_6  and  C_7
REMARK    4  A    between atoms: C_7  and  C_8
REMARK    5  A    between atoms: C_11  and  O_12
REMARK    6  A    between atoms: C_13  and  O_14
REMARK    7  A    between atoms: O_14  and  C_15
REMARK    8  A    between atoms: N_20  and  C_21
REMARK                            x       y       z     vdW  Elec       q    Type
REMARK                         _______ _______ _______ _____ _____    ______ ____
ROOT
ATOM      1  C   UNL     1       3.083   5.674  18.856  0.00  0.00    +0.000 C 
ATOM      2  C   UNL     1       4.277   5.439  17.931  0.00  0.00    +0.000 A 
ATOM      3  C   UNL     1       5.296   6.402  17.814  0.00  0.00    +0.000 A 
ATOM      4  C   UNL     1       6.339   6.218  16.901  0.00  0.00    +0.000 A 
ATOM      5  C   UNL     1       6.421   5.060  16.119  0.00  0.00    +0.000 A 
ATOM      6  C   UNL     1       5.414   4.100  16.240  0.00  0.00    +0.000 A 
ATOM      7  C   UNL     1       4.340   4.287  17.126  0.00  0.00    +0.000 A 
ATOM      8  C   UNL     1       3.285   3.211  17.232  0.00  0.00    +0.000 C 
ATOM      9  C   UNL     1       2.038   3.636  18.010  0.00  0.00    +0.000 C 
ATOM     10  N   UNL     1       2.406   4.401  19.201  0.00  0.00    +0.000 NA
ATOM     11  C   UNL     1       1.296   4.539  20.129  0.00  0.00    +0.000 C 
ENDROOT
BRANCH   4  12
ATOM     12  O   UNL     1       7.293   7.190  16.754  0.00  0.00    +0.000 OA
ATOM     13  H   UNL     1       6.907   8.051  16.976  0.00  0.00    +0.000 HD
ENDBRANCH   4  12
BRANCH   5  14
ATOM     14  O   UNL     1       7.495   4.961  15.274  0.00  0.00    +0.000 OA
ATOM     15  C   UNL     1       7.217   4.800  13.889  0.00  0.00    +0.000 C 
ENDBRANCH   5  14
BRANCH   1  16
ATOM     16  C   UNL     1       2.190   6.877  18.392  0.00  0.00    +0.000 C 
BRANCH  16  20
ATOM     17  C   UNL     1       0.847   9.898  21.202  0.00  0.00    +0.000 A 
ATOM     18  C   UNL     1       0.922  10.186  19.840  0.00  0.00    +0.000 A 
ATOM     19  C   UNL     1       1.382   9.224  18.931  0.00  0.00    +0.000 A 
ATOM     20  C   UNL     1       1.788   7.957  19.378  0.00  0.00    +0.000 A 
ATOM     21  C   UNL     1       1.730   7.696  20.753  0.00  0.00    +0.000 A 
ATOM     22  C   UNL     1       1.286   8.661  21.659  0.00  0.00    +0.000 A 
BRANCH  17  24
ATOM     23  C   UNL     1      -0.664  10.469  22.910  0.00  0.00    +0.000 C 
ATOM     24  O   UNL     1       0.361  10.888  22.010  0.00  0.00    +0.000 OA
ENDBRANCH  17  24
ENDBRANCH  16  20
ENDBRANCH   1  16
TORSDOF 5
ENDMDL
MODEL 4
REMARK VINA RESULT:      -7.3      1.799      6.171
REMARK  Name = 
REMARK  8 active torsions:
REMARK  status: ('A' for Active; 'I' for Inactive)
REMARK    1  A    between atoms: C_1  and  O_2
REMARK    2  A    between atoms: O_2  and  C_3
REMARK    3  A    between atoms: C_6  and  C_7
REMARK    4  A    between atoms: C_7  and  C_8
REMARK    5  A    between atoms: C_11  and  O_12
REMARK    6  A    between atoms: C_13  and  O_14
REMARK    7  A    between atoms: O_14  and  C_15
REMARK    8  A    between atoms: N_20  and  C_21
REMARK                            x       y       z     vdW  Elec       q    Type
REMARK                         _______ _______ _______ _____ _____    ______ ____
ROOT
ATOM      1  C   UNL     1       3.193   3.959  19.749  0.00  0.00    +0.000 C 
ATOM      2  C   UNL     1       4.281   4.089  18.683  0.00  0.00    +0.000 A 
ATOM      3  C   UNL     1       5.611   4.371  19.046  0.00  0.00    +0.000 A 
ATOM      4  C   UNL     1       6.582   4.574  18.061  0.00  0.00    +0.000 A 
ATOM      5  C   UNL     1       6.271   4.458  16.701  0.00  0.00    +0.000 A 
ATOM      6  C   UNL     1       4.952   4.171  16.341  0.00  0.00    +0.000 A 
ATOM      7  C   UNL     1       3.957   4.000  17.317  0.00  0.00    +0.000 A 
ATOM      8  C   UNL     1       2.549   3.674  16.877  0.00  0.00    +0.000 C 
ATOM      9  C   UNL     1       1.507   3.780  17.992  0.00  0.00    +0.000 C 
ATOM     10  N   UNL     1       2.020   3.210  19.237  0.00  0.00    +0.000 NA
ATOM     11  C   UNL     1       0.968   2.993  20.216  0.00  0.00    +0.000 C 
ENDROOT
BRANCH   4  12
ATOM     12  O   UNL     1       7.861   4.905  18.425  0.00  0.00    +0.000 OA
ATOM     13  H   UNL     1       8.485   4.346  17.938  0.00  0.00    +0.000 HD
ENDBRANCH   4  12
BRANCH   5  14
ATOM     14  O   UNL     1       7.297   4.649  15.814  0.00  0.00    +0.000 OA
ATOM     15  C   UNL     1       6.955   4.742  14.438  0.00  0.00    +0.000 C 
ENDBRANCH   5  14
BRANCH   1  16
ATOM     16  C   UNL     1       2.928   5.307  20.507  0.00  0.00    +0.000 C 
BRANCH  16  20
ATOM     17  C   UNL     1       1.946   8.965  18.392  0.00  0.00    +0.000 A 
ATOM     18  C   UNL     1       1.353   8.681  19.622  0.00  0.00    +0.000 A 
ATOM     19  C   UNL     1       1.645   7.488  20.296  0.00  0.00    +0.000 A 
ATOM     20  C   UNL     1       2.529   6.552  19.739  0.00  0.00    +0.000 A 
ATOM     21  C   UNL     1       3.093   6.843  18.491  0.00  0.00    +0.000 A 
ATOM     22  C   UNL     1       2.790   8.025  17.812  0.00  0.00    +0.000 A 
BRANCH  17  24
ATOM     23  C   UNL     1       1.351  11.210  18.753  0.00  0.00    +0.000 C 
ATOM     24  O   UNL     1       1.622  10.165  17.821  0.00  0.00    +0.000 OA
ENDBRANCH  17  24
ENDBRANCH  16  20
ENDBRANCH   1  16
TORSDOF 5
ENDMDL
MODEL 5
REMARK VINA RESULT:      -7.3      2.141      2.750
REMARK  Name = 
REMARK  8 active torsions:
REMARK  status: ('A' for Active; 'I' for Inactive)
REMARK    1  A    between atoms: C_1  and  O_2
REMARK    2  A    between atoms: O_2  and  C_3
REMARK    3  A    between atoms: C_6  and  C_7
REMARK    4  A    between atoms: C_7  and  C_8
REMARK    5  A    between atoms: C_11  and  O_12
REMARK    6  A    between atoms: C_13  and  O_14
REMARK    7  A    between atoms: O_14  and  C_15
REMARK    8  A    between atoms: N_20  and  C_21
REMARK                            x       y       z     vdW  Elec       q    Type
REMARK                         _______ _______ _______ _____ _____    ______ ____
ROOT
ATOM      1  C   UNL     1       2.513   4.146  18.048  0.00  0.00    +0.000 C 
ATOM      2  C   UNL     1       2.266   5.563  18.567  0.00  0.00    +0.000 A 
ATOM      3  C   UNL     1       2.188   6.650  17.676  0.00  0.00    +0.000 A 
ATOM      4  C   UNL     1       2.048   7.953  18.165  0.00  0.00    +0.000 A 
ATOM      5  C   UNL     1       1.937   8.203  19.537  0.00  0.00    +0.000 A 
ATOM      6  C   UNL     1       2.007   7.124  20.421  0.00  0.00    +0.000 A 
ATOM      7  C   UNL     1       2.183   5.813  19.948  0.00  0.00    +0.000 A 
ATOM      8  C   UNL     1       2.236   4.678  20.944  0.00  0.00    +0.000 C 
ATOM      9  C   UNL     1       2.700   3.348  20.348  0.00  0.00    +0.000 C 
ATOM     10  N   UNL     1       2.090   3.127  19.037  0.00  0.00    +0.000 NA
ATOM     11  C   UNL     1       2.238   1.752  18.589  0.00  0.00    +0.000 C 
ENDROOT
BRANCH   4  12
ATOM     12  O   UNL     1       2.033   9.008  17.291  0.00  0.00    +0.000 OA
ATOM     13  H   UNL     1       1.114   9.235  17.083  0.00  0.00    +0.000 HD
ENDBRANCH   4  12
BRANCH   5  14
ATOM     14  O   UNL     1       1.777   9.511  19.915  0.00  0.00    +0.000 OA
ATOM     15  C   UNL     1       0.660   9.814  20.740  0.00  0.00    +0.000 C 
ENDBRANCH   5  14
BRANCH   1  16
ATOM     16  C   UNL     1       3.927   3.985  17.388  0.00  0.00    +0.000 C 
BRANCH  16  20
ATOM     17  C   UNL     1       7.246   6.647  18.235  0.00  0.00    +0.000 A 
ATOM     18  C   UNL     1       6.842   5.701  19.178  0.00  0.00    +0.000 A 
ATOM     19  C   UNL     1       5.753   4.859  18.921  0.00  0.00    +0.000 A 
ATOM     20  C   UNL     1       5.041   4.960  17.716  0.00  0.00    +0.000 A 
ATOM     21  C   UNL     1       5.445   5.934  16.795  0.00  0.00    +0.000 A 
ATOM     22  C   UNL     1       6.521   6.784  17.058  0.00  0.00    +0.000 A 
BRANCH  17  24
ATOM     23  C   UNL     1       8.275   8.757  18.101  0.00  0.00    +0.000 C 
ATOM     24  O   UNL     1       8.335   7.407  18.561  0.00  0.00    +0.000 OA
ENDBRANCH  17  24
ENDBRANCH  16  20
ENDBRANCH   1  16
TORSDOF 5
ENDMDL
MODEL 6
REMARK VINA RESULT:      -7.2      1.735      7.313
REMARK  Name = 
REMARK  8 active torsions:
REMARK  status: ('A' for Active; 'I' for Inactive)
REMARK    1  A    between atoms: C_1  and  O_2
REMARK    2  A    between atoms: O_2  and  C_3
REMARK    3  A    between atoms: C_6  and  C_7
REMARK    4  A    between atoms: C_7  and  C_8
REMARK    5  A    between atoms: C_11  and  O_12
REMARK    6  A    between atoms: C_13  and  O_14
REMARK    7  A    between atoms: O_14  and  C_15
REMARK    8  A    between atoms: N_20  and  C_21
REMARK                            x       y       z     vdW  Elec       q    Type
REMARK                         _______ _______ _______ _____ _____    ______ ____
ROOT
ATOM      1  C   UNL     1       3.116   5.779  18.778  0.00  0.00    +0.000 C 
ATOM      2  C   UNL     1       4.317   5.521  17.867  0.00  0.00    +0.000 A 
ATOM      3  C   UNL     1       5.355   6.466  17.763  0.00  0.00    +0.000 A 
ATOM      4  C   UNL     1       6.405   6.263  16.863  0.00  0.00    +0.000 A 
ATOM      5  C   UNL     1       6.476   5.103  16.082  0.00  0.00    +0.000 A 
ATOM      6  C   UNL     1       5.450   4.162  16.190  0.00  0.00    +0.000 A 
ATOM      7  C   UNL     1       4.369   4.368  17.063  0.00  0.00    +0.000 A 
ATOM      8  C   UNL     1       3.293   3.312  17.156  0.00  0.00    +0.000 C 
ATOM      9  C   UNL     1       2.045   3.760  17.919  0.00  0.00    +0.000 C 
ATOM     10  N   UNL     1       2.412   4.518  19.114  0.00  0.00    +0.000 NA
ATOM     11  C   UNL     1       1.293   4.677  20.029  0.00  0.00    +0.000 C 
ENDROOT
BRANCH   4  12
ATOM     12  O   UNL     1       7.379   7.217  16.728  0.00  0.00    +0.000 OA
ATOM     13  H   UNL     1       7.472   7.445  15.791  0.00  0.00    +0.000 HD
ENDBRANCH   4  12
BRANCH   5  14
ATOM     14  O   UNL     1       7.558   4.984  15.250  0.00  0.00    +0.000 OA
ATOM     15  C   UNL     1       7.299   4.929  13.854  0.00  0.00    +0.000 C 
ENDBRANCH   5  14
BRANCH   1  16
ATOM     16  C   UNL     1       2.251   6.998  18.303  0.00  0.00    +0.000 C 
BRANCH  16  20
ATOM     17  C   UNL     1       0.924   9.945  21.197  0.00  0.00    +0.000 A 
ATOM     18  C   UNL     1       1.328   8.677  21.616  0.00  0.00    +0.000 A 
ATOM     19  C   UNL     1       1.731   7.713  20.683  0.00  0.00    +0.000 A 
ATOM     20  C   UNL     1       1.721   8.000  19.310  0.00  0.00    +0.000 A 
ATOM     21  C   UNL     1       1.286   9.269  18.908  0.00  0.00    +0.000 A 
ATOM     22  C   UNL     1       0.871  10.225  19.837  0.00  0.00    +0.000 A 
BRANCH  17  24
ATOM     23  C   UNL     1      -0.689  10.567  22.790  0.00  0.00    +0.000 C 
ATOM     24  O   UNL     1       0.574  10.830  22.180  0.00  0.00    +0.000 OA
ENDBRANCH  17  24
ENDBRANCH  16  20
ENDBRANCH   1  16
TORSDOF 5
ENDMDL
MODEL 7
REMARK VINA RESULT:      -7.1      1.798      6.067
REMARK  Name = 
REMARK  8 active torsions:
REMARK  status: ('A' for Active; 'I' for Inactive)
REMARK    1  A    between atoms: C_1  and  O_2
REMARK    2  A    between atoms: O_2  and  C_3
REMARK    3  A    between atoms: C_6  and  C_7
REMARK    4  A    between atoms: C_7  and  C_8
REMARK    5  A    between atoms: C_11  and  O_12
REMARK    6  A    between atoms: C_13  and  O_14
REMARK    7  A    between atoms: O_14  and  C_15
REMARK    8  A    between atoms: N_20  and  C_21
REMARK                            x       y       z     vdW  Elec       q    Type
REMARK                         _______ _______ _______ _____ _____    ______ ____
ROOT
ATOM      1  C   UNL     1       3.181   3.871  19.711  0.00  0.00    +0.000 C 
ATOM      2  C   UNL     1       4.283   4.032  18.663  0.00  0.00    +0.000 A 
ATOM      3  C   UNL     1       5.609   4.301  19.051  0.00  0.00    +0.000 A 
ATOM      4  C   UNL     1       6.593   4.533  18.085  0.00  0.00    +0.000 A 
ATOM      5  C   UNL     1       6.298   4.460  16.719  0.00  0.00    +0.000 A 
ATOM      6  C   UNL     1       4.984   4.185  16.333  0.00  0.00    +0.000 A 
ATOM      7  C   UNL     1       3.976   3.986  17.291  0.00  0.00    +0.000 A 
ATOM      8  C   UNL     1       2.574   3.675  16.823  0.00  0.00    +0.000 C 
ATOM      9  C   UNL     1       1.518   3.749  17.927  0.00  0.00    +0.000 C 
ATOM     10  N   UNL     1       2.015   3.140  19.161  0.00  0.00    +0.000 NA
ATOM     11  C   UNL     1       0.950   2.894  20.119  0.00  0.00    +0.000 C 
ENDROOT
BRANCH   4  12
ATOM     12  O   UNL     1       7.867   4.852  18.476  0.00  0.00    +0.000 OA
ATOM     13  H   UNL     1       8.365   5.169  17.707  0.00  0.00    +0.000 HD
ENDBRANCH   4  12
BRANCH   5  14
ATOM     14  O   UNL     1       7.336   4.676  15.851  0.00  0.00    +0.000 OA
ATOM     15  C   UNL     1       7.021   4.736  14.466  0.00  0.00    +0.000 C 
ENDBRANCH   5  14
BRANCH   1  16
ATOM     16  C   UNL     1       2.909   5.195  20.506  0.00  0.00    +0.000 C 
BRANCH  16  20
ATOM     17  C   UNL     1       2.000   8.820  18.301  0.00  0.00    +0.000 A 
ATOM     18  C   UNL     1       2.911   7.894  17.791  0.00  0.00    +0.000 A 
ATOM     19  C   UNL     1       3.229   6.735  18.512  0.00  0.00    +0.000 A 
ATOM     20  C   UNL     1       2.648   6.493  19.766  0.00  0.00    +0.000 A 
ATOM     21  C   UNL     1       1.758   7.448  20.273  0.00  0.00    +0.000 A 
ATOM     22  C   UNL     1       1.452   8.610  19.561  0.00  0.00    +0.000 A 
BRANCH  17  24
ATOM     23  C   UNL     1       2.136  11.156  18.075  0.00  0.00    +0.000 C 
ATOM     24  O   UNL     1       1.731   9.907  17.516  0.00  0.00    +0.000 OA
ENDBRANCH  17  24
ENDBRANCH  16  20
ENDBRANCH   1  16
TORSDOF 5
ENDMDL
MODEL 8
REMARK VINA RESULT:      -7.1      1.362      1.679
REMARK  Name = 
REMARK  8 active torsions:
REMARK  status: ('A' for Active; 'I' for Inactive)
REMARK    1  A    between atoms: C_1  and  O_2
REMARK    2  A    between atoms: O_2  and  C_3
REMARK    3  A    between atoms: C_6  and  C_7
REMARK    4  A    between atoms: C_7  and  C_8
REMARK    5  A    between atoms: C_11  and  O_12
REMARK    6  A    between atoms: C_13  and  O_14
REMARK    7  A    between atoms: O_14  and  C_15
REMARK    8  A    between atoms: N_20  and  C_21
REMARK                            x       y       z     vdW  Elec       q    Type
REMARK                         _______ _______ _______ _____ _____    ______ ____
ROOT
ATOM      1  C   UNL     1       2.772   5.472  18.412  0.00  0.00    +0.000 C 
ATOM      2  C   UNL     1       2.222   6.850  18.783  0.00  0.00    +0.000 A 
ATOM      3  C   UNL     1       2.285   7.918  17.869  0.00  0.00    +0.000 A 
ATOM      4  C   UNL     1       1.859   9.195  18.247  0.00  0.00    +0.000 A 
ATOM      5  C   UNL     1       1.324   9.434  19.517  0.00  0.00    +0.000 A 
ATOM      6  C   UNL     1       1.255   8.373  20.423  0.00  0.00    +0.000 A 
ATOM      7  C   UNL     1       1.711   7.091  20.071  0.00  0.00    +0.000 A 
ATOM      8  C   UNL     1       1.600   5.973  21.081  0.00  0.00    +0.000 C 
ATOM      9  C   UNL     1       2.367   4.708  20.695  0.00  0.00    +0.000 C 
ATOM     10  N   UNL     1       2.197   4.411  19.273  0.00  0.00    +0.000 NA
ATOM     11  C   UNL     1       2.627   3.063  18.939  0.00  0.00    +0.000 C 
ENDROOT
BRANCH   4  12
ATOM     12  O   UNL     1       1.979  10.239  17.367  0.00  0.00    +0.000 OA
ATOM     13  H   UNL     1       2.187   9.891  16.487  0.00  0.00    +0.000 HD
ENDBRANCH   4  12
BRANCH   5  14
ATOM     14  O   UNL     1       0.911  10.713  19.783  0.00  0.00    +0.000 OA
ATOM     15  C   UNL     1      -0.491  10.946  19.822  0.00  0.00    +0.000 C 
ENDBRANCH   5  14
BRANCH   1  16
ATOM     16  C   UNL     1       4.326   5.482  18.197  0.00  0.00    +0.000 C 
BRANCH  16  20
ATOM     17  C   UNL     1       6.197   4.456  14.420  0.00  0.00    +0.000 A 
ATOM     18  C   UNL     1       5.761   5.759  14.660  0.00  0.00    +0.000 A 
ATOM     19  C   UNL     1       5.131   6.089  15.867  0.00  0.00    +0.000 A 
ATOM     20  C   UNL     1       4.914   5.112  16.849  0.00  0.00    +0.000 A 
ATOM     21  C   UNL     1       5.335   3.804  16.578  0.00  0.00    +0.000 A 
ATOM     22  C   UNL     1       5.949   3.472  15.370  0.00  0.00    +0.000 A 
BRANCH  17  24
ATOM     23  C   UNL     1       6.099   3.402  12.321  0.00  0.00    +0.000 C 
ATOM     24  O   UNL     1       6.826   4.232  13.226  0.00  0.00    +0.000 OA
ENDBRANCH  17  24
ENDBRANCH  16  20
ENDBRANCH   1  16
TORSDOF 5
ENDMDL
MODEL 9
REMARK VINA RESULT:      -7.0      1.464      1.889
REMARK  Name = 
REMARK  8 active torsions:
REMARK  status: ('A' for Active; 'I' for Inactive)
REMARK    1  A    between atoms: C_1  and  O_2
REMARK    2  A    between atoms: O_2  and  C_3
REMARK    3  A    between atoms: C_6  and  C_7
REMARK    4  A    between atoms: C_7  and  C_8
REMARK    5  A    between atoms: C_11  and  O_12
REMARK    6  A    between atoms: C_13  and  O_14
REMARK    7  A    between atoms: O_14  and  C_15
REMARK    8  A    between atoms: N_20  and  C_21
REMARK                            x       y       z     vdW  Elec       q    Type
REMARK                         _______ _______ _______ _____ _____    ______ ____
ROOT
ATOM      1  C   UNL     1       2.834   5.855  18.323  0.00  0.00    +0.000 C 
ATOM      2  C   UNL     1       2.252   7.214  18.715  0.00  0.00    +0.000 A 
ATOM      3  C   UNL     1       2.343   8.312  17.840  0.00  0.00    +0.000 A 
ATOM      4  C   UNL     1       1.886   9.572  18.240  0.00  0.00    +0.000 A 
ATOM      5  C   UNL     1       1.290   9.762  19.492  0.00  0.00    +0.000 A 
ATOM      6  C   UNL     1       1.193   8.670  20.358  0.00  0.00    +0.000 A 
ATOM      7  C   UNL     1       1.680   7.406  19.985  0.00  0.00    +0.000 A 
ATOM      8  C   UNL     1       1.536   6.253  20.951  0.00  0.00    +0.000 C 
ATOM      9  C   UNL     1       2.335   5.009  20.559  0.00  0.00    +0.000 C 
ATOM     10  N   UNL     1       2.234   4.760  19.121  0.00  0.00    +0.000 NA
ATOM     11  C   UNL     1       2.694   3.428  18.762  0.00  0.00    +0.000 C 
ENDROOT
BRANCH   4  12
ATOM     12  O   UNL     1       2.034  10.646  17.403  0.00  0.00    +0.000 OA
ATOM     13  H   UNL     1       2.748  11.212  17.734  0.00  0.00    +0.000 HD
ENDBRANCH   4  12
BRANCH   5  14
ATOM     14  O   UNL     1       0.850  11.027  19.782  0.00  0.00    +0.000 OA
ATOM     15  C   UNL     1      -0.465  11.152  20.304  0.00  0.00    +0.000 C 
ENDBRANCH   5  14
BRANCH   1  16
ATOM     16  C   UNL     1       4.396   5.888  18.180  0.00  0.00    +0.000 C 
BRANCH  16  20
ATOM     17  C   UNL     1       6.110   4.402  14.482  0.00  0.00    +0.000 A 
ATOM     18  C   UNL     1       6.080   3.595  15.620  0.00  0.00    +0.000 A 
ATOM     19  C   UNL     1       5.553   4.080  16.824  0.00  0.00    +0.000 A 
ATOM     20  C   UNL     1       5.059   5.390  16.911  0.00  0.00    +0.000 A 
ATOM     21  C   UNL     1       5.123   6.193  15.766  0.00  0.00    +0.000 A 
ATOM     22  C   UNL     1       5.662   5.715  14.570  0.00  0.00    +0.000 A 
BRANCH  17  24
ATOM     23  C   UNL     1       5.632   3.426  12.398  0.00  0.00    +0.000 C 
ATOM     24  O   UNL     1       6.617   3.836  13.345  0.00  0.00    +0.000 OA
ENDBRANCH  17  24
ENDBRANCH  16  20
ENDBRANCH   1  16
TORSDOF 5
ENDMDL
