MODEL 1
REMARK VINA RESULT:      -8.1      0.000      0.000
REMARK  Name = 
REMARK  13 active torsions:
REMARK  status: ('A' for Active; 'I' for Inactive)
REMARK    1  A    between atoms: C_1  and  C_2
REMARK    2  A    between atoms: C_2  and  C_3
REMARK    3  A    between atoms: C_3  and  O_4
REMARK    4  A    between atoms: O_4  and  C_5
REMARK    5  A    between atoms: C_5  and  C_7
REMARK    6  A    between atoms: C_10  and  O_11
REMARK    7  A    between atoms: O_11  and  C_12
REMARK    8  A    between atoms: C_13  and  C_14
REMARK    9  A    between atoms: C_17  and  C_18
REMARK   10  A    between atoms: C_21  and  O_22
REMARK   11  A    between atoms: O_22  and  C_23
REMARK   12  A    between atoms: C_23  and  C_24
REMARK   13  A    between atoms: C_26  and  O_27
REMARK                            x       y       z     vdW  Elec       q    Type
REMARK                         _______ _______ _______ _____ _____    ______ ____
ROOT
ATOM      1  C   UNL     1       3.709   4.835  19.686  0.00  0.00    +0.000 A 
ATOM      2  C   UNL     1       3.370   3.504  20.074  0.00  0.00    +0.000 A 
ATOM      3  C   UNL     1       4.226   2.310  20.281  0.00  0.00    +0.000 C 
ATOM      4  N   UNL     1       2.044   3.371  20.215  0.00  0.00    +0.000 NA
ATOM      5  N   UNL     1       1.566   4.589  19.931  0.00  0.00    +0.000 N 
ATOM      6  C   UNL     1       2.520   5.540  19.659  0.00  0.00    +0.000 A 
ATOM      7  H   UNL     1       0.558   4.731  19.911  0.00  0.00    +0.000 HD
ENDROOT
BRANCH   6   8
ATOM      8  C   UNL     1       2.159   6.928  19.354  0.00  0.00    +0.000 A 
ATOM      9  C   UNL     1       2.329   7.440  18.062  0.00  0.00    +0.000 A 
ATOM     10  C   UNL     1       2.002   8.771  17.769  0.00  0.00    +0.000 A 
ATOM     11  C   UNL     1       1.491   9.617  18.755  0.00  0.00    +0.000 A 
ATOM     12  C   UNL     1       1.320   9.127  20.048  0.00  0.00    +0.000 A 
ATOM     13  C   UNL     1       1.657   7.800  20.340  0.00  0.00    +0.000 A 
BRANCH  13  14
ATOM     14  O   UNL     1       1.498   7.348  21.629  0.00  0.00    +0.000 OA
ATOM     15  H   UNL     1       0.732   7.799  22.024  0.00  0.00    +0.000 HD
ENDBRANCH  13  14
BRANCH  11  16
ATOM     16  O   UNL     1       1.205  10.890  18.337  0.00  0.00    +0.000 OA
BRANCH  16  17
ATOM     17  C   UNL     1       0.362  11.673  19.183  0.00  0.00    +0.000 C 
ATOM     18  C   UNL     1      -0.108  12.888  18.406  0.00  0.00    +0.000 C 
ENDBRANCH  16  17
ENDBRANCH  11  16
ENDBRANCH   6   8
BRANCH   1  19
ATOM     19  O   UNL     1       4.906   5.389  19.368  0.00  0.00    +0.000 OA
BRANCH  19  23
ATOM     20  C   UNL     1       6.576   5.110  15.551  0.00  0.00    +0.000 A 
ATOM     21  C   UNL     1       5.360   4.472  15.824  0.00  0.00    +0.000 A 
ATOM     22  C   UNL     1       4.759   4.607  17.075  0.00  0.00    +0.000 A 
ATOM     23  C   UNL     1       5.401   5.320  18.086  0.00  0.00    +0.000 A 
ATOM     24  C   UNL     1       6.588   6.004  17.811  0.00  0.00    +0.000 A 
ATOM     25  C   UNL     1       7.175   5.901  16.543  0.00  0.00    +0.000 A 
BRANCH  20  26
ATOM     26  C   UNL     1       7.206   4.848  14.227  0.00  0.00    +0.000 C 
ATOM     27  O   UNL     1       7.988   5.621  13.695  0.00  0.00    +0.000 OA
BRANCH  26  28
ATOM     28  O   UNL     1       6.707   3.713  13.677  0.00  0.00    +0.000 OA
BRANCH  28  29
ATOM     29  C   UNL     1       6.394   3.790  12.279  0.00  0.00    +0.000 C 
BRANCH  29  31
ATOM     30  C   UNL     1       4.174   3.349  11.219  0.00  0.00    +0.000 C 
ATOM     31  C   UNL     1       5.394   2.716  11.873  0.00  0.00    +0.000 C 
ENDBRANCH  29  31
ENDBRANCH  28  29
ENDBRANCH  26  28
ENDBRANCH  20  26
ENDBRANCH  19  23
ENDBRANCH   1  19
TORSDOF 10
ENDMDL
MODEL 2
REMARK VINA RESULT:      -8.1      1.797      7.478
REMARK  Name = 
REMARK  13 active torsions:
REMARK  status: ('A' for Active; 'I' for Inactive)
REMARK    1  A    between atoms: C_1  and  C_2
REMARK    2  A    between atoms: C_2  and  C_3
REMARK    3  A    between atoms: C_3  and  O_4
REMARK    4  A    between atoms: O_4  and  C_5
REMARK    5  A    between atoms: C_5  and  C_7
REMARK    6  A    between atoms: C_10  and  O_11
REMARK    7  A    between atoms: O_11  and  C_12
REMARK    8  A    between atoms: C_13  and  C_14
REMARK    9  A    between atoms: C_17  and  C_18
REMARK   10  A    between atoms: C_21  and  O_22
REMARK   11  A    between atoms: O_22  and  C_23
REMARK   12  A    between atoms: C_23  and  C_24
REMARK   13  A    between atoms: C_26  and  O_27
REMARK                            x       y       z     vdW  Elec       q    Type
REMARK                         _______ _______ _______ _____ _____    ______ ____
ROOT
ATOM      1  C   UNL     1       3.110   4.162  19.338  0.00  0.00    +0.000 A 
ATOM      2  C   UNL     1       2.123   3.208  19.729  0.00  0.00    +0.000 A 
ATOM      3  C   UNL     1       1.137   3.235  20.838  0.00  0.00    +0.000 C 
ATOM      4  N   UNL     1       2.180   2.118  18.953  0.00  0.00    +0.000 NA
ATOM      5  N   UNL     1       3.171   2.386  18.093  0.00  0.00    +0.000 N 
ATOM      6  C   UNL     1       3.740   3.629  18.230  0.00  0.00    +0.000 A 
ATOM      7  H   UNL     1       3.452   1.670  17.425  0.00  0.00    +0.000 HD
ENDROOT
BRANCH   6   8
ATOM      8  C   UNL     1       4.820   4.083  17.348  0.00  0.00    +0.000 A 
ATOM      9  C   UNL     1       4.649   4.090  15.958  0.00  0.00    +0.000 A 
ATOM     10  C   UNL     1       5.683   4.506  15.110  0.00  0.00    +0.000 A 
ATOM     11  C   UNL     1       6.907   4.934  15.628  0.00  0.00    +0.000 A 
ATOM     12  C   UNL     1       7.098   4.929  17.008  0.00  0.00    +0.000 A 
ATOM     13  C   UNL     1       6.067   4.502  17.853  0.00  0.00    +0.000 A 
BRANCH  13  14
ATOM     14  O   UNL     1       6.289   4.488  19.210  0.00  0.00    +0.000 OA
ATOM     15  H   UNL     1       7.238   4.624  19.371  0.00  0.00    +0.000 HD
ENDBRANCH  13  14
BRANCH  11  16
ATOM     16  O   UNL     1       7.830   5.322  14.693  0.00  0.00    +0.000 OA
BRANCH  16  17
ATOM     17  C   UNL     1       7.561   4.971  13.336  0.00  0.00    +0.000 C 
ATOM     18  C   UNL     1       8.321   5.921  12.430  0.00  0.00    +0.000 C 
ENDBRANCH  16  17
ENDBRANCH  11  16
ENDBRANCH   6   8
BRANCH   1  19
ATOM     19  O   UNL     1       3.452   5.358  19.882  0.00  0.00    +0.000 OA
BRANCH  19  23
ATOM     20  C   UNL     1       1.384   8.911  19.146  0.00  0.00    +0.000 A 
ATOM     21  C   UNL     1       2.111   8.304  18.113  0.00  0.00    +0.000 A 
ATOM     22  C   UNL     1       2.755   7.086  18.326  0.00  0.00    +0.000 A 
ATOM     23  C   UNL     1       2.740   6.499  19.590  0.00  0.00    +0.000 A 
ATOM     24  C   UNL     1       1.977   7.067  20.614  0.00  0.00    +0.000 A 
ATOM     25  C   UNL     1       1.297   8.271  20.392  0.00  0.00    +0.000 A 
BRANCH  20  26
ATOM     26  C   UNL     1       0.799  10.253  18.876  0.00  0.00    +0.000 C 
ATOM     27  O   UNL     1       1.086  11.249  19.523  0.00  0.00    +0.000 OA
BRANCH  26  28
ATOM     28  O   UNL     1      -0.148  10.176  17.909  0.00  0.00    +0.000 OA
BRANCH  28  29
ATOM     29  C   UNL     1      -1.481  10.510  18.321  0.00  0.00    +0.000 C 
BRANCH  29  31
ATOM     30  C   UNL     1      -3.378  10.885  16.739  0.00  0.00    +0.000 C 
ATOM     31  C   UNL     1      -2.522   9.838  17.437  0.00  0.00    +0.000 C 
ENDBRANCH  29  31
ENDBRANCH  28  29
ENDBRANCH  26  28
ENDBRANCH  20  26
ENDBRANCH  19  23
ENDBRANCH   1  19
TORSDOF 10
ENDMDL
MODEL 3
REMARK VINA RESULT:      -7.9      1.769      7.639
REMARK  Name = 
REMARK  13 active torsions:
REMARK  status: ('A' for Active; 'I' for Inactive)
REMARK    1  A    between atoms: C_1  and  C_2
REMARK    2  A    between atoms: C_2  and  C_3
REMARK    3  A    between atoms: C_3  and  O_4
REMARK    4  A    between atoms: O_4  and  C_5
REMARK    5  A    between atoms: C_5  and  C_7
REMARK    6  A    between atoms: C_10  and  O_11
REMARK    7  A    between atoms: O_11  and  C_12
REMARK    8  A    between atoms: C_13  and  C_14
REMARK    9  A    between atoms: C_17  and  C_18
REMARK   10  A    between atoms: C_21  and  O_22
REMARK   11  A    between atoms: O_22  and  C_23
REMARK   12  A    between atoms: C_23  and  C_24
REMARK   13  A    between atoms: C_26  and  O_27
REMARK                            x       y       z     vdW  Elec       q    Type
REMARK                         _______ _______ _______ _____ _____    ______ ____
ROOT
ATOM      1  C   UNL     1       3.082   3.628  19.580  0.00  0.00    +0.000 A 
ATOM      2  C   UNL     1       2.904   2.783  20.717  0.00  0.00    +0.000 A 
ATOM      3  C   UNL     1       1.702   2.519  21.546  0.00  0.00    +0.000 C 
ATOM      4  N   UNL     1       4.058   2.197  21.062  0.00  0.00    +0.000 NA
ATOM      5  N   UNL     1       4.935   2.656  20.160  0.00  0.00    +0.000 N 
ATOM      6  C   UNL     1       4.402   3.481  19.198  0.00  0.00    +0.000 A 
ATOM      7  H   UNL     1       5.915   2.397  20.248  0.00  0.00    +0.000 HD
ENDROOT
BRANCH   6   8
ATOM      8  C   UNL     1       5.227   4.046  18.124  0.00  0.00    +0.000 A 
ATOM      9  C   UNL     1       4.936   3.768  16.783  0.00  0.00    +0.000 A 
ATOM     10  C   UNL     1       5.731   4.290  15.754  0.00  0.00    +0.000 A 
ATOM     11  C   UNL     1       6.826   5.108  16.039  0.00  0.00    +0.000 A 
ATOM     12  C   UNL     1       7.134   5.390  17.368  0.00  0.00    +0.000 A 
ATOM     13  C   UNL     1       6.345   4.858  18.394  0.00  0.00    +0.000 A 
BRANCH  13  14
ATOM     14  O   UNL     1       6.683   5.136  19.698  0.00  0.00    +0.000 OA
ATOM     15  H   UNL     1       5.891   5.456  20.163  0.00  0.00    +0.000 HD
ENDBRANCH  13  14
BRANCH  11  16
ATOM     16  O   UNL     1       7.515   5.559  14.944  0.00  0.00    +0.000 OA
BRANCH  16  17
ATOM     17  C   UNL     1       7.212   4.942  13.692  0.00  0.00    +0.000 C 
ATOM     18  C   UNL     1       8.120   5.532  12.630  0.00  0.00    +0.000 C 
ENDBRANCH  16  17
ENDBRANCH  11  16
ENDBRANCH   6   8
BRANCH   1  19
ATOM     19  O   UNL     1       2.214   4.455  18.944  0.00  0.00    +0.000 OA
BRANCH  19  23
ATOM     20  C   UNL     1       1.580   8.434  20.043  0.00  0.00    +0.000 A 
ATOM     21  C   UNL     1       1.278   7.408  20.947  0.00  0.00    +0.000 A 
ATOM     22  C   UNL     1       1.542   6.079  20.619  0.00  0.00    +0.000 A 
ATOM     23  C   UNL     1       2.042   5.756  19.358  0.00  0.00    +0.000 A 
ATOM     24  C   UNL     1       2.396   6.773  18.467  0.00  0.00    +0.000 A 
ATOM     25  C   UNL     1       2.167   8.111  18.810  0.00  0.00    +0.000 A 
BRANCH  20  26
ATOM     26  C   UNL     1       1.187   9.819  20.422  0.00  0.00    +0.000 C 
ATOM     27  O   UNL     1       1.266  10.246  21.564  0.00  0.00    +0.000 OA
BRANCH  26  28
ATOM     28  O   UNL     1       0.646  10.469  19.362  0.00  0.00    +0.000 OA
BRANCH  28  29
ATOM     29  C   UNL     1       0.876  11.885  19.323  0.00  0.00    +0.000 C 
BRANCH  29  31
ATOM     30  C   UNL     1      -1.386  11.866  18.261  0.00  0.00    +0.000 C 
ATOM     31  C   UNL     1      -0.424  12.655  19.136  0.00  0.00    +0.000 C 
ENDBRANCH  29  31
ENDBRANCH  28  29
ENDBRANCH  26  28
ENDBRANCH  20  26
ENDBRANCH  19  23
ENDBRANCH   1  19
TORSDOF 10
ENDMDL
MODEL 4
REMARK VINA RESULT:      -7.9      2.996      7.208
REMARK  Name = 
REMARK  13 active torsions:
REMARK  status: ('A' for Active; 'I' for Inactive)
REMARK    1  A    between atoms: C_1  and  C_2
REMARK    2  A    between atoms: C_2  and  C_3
REMARK    3  A    between atoms: C_3  and  O_4
REMARK    4  A    between atoms: O_4  and  C_5
REMARK    5  A    between atoms: C_5  and  C_7
REMARK    6  A    between atoms: C_10  and  O_11
REMARK    7  A    between atoms: O_11  and  C_12
REMARK    8  A    between atoms: C_13  and  C_14
REMARK    9  A    between atoms: C_17  and  C_18
REMARK   10  A    between atoms: C_21  and  O_22
REMARK   11  A    between atoms: O_22  and  C_23
REMARK   12  A    between atoms: C_23  and  C_24
REMARK   13  A    between atoms: C_26  and  O_27
REMARK                            x       y       z     vdW  Elec       q    Type
REMARK                         _______ _______ _______ _____ _____    ______ ____
ROOT
ATOM      1  C   UNL     1       3.524   4.062  18.601  0.00  0.00    +0.000 A 
ATOM      2  C   UNL     1       3.258   2.761  19.126  0.00  0.00    +0.000 A 
ATOM      3  C   UNL     1       1.983   2.014  19.257  0.00  0.00    +0.000 C 
ATOM      4  N   UNL     1       4.379   2.198  19.596  0.00  0.00    +0.000 NA
ATOM      5  N   UNL     1       5.323   3.119  19.364  0.00  0.00    +0.000 N 
ATOM      6  C   UNL     1       4.889   4.248  18.713  0.00  0.00    +0.000 A 
ATOM      7  H   UNL     1       6.271   2.947  19.693  0.00  0.00    +0.000 HD
ENDROOT
BRANCH   6   8
ATOM      8  C   UNL     1       5.806   5.337  18.364  0.00  0.00    +0.000 A 
ATOM      9  C   UNL     1       5.594   6.105  17.212  0.00  0.00    +0.000 A 
ATOM     10  C   UNL     1       6.477   7.135  16.864  0.00  0.00    +0.000 A 
ATOM     11  C   UNL     1       7.585   7.430  17.661  0.00  0.00    +0.000 A 
ATOM     12  C   UNL     1       7.815   6.673  18.809  0.00  0.00    +0.000 A 
ATOM     13  C   UNL     1       6.937   5.638  19.148  0.00  0.00    +0.000 A 
BRANCH  13  14
ATOM     14  O   UNL     1       7.199   4.893  20.275  0.00  0.00    +0.000 OA
ATOM     15  H   UNL     1       6.894   5.391  21.052  0.00  0.00    +0.000 HD
ENDBRANCH  13  14
BRANCH  11  16
ATOM     16  O   UNL     1       8.363   8.465  17.215  0.00  0.00    +0.000 OA
BRANCH  16  17
ATOM     17  C   UNL     1       8.119   9.750  17.788  0.00  0.00    +0.000 C 
ATOM     18  C   UNL     1       9.148   9.999  18.875  0.00  0.00    +0.000 C 
ENDBRANCH  16  17
ENDBRANCH  11  16
ENDBRANCH   6   8
BRANCH   1  19
ATOM     19  O   UNL     1       2.686   5.004  18.096  0.00  0.00    +0.000 OA
BRANCH  19  23
ATOM     20  C   UNL     1       1.463   8.388  20.215  0.00  0.00    +0.000 A 
ATOM     21  C   UNL     1       1.485   7.140  20.853  0.00  0.00    +0.000 A 
ATOM     22  C   UNL     1       1.950   6.012  20.177  0.00  0.00    +0.000 A 
ATOM     23  C   UNL     1       2.329   6.105  18.839  0.00  0.00    +0.000 A 
ATOM     24  C   UNL     1       2.361   7.351  18.208  0.00  0.00    +0.000 A 
ATOM     25  C   UNL     1       1.930   8.493  18.896  0.00  0.00    +0.000 A 
BRANCH  20  26
ATOM     26  C   UNL     1       0.869   9.530  20.964  0.00  0.00    +0.000 C 
ATOM     27  O   UNL     1       1.348   9.970  21.999  0.00  0.00    +0.000 OA
BRANCH  26  28
ATOM     28  O   UNL     1      -0.301   9.915  20.399  0.00  0.00    +0.000 OA
BRANCH  28  29
ATOM     29  C   UNL     1      -0.373  11.294  20.007  0.00  0.00    +0.000 C 
BRANCH  29  31
ATOM     30  C   UNL     1      -1.255  10.190  17.946  0.00  0.00    +0.000 C 
ATOM     31  C   UNL     1      -1.228  11.474  18.761  0.00  0.00    +0.000 C 
ENDBRANCH  29  31
ENDBRANCH  28  29
ENDBRANCH  26  28
ENDBRANCH  20  26
ENDBRANCH  19  23
ENDBRANCH   1  19
TORSDOF 10
ENDMDL
MODEL 5
REMARK VINA RESULT:      -7.9      1.862      7.938
REMARK  Name = 
REMARK  13 active torsions:
REMARK  status: ('A' for Active; 'I' for Inactive)
REMARK    1  A    between atoms: C_1  and  C_2
REMARK    2  A    between atoms: C_2  and  C_3
REMARK    3  A    between atoms: C_3  and  O_4
REMARK    4  A    between atoms: O_4  and  C_5
REMARK    5  A    between atoms: C_5  and  C_7
REMARK    6  A    between atoms: C_10  and  O_11
REMARK    7  A    between atoms: O_11  and  C_12
REMARK    8  A    between atoms: C_13  and  C_14
REMARK    9  A    between atoms: C_17  and  C_18
REMARK   10  A    between atoms: C_21  and  O_22
REMARK   11  A    between atoms: O_22  and  C_23
REMARK   12  A    between atoms: C_23  and  C_24
REMARK   13  A    between atoms: C_26  and  O_27
REMARK                            x       y       z     vdW  Elec       q    Type
REMARK                         _______ _______ _______ _____ _____    ______ ____
ROOT
ATOM      1  C   UNL     1       2.961   4.116  19.025  0.00  0.00    +0.000 A 
ATOM      2  C   UNL     1       1.869   3.236  19.289  0.00  0.00    +0.000 A 
ATOM      3  C   UNL     1       0.871   3.236  20.387  0.00  0.00    +0.000 C 
ATOM      4  N   UNL     1       1.821   2.250  18.383  0.00  0.00    +0.000 NA
ATOM      5  N   UNL     1       2.852   2.510  17.569  0.00  0.00    +0.000 N 
ATOM      6  C   UNL     1       3.551   3.656  17.862  0.00  0.00    +0.000 A 
ATOM      7  H   UNL     1       3.066   1.855  16.820  0.00  0.00    +0.000 HD
ENDROOT
BRANCH   6   8
ATOM      8  C   UNL     1       4.691   4.093  17.050  0.00  0.00    +0.000 A 
ATOM      9  C   UNL     1       4.531   4.360  15.685  0.00  0.00    +0.000 A 
ATOM     10  C   UNL     1       5.620   4.760  14.899  0.00  0.00    +0.000 A 
ATOM     11  C   UNL     1       6.890   4.912  15.459  0.00  0.00    +0.000 A 
ATOM     12  C   UNL     1       7.069   4.645  16.815  0.00  0.00    +0.000 A 
ATOM     13  C   UNL     1       5.982   4.235  17.594  0.00  0.00    +0.000 A 
BRANCH  13  14
ATOM     14  O   UNL     1       6.192   3.959  18.926  0.00  0.00    +0.000 OA
ATOM     15  H   UNL     1       5.835   4.693  19.454  0.00  0.00    +0.000 HD
ENDBRANCH  13  14
BRANCH  11  16
ATOM     16  O   UNL     1       7.865   5.315  14.586  0.00  0.00    +0.000 OA
BRANCH  16  17
ATOM     17  C   UNL     1       7.682   4.974  13.211  0.00  0.00    +0.000 C 
ATOM     18  C   UNL     1       8.407   5.999  12.358  0.00  0.00    +0.000 C 
ENDBRANCH  16  17
ENDBRANCH  11  16
ENDBRANCH   6   8
BRANCH   1  19
ATOM     19  O   UNL     1       3.422   5.191  19.714  0.00  0.00    +0.000 OA
BRANCH  19  23
ATOM     20  C   UNL     1       1.454   8.844  19.245  0.00  0.00    +0.000 A 
ATOM     21  C   UNL     1       1.341   8.145  20.455  0.00  0.00    +0.000 A 
ATOM     22  C   UNL     1       2.043   6.956  20.649  0.00  0.00    +0.000 A 
ATOM     23  C   UNL     1       2.804   6.416  19.613  0.00  0.00    +0.000 A 
ATOM     24  C   UNL     1       2.965   7.128  18.422  0.00  0.00    +0.000 A 
ATOM     25  C   UNL     1       2.292   8.342  18.238  0.00  0.00    +0.000 A 
BRANCH  20  26
ATOM     26  C   UNL     1       0.607  10.056  19.073  0.00  0.00    +0.000 C 
ATOM     27  O   UNL     1       0.968  11.038  18.442  0.00  0.00    +0.000 OA
BRANCH  26  28
ATOM     28  O   UNL     1      -0.537   9.947  19.792  0.00  0.00    +0.000 OA
BRANCH  28  29
ATOM     29  C   UNL     1      -0.904  11.108  20.551  0.00  0.00    +0.000 C 
BRANCH  29  31
ATOM     30  C   UNL     1      -1.323  11.172  23.013  0.00  0.00    +0.000 C 
ATOM     31  C   UNL     1      -0.258  11.100  21.929  0.00  0.00    +0.000 C 
ENDBRANCH  29  31
ENDBRANCH  28  29
ENDBRANCH  26  28
ENDBRANCH  20  26
ENDBRANCH  19  23
ENDBRANCH   1  19
TORSDOF 10
ENDMDL
MODEL 6
REMARK VINA RESULT:      -7.9      1.803      7.844
REMARK  Name = 
REMARK  13 active torsions:
REMARK  status: ('A' for Active; 'I' for Inactive)
REMARK    1  A    between atoms: C_1  and  C_2
REMARK    2  A    between atoms: C_2  and  C_3
REMARK    3  A    between atoms: C_3  and  O_4
REMARK    4  A    between atoms: O_4  and  C_5
REMARK    5  A    between atoms: C_5  and  C_7
REMARK    6  A    between atoms: C_10  and  O_11
REMARK    7  A    between atoms: O_11  and  C_12
REMARK    8  A    between atoms: C_13  and  C_14
REMARK    9  A    between atoms: C_17  and  C_18
REMARK   10  A    between atoms: C_21  and  O_22
REMARK   11  A    between atoms: O_22  and  C_23
REMARK   12  A    between atoms: C_23  and  C_24
REMARK   13  A    between atoms: C_26  and  O_27
REMARK                            x       y       z     vdW  Elec       q    Type
REMARK                         _______ _______ _______ _____ _____    ______ ____
ROOT
ATOM      1  C   UNL     1       3.200   3.554  19.496  0.00  0.00    +0.000 A 
ATOM      2  C   UNL     1       3.062   2.794  20.696  0.00  0.00    +0.000 A 
ATOM      3  C   UNL     1       1.883   2.572  21.569  0.00  0.00    +0.000 C 
ATOM      4  N   UNL     1       4.234   2.256  21.058  0.00  0.00    +0.000 NA
ATOM      5  N   UNL     1       5.083   2.661  20.105  0.00  0.00    +0.000 N 
ATOM      6  C   UNL     1       4.515   3.402  19.096  0.00  0.00    +0.000 A 
ATOM      7  H   UNL     1       6.070   2.427  20.190  0.00  0.00    +0.000 HD
ENDROOT
BRANCH   6   8
ATOM      8  C   UNL     1       5.306   3.898  17.965  0.00  0.00    +0.000 A 
ATOM      9  C   UNL     1       4.919   3.619  16.649  0.00  0.00    +0.000 A 
ATOM     10  C   UNL     1       5.681   4.075  15.565  0.00  0.00    +0.000 A 
ATOM     11  C   UNL     1       6.838   4.829  15.769  0.00  0.00    +0.000 A 
ATOM     12  C   UNL     1       7.242   5.112  17.072  0.00  0.00    +0.000 A 
ATOM     13  C   UNL     1       6.485   4.645  18.153  0.00  0.00    +0.000 A 
BRANCH  13  14
ATOM     14  O   UNL     1       6.917   4.922  19.429  0.00  0.00    +0.000 OA
ATOM     15  H   UNL     1       6.371   4.420  20.058  0.00  0.00    +0.000 HD
ENDBRANCH  13  14
BRANCH  11  16
ATOM     16  O   UNL     1       7.486   5.220  14.627  0.00  0.00    +0.000 OA
BRANCH  16  17
ATOM     17  C   UNL     1       6.742   5.156  13.409  0.00  0.00    +0.000 C 
ATOM     18  C   UNL     1       7.540   4.357  12.396  0.00  0.00    +0.000 C 
ENDBRANCH  16  17
ENDBRANCH  11  16
ENDBRANCH   6   8
BRANCH   1  19
ATOM     19  O   UNL     1       2.304   4.315  18.819  0.00  0.00    +0.000 OA
BRANCH  19  23
ATOM     20  C   UNL     1       1.739   8.395  19.511  0.00  0.00    +0.000 A 
ATOM     21  C   UNL     1       1.549   7.481  20.556  0.00  0.00    +0.000 A 
ATOM     22  C   UNL     1       1.794   6.123  20.357  0.00  0.00    +0.000 A 
ATOM     23  C   UNL     1       2.160   5.655  19.096  0.00  0.00    +0.000 A 
ATOM     24  C   UNL     1       2.403   6.562  18.060  0.00  0.00    +0.000 A 
ATOM     25  C   UNL     1       2.195   7.931  18.268  0.00  0.00    +0.000 A 
BRANCH  20  26
ATOM     26  C   UNL     1       1.371   9.815  19.768  0.00  0.00    +0.000 C 
ATOM     27  O   UNL     1       1.370  10.671  18.897  0.00  0.00    +0.000 OA
BRANCH  26  28
ATOM     28  O   UNL     1       1.155  10.021  21.090  0.00  0.00    +0.000 OA
BRANCH  28  29
ATOM     29  C   UNL     1       0.249  11.088  21.409  0.00  0.00    +0.000 C 
BRANCH  29  31
ATOM     30  C   UNL     1      -0.160   9.513  23.305  0.00  0.00    +0.000 C 
ATOM     31  C   UNL     1      -0.720  10.684  22.511  0.00  0.00    +0.000 C 
ENDBRANCH  29  31
ENDBRANCH  28  29
ENDBRANCH  26  28
ENDBRANCH  20  26
ENDBRANCH  19  23
ENDBRANCH   1  19
TORSDOF 10
ENDMDL
MODEL 7
REMARK VINA RESULT:      -7.8      1.792      7.612
REMARK  Name = 
REMARK  13 active torsions:
REMARK  status: ('A' for Active; 'I' for Inactive)
REMARK    1  A    between atoms: C_1  and  C_2
REMARK    2  A    between atoms: C_2  and  C_3
REMARK    3  A    between atoms: C_3  and  O_4
REMARK    4  A    between atoms: O_4  and  C_5
REMARK    5  A    between atoms: C_5  and  C_7
REMARK    6  A    between atoms: C_10  and  O_11
REMARK    7  A    between atoms: O_11  and  C_12
REMARK    8  A    between atoms: C_13  and  C_14
REMARK    9  A    between atoms: C_17  and  C_18
REMARK   10  A    between atoms: C_21  and  O_22
REMARK   11  A    between atoms: O_22  and  C_23
REMARK   12  A    between atoms: C_23  and  C_24
REMARK   13  A    between atoms: C_26  and  O_27
REMARK                            x       y       z     vdW  Elec       q    Type
REMARK                         _______ _______ _______ _____ _____    ______ ____
ROOT
ATOM      1  C   UNL     1       2.931   4.588  18.969  0.00  0.00    +0.000 A 
ATOM      2  C   UNL     1       1.833   3.737  19.296  0.00  0.00    +0.000 A 
ATOM      3  C   UNL     1       0.813   3.844  20.368  0.00  0.00    +0.000 C 
ATOM      4  N   UNL     1       1.804   2.666  18.491  0.00  0.00    +0.000 NA
ATOM      5  N   UNL     1       2.851   2.846  17.676  0.00  0.00    +0.000 N 
ATOM      6  C   UNL     1       3.544   4.017  17.869  0.00  0.00    +0.000 A 
ATOM      7  H   UNL     1       3.080   2.121  17.000  0.00  0.00    +0.000 HD
ENDROOT
BRANCH   6   8
ATOM      8  C   UNL     1       4.701   4.373  17.041  0.00  0.00    +0.000 A 
ATOM      9  C   UNL     1       4.557   4.560  15.661  0.00  0.00    +0.000 A 
ATOM     10  C   UNL     1       5.662   4.882  14.862  0.00  0.00    +0.000 A 
ATOM     11  C   UNL     1       6.932   5.035  15.422  0.00  0.00    +0.000 A 
ATOM     12  C   UNL     1       7.095   4.847  16.793  0.00  0.00    +0.000 A 
ATOM     13  C   UNL     1       5.992   4.514  17.587  0.00  0.00    +0.000 A 
BRANCH  13  14
ATOM     14  O   UNL     1       6.185   4.315  18.934  0.00  0.00    +0.000 OA
ATOM     15  H   UNL     1       5.833   3.440  19.172  0.00  0.00    +0.000 HD
ENDBRANCH  13  14
BRANCH  11  16
ATOM     16  O   UNL     1       7.923   5.359  14.534  0.00  0.00    +0.000 OA
BRANCH  16  17
ATOM     17  C   UNL     1       7.766   4.893  13.193  0.00  0.00    +0.000 C 
ATOM     18  C   UNL     1       8.228   5.984  12.245  0.00  0.00    +0.000 C 
ENDBRANCH  16  17
ENDBRANCH  11  16
ENDBRANCH   6   8
BRANCH   1  19
ATOM     19  O   UNL     1       3.379   5.726  19.558  0.00  0.00    +0.000 OA
BRANCH  19  23
ATOM     20  C   UNL     1       1.261   9.265  18.905  0.00  0.00    +0.000 A 
ATOM     21  C   UNL     1       1.230   8.662  20.169  0.00  0.00    +0.000 A 
ATOM     22  C   UNL     1       1.982   7.515  20.420  0.00  0.00    +0.000 A 
ATOM     23  C   UNL     1       2.713   6.919  19.393  0.00  0.00    +0.000 A 
ATOM     24  C   UNL     1       2.793   7.539  18.143  0.00  0.00    +0.000 A 
ATOM     25  C   UNL     1       2.069   8.713  17.899  0.00  0.00    +0.000 A 
BRANCH  20  26
ATOM     26  C   UNL     1       0.364  10.433  18.681  0.00  0.00    +0.000 C 
ATOM     27  O   UNL     1       0.767  11.585  18.637  0.00  0.00    +0.000 OA
BRANCH  26  28
ATOM     28  O   UNL     1      -0.933  10.039  18.646  0.00  0.00    +0.000 OA
BRANCH  28  29
ATOM     29  C   UNL     1      -1.523   9.973  17.340  0.00  0.00    +0.000 C 
BRANCH  29  31
ATOM     30  C   UNL     1      -3.809  10.927  17.672  0.00  0.00    +0.000 C 
ATOM     31  C   UNL     1      -2.430  11.168  17.077  0.00  0.00    +0.000 C 
ENDBRANCH  29  31
ENDBRANCH  28  29
ENDBRANCH  26  28
ENDBRANCH  20  26
ENDBRANCH  19  23
ENDBRANCH   1  19
TORSDOF 10
ENDMDL
MODEL 8
REMARK VINA RESULT:      -7.7      1.777      7.622
REMARK  Name = 
REMARK  13 active torsions:
REMARK  status: ('A' for Active; 'I' for Inactive)
REMARK    1  A    between atoms: C_1  and  C_2
REMARK    2  A    between atoms: C_2  and  C_3
REMARK    3  A    between atoms: C_3  and  O_4
REMARK    4  A    between atoms: O_4  and  C_5
REMARK    5  A    between atoms: C_5  and  C_7
REMARK    6  A    between atoms: C_10  and  O_11
REMARK    7  A    between atoms: O_11  and  C_12
REMARK    8  A    between atoms: C_13  and  C_14
REMARK    9  A    between atoms: C_17  and  C_18
REMARK   10  A    between atoms: C_21  and  O_22
REMARK   11  A    between atoms: O_22  and  C_23
REMARK   12  A    between atoms: C_23  and  C_24
REMARK   13  A    between atoms: C_26  and  O_27
REMARK                            x       y       z     vdW  Elec       q    Type
REMARK                         _______ _______ _______ _____ _____    ______ ____
ROOT
ATOM      1  C   UNL     1       2.938   4.172  19.057  0.00  0.00    +0.000 A 
ATOM      2  C   UNL     1       1.856   3.288  19.350  0.00  0.00    +0.000 A 
ATOM      3  C   UNL     1       0.853   3.318  20.443  0.00  0.00    +0.000 C 
ATOM      4  N   UNL     1       1.827   2.267  18.484  0.00  0.00    +0.000 NA
ATOM      5  N   UNL     1       2.857   2.510  17.664  0.00  0.00    +0.000 N 
ATOM      6  C   UNL     1       3.540   3.676  17.916  0.00  0.00    +0.000 A 
ATOM      7  H   UNL     1       3.084   1.829  16.942  0.00  0.00    +0.000 HD
ENDROOT
BRANCH   6   8
ATOM      8  C   UNL     1       4.678   4.096  17.092  0.00  0.00    +0.000 A 
ATOM      9  C   UNL     1       4.513   4.344  15.724  0.00  0.00    +0.000 A 
ATOM     10  C   UNL     1       5.600   4.728  14.929  0.00  0.00    +0.000 A 
ATOM     11  C   UNL     1       6.873   4.883  15.481  0.00  0.00    +0.000 A 
ATOM     12  C   UNL     1       7.058   4.635  16.839  0.00  0.00    +0.000 A 
ATOM     13  C   UNL     1       5.972   4.240  17.629  0.00  0.00    +0.000 A 
BRANCH  13  14
ATOM     14  O   UNL     1       6.186   3.982  18.963  0.00  0.00    +0.000 OA
ATOM     15  H   UNL     1       7.134   4.091  19.152  0.00  0.00    +0.000 HD
ENDBRANCH  13  14
BRANCH  11  16
ATOM     16  O   UNL     1       7.846   5.270  14.598  0.00  0.00    +0.000 OA
BRANCH  16  17
ATOM     17  C   UNL     1       7.600   5.015  13.214  0.00  0.00    +0.000 C 
ATOM     18  C   UNL     1       8.440   5.973  12.389  0.00  0.00    +0.000 C 
ENDBRANCH  16  17
ENDBRANCH  11  16
ENDBRANCH   6   8
BRANCH   1  19
ATOM     19  O   UNL     1       3.382   5.279  19.707  0.00  0.00    +0.000 OA
BRANCH  19  23
ATOM     20  C   UNL     1       1.455   8.911  18.979  0.00  0.00    +0.000 A 
ATOM     21  C   UNL     1       1.312   8.288  20.226  0.00  0.00    +0.000 A 
ATOM     22  C   UNL     1       1.999   7.107  20.505  0.00  0.00    +0.000 A 
ATOM     23  C   UNL     1       2.776   6.500  19.520  0.00  0.00    +0.000 A 
ATOM     24  C   UNL     1       2.967   7.138  18.291  0.00  0.00    +0.000 A 
ATOM     25  C   UNL     1       2.309   8.344  18.021  0.00  0.00    +0.000 A 
BRANCH  20  26
ATOM     26  C   UNL     1       0.622  10.118  18.717  0.00  0.00    +0.000 C 
ATOM     27  O   UNL     1      -0.301  10.131  17.918  0.00  0.00    +0.000 OA
BRANCH  26  28
ATOM     28  O   UNL     1       1.103  11.188  19.398  0.00  0.00    +0.000 OA
BRANCH  28  29
ATOM     29  C   UNL     1       1.028  12.443  18.707  0.00  0.00    +0.000 C 
BRANCH  29  31
ATOM     30  C   UNL     1       2.738  14.254  18.911  0.00  0.00    +0.000 C 
ATOM     31  C   UNL     1       2.405  12.918  18.265  0.00  0.00    +0.000 C 
ENDBRANCH  29  31
ENDBRANCH  28  29
ENDBRANCH  26  28
ENDBRANCH  20  26
ENDBRANCH  19  23
ENDBRANCH   1  19
TORSDOF 10
ENDMDL
MODEL 9
REMARK VINA RESULT:      -7.6      1.139      1.717
REMARK  Name = 
REMARK  13 active torsions:
REMARK  status: ('A' for Active; 'I' for Inactive)
REMARK    1  A    between atoms: C_1  and  C_2
REMARK    2  A    between atoms: C_2  and  C_3
REMARK    3  A    between atoms: C_3  and  O_4
REMARK    4  A    between atoms: O_4  and  C_5
REMARK    5  A    between atoms: C_5  and  C_7
REMARK    6  A    between atoms: C_10  and  O_11
REMARK    7  A    between atoms: O_11  and  C_12
REMARK    8  A    between atoms: C_13  and  C_14
REMARK    9  A    between atoms: C_17  and  C_18
REMARK   10  A    between atoms: C_21  and  O_22
REMARK   11  A    between atoms: O_22  and  C_23
REMARK   12  A    between atoms: C_23  and  C_24
REMARK   13  A    between atoms: C_26  and  O_27
REMARK                            x       y       z     vdW  Elec       q    Type
REMARK                         _______ _______ _______ _____ _____    ______ ____
ROOT
ATOM      1  C   UNL     1       3.402   4.981  19.957  0.00  0.00    +0.000 A 
ATOM      2  C   UNL     1       3.100   3.610  20.211  0.00  0.00    +0.000 A 
ATOM      3  C   UNL     1       3.966   2.405  20.171  0.00  0.00    +0.000 C 
ATOM      4  N   UNL     1       1.798   3.451  20.483  0.00  0.00    +0.000 NA
ATOM      5  N   UNL     1       1.299   4.691  20.409  0.00  0.00    +0.000 N 
ATOM      6  C   UNL     1       2.223   5.676  20.152  0.00  0.00    +0.000 A 
ATOM      7  H   UNL     1       0.297   4.828  20.520  0.00  0.00    +0.000 HD
ENDROOT
BRANCH   6   8
ATOM      8  C   UNL     1       1.840   7.089  20.066  0.00  0.00    +0.000 A 
ATOM      9  C   UNL     1       1.290   7.746  21.173  0.00  0.00    +0.000 A 
ATOM     10  C   UNL     1       0.905   9.090  21.091  0.00  0.00    +0.000 A 
ATOM     11  C   UNL     1       1.070   9.812  19.908  0.00  0.00    +0.000 A 
ATOM     12  C   UNL     1       1.611   9.173  18.794  0.00  0.00    +0.000 A 
ATOM     13  C   UNL     1       1.984   7.827  18.875  0.00  0.00    +0.000 A 
BRANCH  13  14
ATOM     14  O   UNL     1       2.496   7.216  17.755  0.00  0.00    +0.000 OA
ATOM     15  H   UNL     1       3.445   7.418  17.698  0.00  0.00    +0.000 HD
ENDBRANCH  13  14
BRANCH  11  16
ATOM     16  O   UNL     1       0.662  11.119  19.963  0.00  0.00    +0.000 OA
BRANCH  16  17
ATOM     17  C   UNL     1      -0.194  11.483  21.047  0.00  0.00    +0.000 C 
ATOM     18  C   UNL     1      -1.276  12.406  20.519  0.00  0.00    +0.000 C 
ENDBRANCH  16  17
ENDBRANCH  11  16
ENDBRANCH   6   8
BRANCH   1  19
ATOM     19  O   UNL     1       4.561   5.580  19.579  0.00  0.00    +0.000 OA
BRANCH  19  23
ATOM     20  C   UNL     1       6.173   4.817  15.803  0.00  0.00    +0.000 A 
ATOM     21  C   UNL     1       6.963   5.433  16.783  0.00  0.00    +0.000 A 
ATOM     22  C   UNL     1       6.459   5.638  18.067  0.00  0.00    +0.000 A 
ATOM     23  C   UNL     1       5.140   5.296  18.364  0.00  0.00    +0.000 A 
ATOM     24  C   UNL     1       4.361   4.634  17.411  0.00  0.00    +0.000 A 
ATOM     25  C   UNL     1       4.877   4.392  16.132  0.00  0.00    +0.000 A 
BRANCH  20  26
ATOM     26  C   UNL     1       6.742   4.713  14.431  0.00  0.00    +0.000 C 
ATOM     27  O   UNL     1       7.721   5.346  14.064  0.00  0.00    +0.000 OA
BRANCH  26  28
ATOM     28  O   UNL     1       5.966   3.921  13.650  0.00  0.00    +0.000 OA
BRANCH  28  29
ATOM     29  C   UNL     1       6.524   3.574  12.375  0.00  0.00    +0.000 C 
BRANCH  29  31
ATOM     30  C   UNL     1       4.271   3.199  11.360  0.00  0.00    +0.000 C 
ATOM     31  C   UNL     1       5.637   2.585  11.630  0.00  0.00    +0.000 C 
ENDBRANCH  29  31
ENDBRANCH  28  29
ENDBRANCH  26  28
ENDBRANCH  20  26
ENDBRANCH  19  23
ENDBRANCH   1  19
TORSDOF 10
ENDMDL
