MODEL 1
REMARK VINA RESULT:      -4.7      0.000      0.000
REMARK  Name = 
REMARK  8 active torsions:
REMARK  status: ('A' for Active; 'I' for Inactive)
REMARK    1  A    between atoms: C_1  and  C_2
REMARK    2  A    between atoms: N_4  and  O_5
REMARK    3  A    between atoms: O_5  and  C_6
REMARK    4  A    between atoms: C_6  and  C_7
REMARK    5  A    between atoms: C_7  and  N_8
REMARK    6  A    between atoms: N_8  and  C_9
REMARK    7  A    between atoms: N_8  and  C_10
REMARK    8  A    between atoms: N_8  and  C_11
REMARK                            x       y       z     vdW  Elec       q    Type
REMARK                         _______ _______ _______ _____ _____    ______ ____
ROOT
ATOM      1  O   UNL     1       5.984   4.110  18.776  0.00  0.00    +0.000 OA
ENDROOT
BRANCH   1   5
ATOM      2  C   UNL     1       6.874   4.598  15.195  0.00  0.00    +0.000 C 
ATOM      3  C   UNL     1       7.001   4.369  16.669  0.00  0.00    +0.000 C 
ATOM      4  O   UNL     1       8.109   4.258  17.171  0.00  0.00    +0.000 OA
ATOM      5  N   UNL     1       5.889   4.296  17.445  0.00  0.00    +0.000 N 
ATOM      6  H   UNL     1       4.956   4.380  17.015  0.00  0.00    +0.000 HD
ENDBRANCH   1   5
BRANCH   1   7
ATOM      7  C   UNL     1       4.744   4.494  19.321  0.00  0.00    +0.000 C 
BRANCH   7   8
ATOM      8  C   UNL     1       3.916   3.233  19.631  0.00  0.00    +0.000 C 
BRANCH   8   9
ATOM      9  N   UNL     1       2.616   3.123  18.898  0.00  0.00    +0.000 N 
ATOM     10  C   UNL     1       2.163   4.443  18.394  0.00  0.00    +0.000 C 
ATOM     11  C   UNL     1       2.714   2.170  17.765  0.00  0.00    +0.000 C 
ATOM     12  C   UNL     1       1.598   2.614  19.847  0.00  0.00    +0.000 C 
ENDBRANCH   8   9
ENDBRANCH   7   8
ENDBRANCH   1   7
TORSDOF 4
ENDMDL
MODEL 2
REMARK VINA RESULT:      -4.6      1.934      2.524
REMARK  Name = 
REMARK  8 active torsions:
REMARK  status: ('A' for Active; 'I' for Inactive)
REMARK    1  A    between atoms: C_1  and  C_2
REMARK    2  A    between atoms: N_4  and  O_5
REMARK    3  A    between atoms: O_5  and  C_6
REMARK    4  A    between atoms: C_6  and  C_7
REMARK    5  A    between atoms: C_7  and  N_8
REMARK    6  A    between atoms: N_8  and  C_9
REMARK    7  A    between atoms: N_8  and  C_10
REMARK    8  A    between atoms: N_8  and  C_11
REMARK                            x       y       z     vdW  Elec       q    Type
REMARK                         _______ _______ _______ _____ _____    ______ ____
ROOT
ATOM      1  O   UNL     1       7.661   4.759  17.038  0.00  0.00    +0.000 OA
ENDROOT
BRANCH   1   5
ATOM      2  C   UNL     1       6.068   3.887  13.789  0.00  0.00    +0.000 C 
ATOM      3  C   UNL     1       6.930   4.563  14.809  0.00  0.00    +0.000 C 
ATOM      4  O   UNL     1       7.647   5.493  14.474  0.00  0.00    +0.000 OA
ATOM      5  N   UNL     1       6.906   4.150  16.103  0.00  0.00    +0.000 N 
ATOM      6  H   UNL     1       6.307   3.358  16.378  0.00  0.00    +0.000 HD
ENDBRANCH   1   5
BRANCH   1   7
ATOM      7  C   UNL     1       6.947   4.662  18.249  0.00  0.00    +0.000 C 
BRANCH   7   8
ATOM      8  C   UNL     1       5.677   5.526  18.156  0.00  0.00    +0.000 C 
BRANCH   8   9
ATOM      9  N   UNL     1       4.405   4.842  18.552  0.00  0.00    +0.000 N 
ATOM     10  C   UNL     1       3.609   5.674  19.486  0.00  0.00    +0.000 C 
ATOM     11  C   UNL     1       3.582   4.505  17.365  0.00  0.00    +0.000 C 
ATOM     12  C   UNL     1       4.762   3.581  19.244  0.00  0.00    +0.000 C 
ENDBRANCH   8   9
ENDBRANCH   7   8
ENDBRANCH   1   7
TORSDOF 4
ENDMDL
MODEL 3
REMARK VINA RESULT:      -4.6      0.978      1.153
REMARK  Name = 
REMARK  8 active torsions:
REMARK  status: ('A' for Active; 'I' for Inactive)
REMARK    1  A    between atoms: C_1  and  C_2
REMARK    2  A    between atoms: N_4  and  O_5
REMARK    3  A    between atoms: O_5  and  C_6
REMARK    4  A    between atoms: C_6  and  C_7
REMARK    5  A    between atoms: C_7  and  N_8
REMARK    6  A    between atoms: N_8  and  C_9
REMARK    7  A    between atoms: N_8  and  C_10
REMARK    8  A    between atoms: N_8  and  C_11
REMARK                            x       y       z     vdW  Elec       q    Type
REMARK                         _______ _______ _______ _____ _____    ______ ____
ROOT
ATOM      1  O   UNL     1       5.932   4.031  18.731  0.00  0.00    +0.000 OA
ENDROOT
BRANCH   1   5
ATOM      2  C   UNL     1       6.788   4.595  15.153  0.00  0.00    +0.000 C 
ATOM      3  C   UNL     1       6.929   4.389  16.630  0.00  0.00    +0.000 C 
ATOM      4  O   UNL     1       8.039   4.401  17.139  0.00  0.00    +0.000 OA
ATOM      5  N   UNL     1       5.827   4.199  17.399  0.00  0.00    +0.000 N 
ATOM      6  H   UNL     1       4.893   4.179  16.962  0.00  0.00    +0.000 HD
ENDBRANCH   1   5
BRANCH   1   7
ATOM      7  C   UNL     1       4.710   4.459  19.284  0.00  0.00    +0.000 C 
BRANCH   7   8
ATOM      8  C   UNL     1       3.871   3.227  19.669  0.00  0.00    +0.000 C 
BRANCH   8   9
ATOM      9  N   UNL     1       2.507   3.523  20.212  0.00  0.00    +0.000 N 
ATOM     10  C   UNL     1       2.320   4.975  20.447  0.00  0.00    +0.000 C 
ATOM     11  C   UNL     1       1.445   3.029  19.301  0.00  0.00    +0.000 C 
ATOM     12  C   UNL     1       2.370   2.821  21.510  0.00  0.00    +0.000 C 
ENDBRANCH   8   9
ENDBRANCH   7   8
ENDBRANCH   1   7
TORSDOF 4
ENDMDL
MODEL 4
REMARK VINA RESULT:      -4.6      1.832      2.007
REMARK  Name = 
REMARK  8 active torsions:
REMARK  status: ('A' for Active; 'I' for Inactive)
REMARK    1  A    between atoms: C_1  and  C_2
REMARK    2  A    between atoms: N_4  and  O_5
REMARK    3  A    between atoms: O_5  and  C_6
REMARK    4  A    between atoms: C_6  and  C_7
REMARK    5  A    between atoms: C_7  and  N_8
REMARK    6  A    between atoms: N_8  and  C_9
REMARK    7  A    between atoms: N_8  and  C_10
REMARK    8  A    between atoms: N_8  and  C_11
REMARK                            x       y       z     vdW  Elec       q    Type
REMARK                         _______ _______ _______ _____ _____    ______ ____
ROOT
ATOM      1  O   UNL     1       5.755   3.960  19.540  0.00  0.00    +0.000 OA
ENDROOT
BRANCH   1   5
ATOM      2  C   UNL     1       7.825   6.791  18.294  0.00  0.00    +0.000 C 
ATOM      3  C   UNL     1       7.357   5.401  18.594  0.00  0.00    +0.000 C 
ATOM      4  O   UNL     1       8.042   4.447  18.257  0.00  0.00    +0.000 OA
ATOM      5  N   UNL     1       6.182   5.203  19.245  0.00  0.00    +0.000 N 
ATOM      6  H   UNL     1       5.604   6.011  19.517  0.00  0.00    +0.000 HD
ENDBRANCH   1   5
BRANCH   1   7
ATOM      7  C   UNL     1       4.487   3.823  18.941  0.00  0.00    +0.000 C 
BRANCH   7   8
ATOM      8  C   UNL     1       3.580   2.989  19.863  0.00  0.00    +0.000 C 
BRANCH   8   9
ATOM      9  N   UNL     1       2.324   3.668  20.313  0.00  0.00    +0.000 N 
ATOM     10  C   UNL     1       2.440   5.143  20.216  0.00  0.00    +0.000 C 
ATOM     11  C   UNL     1       1.153   3.212  19.525  0.00  0.00    +0.000 C 
ATOM     12  C   UNL     1       2.096   3.312  21.733  0.00  0.00    +0.000 C 
ENDBRANCH   8   9
ENDBRANCH   7   8
ENDBRANCH   1   7
TORSDOF 4
ENDMDL
MODEL 5
REMARK VINA RESULT:      -4.6      1.903      2.468
REMARK  Name = 
REMARK  8 active torsions:
REMARK  status: ('A' for Active; 'I' for Inactive)
REMARK    1  A    between atoms: C_1  and  C_2
REMARK    2  A    between atoms: N_4  and  O_5
REMARK    3  A    between atoms: O_5  and  C_6
REMARK    4  A    between atoms: C_6  and  C_7
REMARK    5  A    between atoms: C_7  and  N_8
REMARK    6  A    between atoms: N_8  and  C_9
REMARK    7  A    between atoms: N_8  and  C_10
REMARK    8  A    between atoms: N_8  and  C_11
REMARK                            x       y       z     vdW  Elec       q    Type
REMARK                         _______ _______ _______ _____ _____    ______ ____
ROOT
ATOM      1  O   UNL     1       5.347   3.118  19.754  0.00  0.00    +0.000 OA
ENDROOT
BRANCH   1   5
ATOM      2  C   UNL     1       6.497   5.976  17.665  0.00  0.00    +0.000 C 
ATOM      3  C   UNL     1       6.323   5.049  18.828  0.00  0.00    +0.000 C 
ATOM      4  O   UNL     1       6.890   5.290  19.883  0.00  0.00    +0.000 OA
ATOM      5  N   UNL     1       5.530   3.953  18.713  0.00  0.00    +0.000 N 
ATOM      6  H   UNL     1       5.062   3.750  17.817  0.00  0.00    +0.000 HD
ENDBRANCH   1   5
BRANCH   1   7
ATOM      7  C   UNL     1       4.127   2.453  19.520  0.00  0.00    +0.000 C 
BRANCH   7   8
ATOM      8  C   UNL     1       3.034   3.495  19.221  0.00  0.00    +0.000 C 
BRANCH   8   9
ATOM      9  N   UNL     1       2.010   3.677  20.298  0.00  0.00    +0.000 N 
ATOM     10  C   UNL     1       2.362   2.909  21.517  0.00  0.00    +0.000 C 
ATOM     11  C   UNL     1       1.843   5.109  20.648  0.00  0.00    +0.000 C 
ATOM     12  C   UNL     1       0.714   3.169  19.788  0.00  0.00    +0.000 C 
ENDBRANCH   8   9
ENDBRANCH   7   8
ENDBRANCH   1   7
TORSDOF 4
ENDMDL
MODEL 6
REMARK VINA RESULT:      -4.6      0.683      1.391
REMARK  Name = 
REMARK  8 active torsions:
REMARK  status: ('A' for Active; 'I' for Inactive)
REMARK    1  A    between atoms: C_1  and  C_2
REMARK    2  A    between atoms: N_4  and  O_5
REMARK    3  A    between atoms: O_5  and  C_6
REMARK    4  A    between atoms: C_6  and  C_7
REMARK    5  A    between atoms: C_7  and  N_8
REMARK    6  A    between atoms: N_8  and  C_9
REMARK    7  A    between atoms: N_8  and  C_10
REMARK    8  A    between atoms: N_8  and  C_11
REMARK                            x       y       z     vdW  Elec       q    Type
REMARK                         _______ _______ _______ _____ _____    ______ ____
ROOT
ATOM      1  O   UNL     1       5.487   3.807  19.137  0.00  0.00    +0.000 OA
ENDROOT
BRANCH   1   5
ATOM      2  C   UNL     1       7.174   4.679  15.936  0.00  0.00    +0.000 C 
ATOM      3  C   UNL     1       6.948   4.398  17.389  0.00  0.00    +0.000 C 
ATOM      4  O   UNL     1       7.877   4.497  18.175  0.00  0.00    +0.000 OA
ATOM      5  N   UNL     1       5.713   4.045  17.830  0.00  0.00    +0.000 N 
ATOM      6  H   UNL     1       4.935   3.953  17.160  0.00  0.00    +0.000 HD
ENDBRANCH   1   5
BRANCH   1   7
ATOM      7  C   UNL     1       4.271   4.446  19.452  0.00  0.00    +0.000 C 
BRANCH   7   8
ATOM      8  C   UNL     1       3.204   3.379  19.755  0.00  0.00    +0.000 C 
BRANCH   8   9
ATOM      9  N   UNL     1       2.139   3.223  18.714  0.00  0.00    +0.000 N 
ATOM     10  C   UNL     1       0.870   2.734  19.305  0.00  0.00    +0.000 C 
ATOM     11  C   UNL     1       1.892   4.499  18.000  0.00  0.00    +0.000 C 
ATOM     12  C   UNL     1       2.608   2.221  17.728  0.00  0.00    +0.000 C 
ENDBRANCH   8   9
ENDBRANCH   7   8
ENDBRANCH   1   7
TORSDOF 4
ENDMDL
MODEL 7
REMARK VINA RESULT:      -4.6      1.017      1.689
REMARK  Name = 
REMARK  8 active torsions:
REMARK  status: ('A' for Active; 'I' for Inactive)
REMARK    1  A    between atoms: C_1  and  C_2
REMARK    2  A    between atoms: N_4  and  O_5
REMARK    3  A    between atoms: O_5  and  C_6
REMARK    4  A    between atoms: C_6  and  C_7
REMARK    5  A    between atoms: C_7  and  N_8
REMARK    6  A    between atoms: N_8  and  C_9
REMARK    7  A    between atoms: N_8  and  C_10
REMARK    8  A    between atoms: N_8  and  C_11
REMARK                            x       y       z     vdW  Elec       q    Type
REMARK                         _______ _______ _______ _____ _____    ______ ____
ROOT
ATOM      1  O   UNL     1       6.050   4.143  18.686  0.00  0.00    +0.000 OA
ENDROOT
BRANCH   1   5
ATOM      2  C   UNL     1       6.573   4.368  15.008  0.00  0.00    +0.000 C 
ATOM      3  C   UNL     1       6.846   4.336  16.480  0.00  0.00    +0.000 C 
ATOM      4  O   UNL     1       7.989   4.479  16.886  0.00  0.00    +0.000 OA
ATOM      5  N   UNL     1       5.826   4.157  17.358  0.00  0.00    +0.000 N 
ATOM      6  H   UNL     1       4.865   4.026  17.009  0.00  0.00    +0.000 HD
ENDBRANCH   1   5
BRANCH   1   7
ATOM      7  C   UNL     1       5.087   4.996  19.261  0.00  0.00    +0.000 C 
BRANCH   7   8
ATOM      8  C   UNL     1       3.732   4.767  18.565  0.00  0.00    +0.000 C 
BRANCH   8   9
ATOM      9  N   UNL     1       2.658   4.182  19.429  0.00  0.00    +0.000 N 
ATOM     10  C   UNL     1       3.110   2.931  20.085  0.00  0.00    +0.000 C 
ATOM     11  C   UNL     1       2.212   5.147  20.464  0.00  0.00    +0.000 C 
ATOM     12  C   UNL     1       1.500   3.860  18.563  0.00  0.00    +0.000 C 
ENDBRANCH   8   9
ENDBRANCH   7   8
ENDBRANCH   1   7
TORSDOF 4
ENDMDL
MODEL 8
REMARK VINA RESULT:      -4.6      0.480      1.398
REMARK  Name = 
REMARK  8 active torsions:
REMARK  status: ('A' for Active; 'I' for Inactive)
REMARK    1  A    between atoms: C_1  and  C_2
REMARK    2  A    between atoms: N_4  and  O_5
REMARK    3  A    between atoms: O_5  and  C_6
REMARK    4  A    between atoms: C_6  and  C_7
REMARK    5  A    between atoms: C_7  and  N_8
REMARK    6  A    between atoms: N_8  and  C_9
REMARK    7  A    between atoms: N_8  and  C_10
REMARK    8  A    between atoms: N_8  and  C_11
REMARK                            x       y       z     vdW  Elec       q    Type
REMARK                         _______ _______ _______ _____ _____    ______ ____
ROOT
ATOM      1  O   UNL     1       6.071   4.133  18.709  0.00  0.00    +0.000 OA
ENDROOT
BRANCH   1   5
ATOM      2  C   UNL     1       6.561   4.203  15.020  0.00  0.00    +0.000 C 
ATOM      3  C   UNL     1       6.746   4.476  16.481  0.00  0.00    +0.000 C 
ATOM      4  O   UNL     1       7.628   5.238  16.846  0.00  0.00    +0.000 OA
ATOM      5  N   UNL     1       5.931   3.886  17.393  0.00  0.00    +0.000 N 
ATOM      6  H   UNL     1       5.196   3.235  17.079  0.00  0.00    +0.000 HD
ENDBRANCH   1   5
BRANCH   1   7
ATOM      7  C   UNL     1       4.827   4.619  19.156  0.00  0.00    +0.000 C 
BRANCH   7   8
ATOM      8  C   UNL     1       3.928   3.429  19.538  0.00  0.00    +0.000 C 
BRANCH   8   9
ATOM      9  N   UNL     1       2.626   3.347  18.805  0.00  0.00    +0.000 N 
ATOM     10  C   UNL     1       2.639   2.262  17.794  0.00  0.00    +0.000 C 
ATOM     11  C   UNL     1       1.492   3.137  19.739  0.00  0.00    +0.000 C 
ATOM     12  C   UNL     1       2.416   4.634  18.101  0.00  0.00    +0.000 C 
ENDBRANCH   8   9
ENDBRANCH   7   8
ENDBRANCH   1   7
TORSDOF 4
ENDMDL
MODEL 9
REMARK VINA RESULT:      -4.6      1.630      2.139
REMARK  Name = 
REMARK  8 active torsions:
REMARK  status: ('A' for Active; 'I' for Inactive)
REMARK    1  A    between atoms: C_1  and  C_2
REMARK    2  A    between atoms: N_4  and  O_5
REMARK    3  A    between atoms: O_5  and  C_6
REMARK    4  A    between atoms: C_6  and  C_7
REMARK    5  A    between atoms: C_7  and  N_8
REMARK    6  A    between atoms: N_8  and  C_9
REMARK    7  A    between atoms: N_8  and  C_10
REMARK    8  A    between atoms: N_8  and  C_11
REMARK                            x       y       z     vdW  Elec       q    Type
REMARK                         _______ _______ _______ _____ _____    ______ ____
ROOT
ATOM      1  O   UNL     1       5.809   3.824  19.277  0.00  0.00    +0.000 OA
ENDROOT
BRANCH   1   5
ATOM      2  C   UNL     1       7.905   6.767  18.386  0.00  0.00    +0.000 C 
ATOM      3  C   UNL     1       7.366   5.371  18.429  0.00  0.00    +0.000 C 
ATOM      4  O   UNL     1       7.899   4.496  17.763  0.00  0.00    +0.000 OA
ATOM      5  N   UNL     1       6.296   5.078  19.211  0.00  0.00    +0.000 N 
ATOM      6  H   UNL     1       5.843   5.822  19.763  0.00  0.00    +0.000 HD
ENDBRANCH   1   5
BRANCH   1   7
ATOM      7  C   UNL     1       4.506   3.875  18.743  0.00  0.00    +0.000 C 
BRANCH   7   8
ATOM      8  C   UNL     1       3.616   2.861  19.485  0.00  0.00    +0.000 C 
BRANCH   8   9
ATOM      9  N   UNL     1       2.356   3.421  20.068  0.00  0.00    +0.000 N 
ATOM     10  C   UNL     1       2.325   3.268  21.543  0.00  0.00    +0.000 C 
ATOM     11  C   UNL     1       2.187   4.852  19.716  0.00  0.00    +0.000 C 
ATOM     12  C   UNL     1       1.215   2.664  19.500  0.00  0.00    +0.000 C 
ENDBRANCH   8   9
ENDBRANCH   7   8
ENDBRANCH   1   7
TORSDOF 4
ENDMDL
