MODEL 1
REMARK VINA RESULT:      -7.8      0.000      0.000
REMARK  Name = 
REMARK  8 active torsions:
REMARK  status: ('A' for Active; 'I' for Inactive)
REMARK    1  A    between atoms: C_1  and  C_2
REMARK    2  A    between atoms: C_2  and  O_3
REMARK    3  A    between atoms: O_3  and  C_4
REMARK    4  A    between atoms: C_4  and  C_6
REMARK    5  A    between atoms: N_13  and  C_14
REMARK    6  A    between atoms: N_13  and  C_16
REMARK    7  A    between atoms: C_14  and  C_15
REMARK    8  A    between atoms: C_16  and  C_17
REMARK                            x       y       z     vdW  Elec       q    Type
REMARK                         _______ _______ _______ _____ _____    ______ ____
ROOT
ATOM      1  C   UNL     1       6.304   4.176  13.558  0.00  0.00    +0.000 A 
ATOM      2  N   UNL     1       7.405   4.999  13.419  0.00  0.00    +0.000 NA
ATOM      3  N   UNL     1       7.703   5.501  14.610  0.00  0.00    +0.000 NA
ATOM      4  N   UNL     1       6.819   4.992  15.489  0.00  0.00    +0.000 N 
ATOM      5  C   UNL     1       5.891   4.181  14.880  0.00  0.00    +0.000 A 
ATOM      6  N   UNL     1       4.893   3.561  15.567  0.00  0.00    +0.000 NA
ATOM      7  C   UNL     1       4.835   3.704  16.868  0.00  0.00    +0.000 A 
ATOM      8  N   UNL     1       3.803   3.072  17.553  0.00  0.00    +0.000 N 
ATOM      9  C   UNL     1       5.828   4.586  17.606  0.00  0.00    +0.000 A 
ATOM     10  C   UNL     1       5.761   4.835  18.978  0.00  0.00    +0.000 A 
ATOM     11  C   UNL     1       6.708   5.666  19.589  0.00  0.00    +0.000 A 
ATOM     12  C   UNL     1       7.717   6.271  18.834  0.00  0.00    +0.000 A 
ATOM     13  C   UNL     1       7.785   6.056  17.460  0.00  0.00    +0.000 A 
ATOM     14  C   UNL     1       6.833   5.223  16.864  0.00  0.00    +0.000 A 
ENDROOT
BRANCH   1  15
ATOM     15  C   UNL     1       5.758   3.378  12.479  0.00  0.00    +0.000 C 
ATOM     16  O   UNL     1       6.388   2.533  11.854  0.00  0.00    +0.000 OA
BRANCH  15  17
ATOM     17  O   UNL     1       4.480   3.752  12.165  0.00  0.00    +0.000 OA
BRANCH  17  19
ATOM     18  C   UNL     1       3.251   4.012  10.132  0.00  0.00    +0.000 C 
ATOM     19  C   UNL     1       3.880   3.016  11.092  0.00  0.00    +0.000 C 
ENDBRANCH  17  19
ENDBRANCH  15  17
ENDBRANCH   1  15
BRANCH   8  20
ATOM     20  C   UNL     1       3.986   2.013  18.551  0.00  0.00    +0.000 C 
ATOM     21  C   UNL     1       3.562   2.387  19.961  0.00  0.00    +0.000 C 
ENDBRANCH   8  20
BRANCH   8  22
ATOM     22  C   UNL     1       2.413   3.331  17.147  0.00  0.00    +0.000 C 
ATOM     23  C   UNL     1       1.834   4.608  17.735  0.00  0.00    +0.000 C 
ENDBRANCH   8  22
TORSDOF 5
ENDMDL
MODEL 2
REMARK VINA RESULT:      -7.4      2.597      3.795
REMARK  Name = 
REMARK  8 active torsions:
REMARK  status: ('A' for Active; 'I' for Inactive)
REMARK    1  A    between atoms: C_1  and  C_2
REMARK    2  A    between atoms: C_2  and  O_3
REMARK    3  A    between atoms: O_3  and  C_4
REMARK    4  A    between atoms: C_4  and  C_6
REMARK    5  A    between atoms: N_13  and  C_14
REMARK    6  A    between atoms: N_13  and  C_16
REMARK    7  A    between atoms: C_14  and  C_15
REMARK    8  A    between atoms: C_16  and  C_17
REMARK                            x       y       z     vdW  Elec       q    Type
REMARK                         _______ _______ _______ _____ _____    ______ ____
ROOT
ATOM      1  C   UNL     1       5.153   5.370  16.156  0.00  0.00    +0.000 A 
ATOM      2  N   UNL     1       5.166   6.718  15.855  0.00  0.00    +0.000 NA
ATOM      3  N   UNL     1       4.357   7.342  16.702  0.00  0.00    +0.000 NA
ATOM      4  N   UNL     1       3.857   6.410  17.534  0.00  0.00    +0.000 N 
ATOM      5  C   UNL     1       4.291   5.145  17.216  0.00  0.00    +0.000 A 
ATOM      6  N   UNL     1       3.910   4.041  17.914  0.00  0.00    +0.000 NA
ATOM      7  C   UNL     1       3.132   4.186  18.958  0.00  0.00    +0.000 A 
ATOM      8  N   UNL     1       2.744   3.046  19.653  0.00  0.00    +0.000 N 
ATOM      9  C   UNL     1       2.613   5.556  19.365  0.00  0.00    +0.000 A 
ATOM     10  C   UNL     1       1.720   5.755  20.419  0.00  0.00    +0.000 A 
ATOM     11  C   UNL     1       1.279   7.047  20.732  0.00  0.00    +0.000 A 
ATOM     12  C   UNL     1       1.710   8.147  19.985  0.00  0.00    +0.000 A 
ATOM     13  C   UNL     1       2.580   7.965  18.913  0.00  0.00    +0.000 A 
ATOM     14  C   UNL     1       3.013   6.670  18.613  0.00  0.00    +0.000 A 
ENDROOT
BRANCH   1  15
ATOM     15  C   UNL     1       5.998   4.394  15.499  0.00  0.00    +0.000 C 
ATOM     16  O   UNL     1       7.092   4.030  15.915  0.00  0.00    +0.000 OA
BRANCH  15  17
ATOM     17  O   UNL     1       5.479   3.999  14.296  0.00  0.00    +0.000 OA
BRANCH  17  19
ATOM     18  C   UNL     1       5.774   3.160  12.078  0.00  0.00    +0.000 C 
ATOM     19  C   UNL     1       6.428   3.909  13.227  0.00  0.00    +0.000 C 
ENDBRANCH  17  19
ENDBRANCH  15  17
ENDBRANCH   1  15
BRANCH   8  20
ATOM     20  C   UNL     1       3.098   2.754  21.046  0.00  0.00    +0.000 C 
ATOM     21  C   UNL     1       1.912   2.584  21.982  0.00  0.00    +0.000 C 
ENDBRANCH   8  20
BRANCH   8  22
ATOM     22  C   UNL     1       2.084   1.954  18.921  0.00  0.00    +0.000 C 
ATOM     23  C   UNL     1       0.611   2.209  18.643  0.00  0.00    +0.000 C 
ENDBRANCH   8  22
TORSDOF 5
ENDMDL
MODEL 3
REMARK VINA RESULT:      -7.3      0.869      1.360
REMARK  Name = 
REMARK  8 active torsions:
REMARK  status: ('A' for Active; 'I' for Inactive)
REMARK    1  A    between atoms: C_1  and  C_2
REMARK    2  A    between atoms: C_2  and  O_3
REMARK    3  A    between atoms: O_3  and  C_4
REMARK    4  A    between atoms: C_4  and  C_6
REMARK    5  A    between atoms: N_13  and  C_14
REMARK    6  A    between atoms: N_13  and  C_16
REMARK    7  A    between atoms: C_14  and  C_15
REMARK    8  A    between atoms: C_16  and  C_17
REMARK                            x       y       z     vdW  Elec       q    Type
REMARK                         _______ _______ _______ _____ _____    ______ ____
ROOT
ATOM      1  C   UNL     1       6.170   4.197  13.602  0.00  0.00    +0.000 A 
ATOM      2  N   UNL     1       7.295   4.983  13.442  0.00  0.00    +0.000 NA
ATOM      3  N   UNL     1       7.637   5.468  14.628  0.00  0.00    +0.000 NA
ATOM      4  N   UNL     1       6.757   4.984  15.524  0.00  0.00    +0.000 N 
ATOM      5  C   UNL     1       5.789   4.209  14.933  0.00  0.00    +0.000 A 
ATOM      6  N   UNL     1       4.786   3.619  15.640  0.00  0.00    +0.000 NA
ATOM      7  C   UNL     1       4.763   3.755  16.942  0.00  0.00    +0.000 A 
ATOM      8  N   UNL     1       3.726   3.155  17.648  0.00  0.00    +0.000 N 
ATOM      9  C   UNL     1       5.802   4.599  17.662  0.00  0.00    +0.000 A 
ATOM     10  C   UNL     1       5.775   4.842  19.036  0.00  0.00    +0.000 A 
ATOM     11  C   UNL     1       6.764   5.637  19.629  0.00  0.00    +0.000 A 
ATOM     12  C   UNL     1       7.775   6.212  18.854  0.00  0.00    +0.000 A 
ATOM     13  C   UNL     1       7.803   6.004  17.478  0.00  0.00    +0.000 A 
ATOM     14  C   UNL     1       6.810   5.207  16.900  0.00  0.00    +0.000 A 
ENDROOT
BRANCH   1  15
ATOM     15  C   UNL     1       5.573   3.424  12.532  0.00  0.00    +0.000 C 
ATOM     16  O   UNL     1       4.407   3.528  12.168  0.00  0.00    +0.000 OA
BRANCH  15  17
ATOM     17  O   UNL     1       6.437   2.484  12.039  0.00  0.00    +0.000 OA
BRANCH  17  19
ATOM     18  C   UNL     1       6.330   0.186  11.392  0.00  0.00    +0.000 C 
ATOM     19  C   UNL     1       5.875   1.598  11.063  0.00  0.00    +0.000 C 
ENDBRANCH  17  19
ENDBRANCH  15  17
ENDBRANCH   1  15
BRANCH   8  20
ATOM     20  C   UNL     1       3.896   2.084  18.637  0.00  0.00    +0.000 C 
ATOM     21  C   UNL     1       3.224   2.341  19.975  0.00  0.00    +0.000 C 
ENDBRANCH   8  20
BRANCH   8  22
ATOM     22  C   UNL     1       2.336   3.463  17.277  0.00  0.00    +0.000 C 
ATOM     23  C   UNL     1       1.848   4.804  17.800  0.00  0.00    +0.000 C 
ENDBRANCH   8  22
TORSDOF 5
ENDMDL
MODEL 4
REMARK VINA RESULT:      -7.1      2.823      4.637
REMARK  Name = 
REMARK  8 active torsions:
REMARK  status: ('A' for Active; 'I' for Inactive)
REMARK    1  A    between atoms: C_1  and  C_2
REMARK    2  A    between atoms: C_2  and  O_3
REMARK    3  A    between atoms: O_3  and  C_4
REMARK    4  A    between atoms: C_4  and  C_6
REMARK    5  A    between atoms: N_13  and  C_14
REMARK    6  A    between atoms: N_13  and  C_16
REMARK    7  A    between atoms: C_14  and  C_15
REMARK    8  A    between atoms: C_16  and  C_17
REMARK                            x       y       z     vdW  Elec       q    Type
REMARK                         _______ _______ _______ _____ _____    ______ ____
ROOT
ATOM      1  C   UNL     1       5.288   5.516  16.400  0.00  0.00    +0.000 A 
ATOM      2  N   UNL     1       5.265   6.862  16.092  0.00  0.00    +0.000 NA
ATOM      3  N   UNL     1       4.381   7.456  16.883  0.00  0.00    +0.000 NA
ATOM      4  N   UNL     1       3.867   6.507  17.688  0.00  0.00    +0.000 N 
ATOM      5  C   UNL     1       4.371   5.260  17.405  0.00  0.00    +0.000 A 
ATOM      6  N   UNL     1       3.991   4.144  18.085  0.00  0.00    +0.000 NA
ATOM      7  C   UNL     1       3.145   4.261  19.077  0.00  0.00    +0.000 A 
ATOM      8  N   UNL     1       2.760   3.109  19.754  0.00  0.00    +0.000 N 
ATOM      9  C   UNL     1       2.547   5.610  19.443  0.00  0.00    +0.000 A 
ATOM     10  C   UNL     1       1.582   5.777  20.438  0.00  0.00    +0.000 A 
ATOM     11  C   UNL     1       1.072   7.051  20.715  0.00  0.00    +0.000 A 
ATOM     12  C   UNL     1       1.504   8.165  19.990  0.00  0.00    +0.000 A 
ATOM     13  C   UNL     1       2.446   8.015  18.976  0.00  0.00    +0.000 A 
ATOM     14  C   UNL     1       2.948   6.737  18.711  0.00  0.00    +0.000 A 
ENDROOT
BRANCH   1  15
ATOM     15  C   UNL     1       6.210   4.572  15.802  0.00  0.00    +0.000 C 
ATOM     16  O   UNL     1       5.879   3.645  15.072  0.00  0.00    +0.000 OA
BRANCH  15  17
ATOM     17  O   UNL     1       7.494   4.772  16.233  0.00  0.00    +0.000 OA
BRANCH  17  19
ATOM     18  C   UNL     1       7.822   5.704  18.409  0.00  0.00    +0.000 C 
ATOM     19  C   UNL     1       7.736   4.421  17.600  0.00  0.00    +0.000 C 
ENDBRANCH  17  19
ENDBRANCH  15  17
ENDBRANCH   1  15
BRANCH   8  20
ATOM     20  C   UNL     1       3.037   2.837  21.168  0.00  0.00    +0.000 C 
ATOM     21  C   UNL     1       1.806   2.580  22.021  0.00  0.00    +0.000 C 
ENDBRANCH   8  20
BRANCH   8  22
ATOM     22  C   UNL     1       2.191   1.988  18.989  0.00  0.00    +0.000 C 
ATOM     23  C   UNL     1       0.727   2.180  18.624  0.00  0.00    +0.000 C 
ENDBRANCH   8  22
TORSDOF 5
ENDMDL
MODEL 5
REMARK VINA RESULT:      -6.9      2.508      3.726
REMARK  Name = 
REMARK  8 active torsions:
REMARK  status: ('A' for Active; 'I' for Inactive)
REMARK    1  A    between atoms: C_1  and  C_2
REMARK    2  A    between atoms: C_2  and  O_3
REMARK    3  A    between atoms: O_3  and  C_4
REMARK    4  A    between atoms: C_4  and  C_6
REMARK    5  A    between atoms: N_13  and  C_14
REMARK    6  A    between atoms: N_13  and  C_16
REMARK    7  A    between atoms: C_14  and  C_15
REMARK    8  A    between atoms: C_16  and  C_17
REMARK                            x       y       z     vdW  Elec       q    Type
REMARK                         _______ _______ _______ _____ _____    ______ ____
ROOT
ATOM      1  C   UNL     1       5.878   5.717  16.308  0.00  0.00    +0.000 A 
ATOM      2  N   UNL     1       5.627   7.063  16.122  0.00  0.00    +0.000 NA
ATOM      3  N   UNL     1       4.672   7.429  16.967  0.00  0.00    +0.000 NA
ATOM      4  N   UNL     1       4.337   6.341  17.684  0.00  0.00    +0.000 N 
ATOM      5  C   UNL     1       5.034   5.225  17.289  0.00  0.00    +0.000 A 
ATOM      6  N   UNL     1       4.857   4.005  17.867  0.00  0.00    +0.000 NA
ATOM      7  C   UNL     1       4.021   3.892  18.868  0.00  0.00    +0.000 A 
ATOM      8  N   UNL     1       3.845   2.636  19.440  0.00  0.00    +0.000 N 
ATOM      9  C   UNL     1       3.215   5.085  19.357  0.00  0.00    +0.000 A 
ATOM     10  C   UNL     1       2.255   5.000  20.365  0.00  0.00    +0.000 A 
ATOM     11  C   UNL     1       1.545   6.142  20.758  0.00  0.00    +0.000 A 
ATOM     12  C   UNL     1       1.774   7.372  20.135  0.00  0.00    +0.000 A 
ATOM     13  C   UNL     1       2.710   7.471  19.108  0.00  0.00    +0.000 A 
ATOM     14  C   UNL     1       3.411   6.323  18.728  0.00  0.00    +0.000 A 
ENDROOT
BRANCH   1  15
ATOM     15  C   UNL     1       6.932   4.997  15.625  0.00  0.00    +0.000 C 
ATOM     16  O   UNL     1       7.899   4.488  16.181  0.00  0.00    +0.000 OA
BRANCH  15  17
ATOM     17  O   UNL     1       6.780   5.038  14.265  0.00  0.00    +0.000 OA
BRANCH  17  19
ATOM     18  C   UNL     1       6.648   3.734  12.267  0.00  0.00    +0.000 C 
ATOM     19  C   UNL     1       6.144   3.890  13.692  0.00  0.00    +0.000 C 
ENDBRANCH  17  19
ENDBRANCH  15  17
ENDBRANCH   1  15
BRANCH   8  20
ATOM     20  C   UNL     1       4.189   2.290  20.823  0.00  0.00    +0.000 C 
ATOM     21  C   UNL     1       5.264   1.225  20.963  0.00  0.00    +0.000 C 
ENDBRANCH   8  20
BRANCH   8  22
ATOM     22  C   UNL     1       3.455   1.509  18.579  0.00  0.00    +0.000 C 
ATOM     23  C   UNL     1       2.254   1.803  17.694  0.00  0.00    +0.000 C 
ENDBRANCH   8  22
TORSDOF 5
ENDMDL
MODEL 6
REMARK VINA RESULT:      -6.7      3.612      6.416
REMARK  Name = 
REMARK  8 active torsions:
REMARK  status: ('A' for Active; 'I' for Inactive)
REMARK    1  A    between atoms: C_1  and  C_2
REMARK    2  A    between atoms: C_2  and  O_3
REMARK    3  A    between atoms: O_3  and  C_4
REMARK    4  A    between atoms: C_4  and  C_6
REMARK    5  A    between atoms: N_13  and  C_14
REMARK    6  A    between atoms: N_13  and  C_16
REMARK    7  A    between atoms: C_14  and  C_15
REMARK    8  A    between atoms: C_16  and  C_17
REMARK                            x       y       z     vdW  Elec       q    Type
REMARK                         _______ _______ _______ _____ _____    ______ ____
ROOT
ATOM      1  C   UNL     1       3.616   3.481  20.391  0.00  0.00    +0.000 A 
ATOM      2  N   UNL     1       2.549   3.774  21.218  0.00  0.00    +0.000 NA
ATOM      3  N   UNL     1       2.100   4.983  20.907  0.00  0.00    +0.000 NA
ATOM      4  N   UNL     1       2.858   5.439  19.892  0.00  0.00    +0.000 N 
ATOM      5  C   UNL     1       3.851   4.554  19.549  0.00  0.00    +0.000 A 
ATOM      6  N   UNL     1       4.746   4.804  18.554  0.00  0.00    +0.000 NA
ATOM      7  C   UNL     1       4.635   5.911  17.863  0.00  0.00    +0.000 A 
ATOM      8  N   UNL     1       5.563   6.155  16.857  0.00  0.00    +0.000 N 
ATOM      9  C   UNL     1       3.559   6.935  18.189  0.00  0.00    +0.000 A 
ATOM     10  C   UNL     1       3.448   8.164  17.537  0.00  0.00    +0.000 A 
ATOM     11  C   UNL     1       2.435   9.061  17.897  0.00  0.00    +0.000 A 
ATOM     12  C   UNL     1       1.538   8.748  18.922  0.00  0.00    +0.000 A 
ATOM     13  C   UNL     1       1.650   7.538  19.602  0.00  0.00    +0.000 A 
ATOM     14  C   UNL     1       2.665   6.652  19.231  0.00  0.00    +0.000 A 
ENDROOT
BRANCH   1  15
ATOM     15  C   UNL     1       4.292   2.200  20.379  0.00  0.00    +0.000 C 
ATOM     16  O   UNL     1       5.005   1.783  21.285  0.00  0.00    +0.000 OA
BRANCH  15  17
ATOM     17  O   UNL     1       4.128   1.547  19.188  0.00  0.00    +0.000 OA
BRANCH  17  19
ATOM     18  C   UNL     1       2.738   2.117  17.329  0.00  0.00    +0.000 C 
ATOM     19  C   UNL     1       2.778   1.487  18.712  0.00  0.00    +0.000 C 
ENDBRANCH  17  19
ENDBRANCH  15  17
ENDBRANCH   1  15
BRANCH   8  20
ATOM     20  C   UNL     1       5.243   6.258  15.429  0.00  0.00    +0.000 C 
ATOM     21  C   UNL     1       5.629   5.044  14.601  0.00  0.00    +0.000 C 
ENDBRANCH   8  20
BRANCH   8  22
ATOM     22  C   UNL     1       6.996   6.136  17.188  0.00  0.00    +0.000 C 
ATOM     23  C   UNL     1       7.553   7.501  17.563  0.00  0.00    +0.000 C 
ENDBRANCH   8  22
TORSDOF 5
ENDMDL
MODEL 7
REMARK VINA RESULT:      -6.5      4.904      7.089
REMARK  Name = 
REMARK  8 active torsions:
REMARK  status: ('A' for Active; 'I' for Inactive)
REMARK    1  A    between atoms: C_1  and  C_2
REMARK    2  A    between atoms: C_2  and  O_3
REMARK    3  A    between atoms: O_3  and  C_4
REMARK    4  A    between atoms: C_4  and  C_6
REMARK    5  A    between atoms: N_13  and  C_14
REMARK    6  A    between atoms: N_13  and  C_16
REMARK    7  A    between atoms: C_14  and  C_15
REMARK    8  A    between atoms: C_16  and  C_17
REMARK                            x       y       z     vdW  Elec       q    Type
REMARK                         _______ _______ _______ _____ _____    ______ ____
ROOT
ATOM      1  C   UNL     1       1.796   8.595  19.001  0.00  0.00    +0.000 A 
ATOM      2  N   UNL     1       2.385   9.434  18.074  0.00  0.00    +0.000 NA
ATOM      3  N   UNL     1       3.267   8.729  17.378  0.00  0.00    +0.000 NA
ATOM      4  N   UNL     1       3.225   7.467  17.842  0.00  0.00    +0.000 N 
ATOM      5  C   UNL     1       2.345   7.330  18.889  0.00  0.00    +0.000 A 
ATOM      6  N   UNL     1       2.140   6.144  19.526  0.00  0.00    +0.000 NA
ATOM      7  C   UNL     1       2.771   5.078  19.101  0.00  0.00    +0.000 A 
ATOM      8  N   UNL     1       2.557   3.877  19.769  0.00  0.00    +0.000 N 
ATOM      9  C   UNL     1       3.759   5.157  17.948  0.00  0.00    +0.000 A 
ATOM     10  C   UNL     1       4.515   4.069  17.510  0.00  0.00    +0.000 A 
ATOM     11  C   UNL     1       5.412   4.220  16.445  0.00  0.00    +0.000 A 
ATOM     12  C   UNL     1       5.577   5.461  15.823  0.00  0.00    +0.000 A 
ATOM     13  C   UNL     1       4.851   6.564  16.264  0.00  0.00    +0.000 A 
ATOM     14  C   UNL     1       3.958   6.398  17.327  0.00  0.00    +0.000 A 
ENDROOT
BRANCH   1  15
ATOM     15  C   UNL     1       0.710   8.999  19.870  0.00  0.00    +0.000 C 
ATOM     16  O   UNL     1      -0.195   9.759  19.544  0.00  0.00    +0.000 OA
BRANCH  15  17
ATOM     17  O   UNL     1       0.867   8.515  21.141  0.00  0.00    +0.000 OA
BRANCH  17  19
ATOM     18  C   UNL     1       0.019   9.514  23.139  0.00  0.00    +0.000 C 
ATOM     19  C   UNL     1      -0.299   8.599  21.969  0.00  0.00    +0.000 C 
ENDBRANCH  17  19
ENDBRANCH  15  17
ENDBRANCH   1  15
BRANCH   8  20
ATOM     20  C   UNL     1       1.943   2.685  19.174  0.00  0.00    +0.000 C 
ATOM     21  C   UNL     1       0.516   2.879  18.691  0.00  0.00    +0.000 C 
ENDBRANCH   8  20
BRANCH   8  22
ATOM     22  C   UNL     1       2.786   3.817  21.221  0.00  0.00    +0.000 C 
ATOM     23  C   UNL     1       1.962   2.751  21.925  0.00  0.00    +0.000 C 
ENDBRANCH   8  22
TORSDOF 5
ENDMDL
MODEL 8
REMARK VINA RESULT:      -6.5      3.572      6.782
REMARK  Name = 
REMARK  8 active torsions:
REMARK  status: ('A' for Active; 'I' for Inactive)
REMARK    1  A    between atoms: C_1  and  C_2
REMARK    2  A    between atoms: C_2  and  O_3
REMARK    3  A    between atoms: O_3  and  C_4
REMARK    4  A    between atoms: C_4  and  C_6
REMARK    5  A    between atoms: N_13  and  C_14
REMARK    6  A    between atoms: N_13  and  C_16
REMARK    7  A    between atoms: C_14  and  C_15
REMARK    8  A    between atoms: C_16  and  C_17
REMARK                            x       y       z     vdW  Elec       q    Type
REMARK                         _______ _______ _______ _____ _____    ______ ____
ROOT
ATOM      1  C   UNL     1       3.921   2.758  20.105  0.00  0.00    +0.000 A 
ATOM      2  N   UNL     1       2.901   3.031  20.996  0.00  0.00    +0.000 NA
ATOM      3  N   UNL     1       2.464   4.262  20.763  0.00  0.00    +0.000 NA
ATOM      4  N   UNL     1       3.181   4.751  19.734  0.00  0.00    +0.000 N 
ATOM      5  C   UNL     1       4.138   3.864  19.302  0.00  0.00    +0.000 A 
ATOM      6  N   UNL     1       4.989   4.144  18.277  0.00  0.00    +0.000 NA
ATOM      7  C   UNL     1       4.867   5.283  17.644  0.00  0.00    +0.000 A 
ATOM      8  N   UNL     1       5.751   5.557  16.605  0.00  0.00    +0.000 N 
ATOM      9  C   UNL     1       3.831   6.311  18.068  0.00  0.00    +0.000 A 
ATOM     10  C   UNL     1       3.714   7.571  17.480  0.00  0.00    +0.000 A 
ATOM     11  C   UNL     1       2.738   8.469  17.930  0.00  0.00    +0.000 A 
ATOM     12  C   UNL     1       1.885   8.126  18.983  0.00  0.00    +0.000 A 
ATOM     13  C   UNL     1       2.005   6.884  19.601  0.00  0.00    +0.000 A 
ATOM     14  C   UNL     1       2.982   5.997  19.140  0.00  0.00    +0.000 A 
ENDROOT
BRANCH   1  15
ATOM     15  C   UNL     1       4.569   1.466  20.001  0.00  0.00    +0.000 C 
ATOM     16  O   UNL     1       4.342   0.644  19.121  0.00  0.00    +0.000 OA
BRANCH  15  17
ATOM     17  O   UNL     1       5.395   1.224  21.065  0.00  0.00    +0.000 OA
BRANCH  17  19
ATOM     18  C   UNL     1       6.628  -0.270  22.466  0.00  0.00    +0.000 C 
ATOM     19  C   UNL     1       5.929  -0.104  21.127  0.00  0.00    +0.000 C 
ENDBRANCH  17  19
ENDBRANCH  15  17
ENDBRANCH   1  15
BRANCH   8  20
ATOM     20  C   UNL     1       5.365   5.733  15.201  0.00  0.00    +0.000 C 
ATOM     21  C   UNL     1       5.651   4.537  14.308  0.00  0.00    +0.000 C 
ENDBRANCH   8  20
BRANCH   8  22
ATOM     22  C   UNL     1       7.198   5.496  16.865  0.00  0.00    +0.000 C 
ATOM     23  C   UNL     1       7.696   6.584  17.804  0.00  0.00    +0.000 C 
ENDBRANCH   8  22
TORSDOF 5
ENDMDL
MODEL 9
REMARK VINA RESULT:      -6.4      4.728      6.814
REMARK  Name = 
REMARK  8 active torsions:
REMARK  status: ('A' for Active; 'I' for Inactive)
REMARK    1  A    between atoms: C_1  and  C_2
REMARK    2  A    between atoms: C_2  and  O_3
REMARK    3  A    between atoms: O_3  and  C_4
REMARK    4  A    between atoms: C_4  and  C_6
REMARK    5  A    between atoms: N_13  and  C_14
REMARK    6  A    between atoms: N_13  and  C_16
REMARK    7  A    between atoms: C_14  and  C_15
REMARK    8  A    between atoms: C_16  and  C_17
REMARK                            x       y       z     vdW  Elec       q    Type
REMARK                         _______ _______ _______ _____ _____    ______ ____
ROOT
ATOM      1  C   UNL     1       2.067   8.163  19.141  0.00  0.00    +0.000 A 
ATOM      2  N   UNL     1       2.597   9.060  18.234  0.00  0.00    +0.000 NA
ATOM      3  N   UNL     1       3.418   8.400  17.427  0.00  0.00    +0.000 NA
ATOM      4  N   UNL     1       3.394   7.108  17.805  0.00  0.00    +0.000 N 
ATOM      5  C   UNL     1       2.592   6.904  18.902  0.00  0.00    +0.000 A 
ATOM      6  N   UNL     1       2.419   5.678  19.468  0.00  0.00    +0.000 NA
ATOM      7  C   UNL     1       3.004   4.640  18.925  0.00  0.00    +0.000 A 
ATOM      8  N   UNL     1       2.825   3.397  19.522  0.00  0.00    +0.000 N 
ATOM      9  C   UNL     1       3.906   4.793  17.711  0.00  0.00    +0.000 A 
ATOM     10  C   UNL     1       4.615   3.733  17.144  0.00  0.00    +0.000 A 
ATOM     11  C   UNL     1       5.434   3.952  16.029  0.00  0.00    +0.000 A 
ATOM     12  C   UNL     1       5.568   5.232  15.484  0.00  0.00    +0.000 A 
ATOM     13  C   UNL     1       4.890   6.307  16.052  0.00  0.00    +0.000 A 
ATOM     14  C   UNL     1       4.075   6.073  17.164  0.00  0.00    +0.000 A 
ENDROOT
BRANCH   1  15
ATOM     15  C   UNL     1       1.053   8.512  20.114  0.00  0.00    +0.000 C 
ATOM     16  O   UNL     1       0.884   7.932  21.181  0.00  0.00    +0.000 OA
BRANCH  15  17
ATOM     17  O   UNL     1       0.229   9.506  19.658  0.00  0.00    +0.000 OA
BRANCH  17  19
ATOM     18  C   UNL     1       0.874  11.508  20.792  0.00  0.00    +0.000 C 
ATOM     19  C   UNL     1      -0.200  10.442  20.653  0.00  0.00    +0.000 C 
ENDBRANCH  17  19
ENDBRANCH  15  17
ENDBRANCH   1  15
BRANCH   8  20
ATOM     20  C   UNL     1       2.155   2.254  18.893  0.00  0.00    +0.000 C 
ATOM     21  C   UNL     1       0.670   2.448  18.639  0.00  0.00    +0.000 C 
ENDBRANCH   8  20
BRANCH   8  22
ATOM     22  C   UNL     1       3.159   3.234  20.946  0.00  0.00    +0.000 C 
ATOM     23  C   UNL     1       1.962   2.889  21.817  0.00  0.00    +0.000 C 
ENDBRANCH   8  22
TORSDOF 5
ENDMDL
