MODEL 1
REMARK VINA RESULT:      -9.2      0.000      0.000
REMARK  Name = 
REMARK  7 active torsions:
REMARK  status: ('A' for Active; 'I' for Inactive)
REMARK    1  A    between atoms: C_1  and  C_2
REMARK    2  A    between atoms: C_2  and  C_3
REMARK    3  A    between atoms: C_8  and  C_9
REMARK    4  A    between atoms: C_9  and  N_10
REMARK    5  A    between atoms: N_10  and  C_11
REMARK    6  A    between atoms: N_10  and  S_17
REMARK    7  A    between atoms: S_17  and  C_20
REMARK                            x       y       z     vdW  Elec       q    Type
REMARK                         _______ _______ _______ _____ _____    ______ ____
ROOT
ATOM      1  N   UNL     1       3.685   5.194  17.808  0.00  0.00    +0.000 N 
ENDROOT
BRANCH   1   2
ATOM      2  C   UNL     1       4.881   5.102  17.022  0.00  0.00    +0.000 A 
ATOM      3  C   UNL     1       6.043   4.641  17.643  0.00  0.00    +0.000 A 
ATOM      4  C   UNL     1       7.215   4.478  16.905  0.00  0.00    +0.000 A 
ATOM      5  C   UNL     1       7.229   4.784  15.546  0.00  0.00    +0.000 A 
ATOM      6  C   UNL     1       6.075   5.267  14.928  0.00  0.00    +0.000 A 
ATOM      7  C   UNL     1       4.899   5.431  15.665  0.00  0.00    +0.000 A 
ENDBRANCH   1   2
BRANCH   1   8
ATOM      8  S   UNL     1       2.532   3.956  17.657  0.00  0.00    +0.000 S 
ATOM      9  O   UNL     1       1.267   4.556  17.278  0.00  0.00    +0.000 OA
ATOM     10  O   UNL     1       3.093   2.883  16.857  0.00  0.00    +0.000 OA
BRANCH   8  11
ATOM     11  C   UNL     1       2.329   3.322  19.315  0.00  0.00    +0.000 A 
ATOM     12  C   UNL     1       3.412   2.721  19.965  0.00  0.00    +0.000 A 
ATOM     13  C   UNL     1       3.258   2.255  21.273  0.00  0.00    +0.000 A 
ATOM     14  C   UNL     1       2.038   2.412  21.935  0.00  0.00    +0.000 A 
ATOM     15  C   UNL     1       0.978   3.063  21.304  0.00  0.00    +0.000 A 
ATOM     16  C   UNL     1       1.124   3.530  19.996  0.00  0.00    +0.000 A 
ENDBRANCH   8  11
ENDBRANCH   1   8
BRANCH   1  17
ATOM     17  C   UNL     1       3.732   6.003  19.049  0.00  0.00    +0.000 C 
BRANCH  17  25
ATOM     18  C   UNL     1       1.033  12.190  20.698  0.00  0.00    +0.000 C 
ATOM     19  C   UNL     1      -0.023  11.226  20.132  0.00  0.00    +0.000 C 
ATOM     20  C   UNL     1      -1.268  12.032  19.740  0.00  0.00    +0.000 C 
ATOM     21  C   UNL     1      -0.347  10.192  21.188  0.00  0.00    +0.000 C 
ATOM     22  C   UNL     1       0.250   8.994  21.206  0.00  0.00    +0.000 C 
ATOM     23  C   UNL     1       1.159   8.666  20.111  0.00  0.00    +0.000 A 
ATOM     24  C   UNL     1       1.987   7.531  20.143  0.00  0.00    +0.000 A 
ATOM     25  C   UNL     1       2.743   7.161  19.013  0.00  0.00    +0.000 A 
ATOM     26  C   UNL     1       2.615   7.922  17.841  0.00  0.00    +0.000 A 
ATOM     27  C   UNL     1       1.826   9.075  17.824  0.00  0.00    +0.000 A 
ATOM     28  C   UNL     1       1.143   9.471  18.970  0.00  0.00    +0.000 A 
ATOM     29  O   UNL     1       0.458  10.655  18.893  0.00  0.00    +0.000 OA
ENDBRANCH  17  25
ENDBRANCH   1  17
TORSDOF 5
ENDMDL
MODEL 2
REMARK VINA RESULT:      -9.1      1.663      4.507
REMARK  Name = 
REMARK  7 active torsions:
REMARK  status: ('A' for Active; 'I' for Inactive)
REMARK    1  A    between atoms: C_1  and  C_2
REMARK    2  A    between atoms: C_2  and  C_3
REMARK    3  A    between atoms: C_8  and  C_9
REMARK    4  A    between atoms: C_9  and  N_10
REMARK    5  A    between atoms: N_10  and  C_11
REMARK    6  A    between atoms: N_10  and  S_17
REMARK    7  A    between atoms: S_17  and  C_20
REMARK                            x       y       z     vdW  Elec       q    Type
REMARK                         _______ _______ _______ _____ _____    ______ ____
ROOT
ATOM      1  N   UNL     1       3.820   5.410  18.849  0.00  0.00    +0.000 N 
ENDROOT
BRANCH   1   2
ATOM      2  C   UNL     1       2.692   4.606  19.220  0.00  0.00    +0.000 A 
ATOM      3  C   UNL     1       2.008   3.925  18.212  0.00  0.00    +0.000 A 
ATOM      4  C   UNL     1       0.943   3.085  18.532  0.00  0.00    +0.000 A 
ATOM      5  C   UNL     1       0.553   2.931  19.861  0.00  0.00    +0.000 A 
ATOM      6  C   UNL     1       1.220   3.628  20.869  0.00  0.00    +0.000 A 
ATOM      7  C   UNL     1       2.288   4.471  20.551  0.00  0.00    +0.000 A 
ENDBRANCH   1   2
BRANCH   1   8
ATOM      8  S   UNL     1       5.368   4.722  18.976  0.00  0.00    +0.000 S 
ATOM      9  O   UNL     1       6.233   5.670  19.650  0.00  0.00    +0.000 OA
ATOM     10  O   UNL     1       5.243   3.367  19.483  0.00  0.00    +0.000 OA
BRANCH   8  11
ATOM     11  C   UNL     1       5.947   4.598  17.290  0.00  0.00    +0.000 A 
ATOM     12  C   UNL     1       5.232   3.831  16.365  0.00  0.00    +0.000 A 
ATOM     13  C   UNL     1       5.671   3.763  15.040  0.00  0.00    +0.000 A 
ATOM     14  C   UNL     1       6.801   4.477  14.638  0.00  0.00    +0.000 A 
ATOM     15  C   UNL     1       7.478   5.287  15.550  0.00  0.00    +0.000 A 
ATOM     16  C   UNL     1       7.047   5.358  16.876  0.00  0.00    +0.000 A 
ENDBRANCH   8  11
ENDBRANCH   1   8
BRANCH   1  17
ATOM     17  C   UNL     1       3.592   6.530  17.906  0.00  0.00    +0.000 C 
BRANCH  17  25
ATOM     18  C   UNL     1       1.136  12.053  21.334  0.00  0.00    +0.000 C 
ATOM     19  C   UNL     1       0.058  10.978  21.115  0.00  0.00    +0.000 C 
ATOM     20  C   UNL     1      -1.320  11.600  21.371  0.00  0.00    +0.000 C 
ATOM     21  C   UNL     1       0.327   9.826  22.059  0.00  0.00    +0.000 C 
ATOM     22  C   UNL     1       1.010   8.742  21.670  0.00  0.00    +0.000 C 
ATOM     23  C   UNL     1       1.409   8.652  20.268  0.00  0.00    +0.000 A 
ATOM     24  C   UNL     1       2.300   7.667  19.808  0.00  0.00    +0.000 A 
ATOM     25  C   UNL     1       2.551   7.512  18.430  0.00  0.00    +0.000 A 
ATOM     26  C   UNL     1       1.859   8.332  17.525  0.00  0.00    +0.000 A 
ATOM     27  C   UNL     1       1.008   9.340  17.986  0.00  0.00    +0.000 A 
ATOM     28  C   UNL     1       0.826   9.530  19.353  0.00  0.00    +0.000 A 
ATOM     29  O   UNL     1       0.040  10.590  19.721  0.00  0.00    +0.000 OA
ENDBRANCH  17  25
ENDBRANCH   1  17
TORSDOF 5
ENDMDL
MODEL 3
REMARK VINA RESULT:      -9.1      0.093      1.273
REMARK  Name = 
REMARK  7 active torsions:
REMARK  status: ('A' for Active; 'I' for Inactive)
REMARK    1  A    between atoms: C_1  and  C_2
REMARK    2  A    between atoms: C_2  and  C_3
REMARK    3  A    between atoms: C_8  and  C_9
REMARK    4  A    between atoms: C_9  and  N_10
REMARK    5  A    between atoms: N_10  and  C_11
REMARK    6  A    between atoms: N_10  and  S_17
REMARK    7  A    between atoms: S_17  and  C_20
REMARK                            x       y       z     vdW  Elec       q    Type
REMARK                         _______ _______ _______ _____ _____    ______ ____
ROOT
ATOM      1  N   UNL     1       3.732   5.155  17.786  0.00  0.00    +0.000 N 
ENDROOT
BRANCH   1   2
ATOM      2  C   UNL     1       4.914   4.996  16.990  0.00  0.00    +0.000 A 
ATOM      3  C   UNL     1       4.843   5.314  15.633  0.00  0.00    +0.000 A 
ATOM      4  C   UNL     1       5.981   5.232  14.833  0.00  0.00    +0.000 A 
ATOM      5  C   UNL     1       7.193   4.824  15.387  0.00  0.00    +0.000 A 
ATOM      6  C   UNL     1       7.263   4.484  16.738  0.00  0.00    +0.000 A 
ATOM      7  C   UNL     1       6.123   4.565  17.543  0.00  0.00    +0.000 A 
ENDBRANCH   1   2
BRANCH   1   8
ATOM      8  S   UNL     1       2.538   3.951  17.693  0.00  0.00    +0.000 S 
ATOM      9  O   UNL     1       1.288   4.578  17.308  0.00  0.00    +0.000 OA
ATOM     10  O   UNL     1       3.054   2.832  16.924  0.00  0.00    +0.000 OA
BRANCH   8  11
ATOM     11  C   UNL     1       2.337   3.382  19.375  0.00  0.00    +0.000 A 
ATOM     12  C   UNL     1       1.103   3.535  20.016  0.00  0.00    +0.000 A 
ATOM     13  C   UNL     1       0.941   3.061  21.320  0.00  0.00    +0.000 A 
ATOM     14  C   UNL     1       1.996   2.416  21.969  0.00  0.00    +0.000 A 
ATOM     15  C   UNL     1       3.206   2.214  21.305  0.00  0.00    +0.000 A 
ATOM     16  C   UNL     1       3.377   2.687  20.002  0.00  0.00    +0.000 A 
ENDBRANCH   8  11
ENDBRANCH   1   8
BRANCH   1  17
ATOM     17  C   UNL     1       3.822   6.005  18.997  0.00  0.00    +0.000 C 
BRANCH  17  25
ATOM     18  C   UNL     1       1.011  12.129  20.698  0.00  0.00    +0.000 C 
ATOM     19  C   UNL     1      -0.025  11.154  20.114  0.00  0.00    +0.000 C 
ATOM     20  C   UNL     1      -1.280  11.945  19.722  0.00  0.00    +0.000 C 
ATOM     21  C   UNL     1      -0.340  10.102  21.156  0.00  0.00    +0.000 C 
ATOM     22  C   UNL     1       0.276   8.914  21.164  0.00  0.00    +0.000 C 
ATOM     23  C   UNL     1       1.198   8.613  20.071  0.00  0.00    +0.000 A 
ATOM     24  C   UNL     1       2.044   7.492  20.096  0.00  0.00    +0.000 A 
ATOM     25  C   UNL     1       2.814   7.147  18.967  0.00  0.00    +0.000 A 
ATOM     26  C   UNL     1       2.682   7.920  17.803  0.00  0.00    +0.000 A 
ATOM     27  C   UNL     1       1.874   9.060  17.794  0.00  0.00    +0.000 A 
ATOM     28  C   UNL     1       1.177   9.432  18.940  0.00  0.00    +0.000 A 
ATOM     29  O   UNL     1       0.474  10.606  18.872  0.00  0.00    +0.000 OA
ENDBRANCH  17  25
ENDBRANCH   1  17
TORSDOF 5
ENDMDL
MODEL 4
REMARK VINA RESULT:      -8.8      1.654      4.717
REMARK  Name = 
REMARK  7 active torsions:
REMARK  status: ('A' for Active; 'I' for Inactive)
REMARK    1  A    between atoms: C_1  and  C_2
REMARK    2  A    between atoms: C_2  and  C_3
REMARK    3  A    between atoms: C_8  and  C_9
REMARK    4  A    between atoms: C_9  and  N_10
REMARK    5  A    between atoms: N_10  and  C_11
REMARK    6  A    between atoms: N_10  and  S_17
REMARK    7  A    between atoms: S_17  and  C_20
REMARK                            x       y       z     vdW  Elec       q    Type
REMARK                         _______ _______ _______ _____ _____    ______ ____
ROOT
ATOM      1  N   UNL     1       3.668   5.118  18.886  0.00  0.00    +0.000 N 
ENDROOT
BRANCH   1   2
ATOM      2  C   UNL     1       2.622   4.214  19.264  0.00  0.00    +0.000 A 
ATOM      3  C   UNL     1       1.910   3.569  18.252  0.00  0.00    +0.000 A 
ATOM      4  C   UNL     1       0.924   2.636  18.572  0.00  0.00    +0.000 A 
ATOM      5  C   UNL     1       0.642   2.353  19.907  0.00  0.00    +0.000 A 
ATOM      6  C   UNL     1       1.336   3.014  20.922  0.00  0.00    +0.000 A 
ATOM      7  C   UNL     1       2.324   3.949  20.603  0.00  0.00    +0.000 A 
ENDBRANCH   1   2
BRANCH   1   8
ATOM      8  S   UNL     1       5.272   4.568  18.978  0.00  0.00    +0.000 S 
ATOM      9  O   UNL     1       6.062   5.580  19.652  0.00  0.00    +0.000 OA
ATOM     10  O   UNL     1       5.275   3.201  19.467  0.00  0.00    +0.000 OA
BRANCH   8  11
ATOM     11  C   UNL     1       5.831   4.518  17.282  0.00  0.00    +0.000 A 
ATOM     12  C   UNL     1       5.066   3.853  16.318  0.00  0.00    +0.000 A 
ATOM     13  C   UNL     1       5.491   3.843  14.987  0.00  0.00    +0.000 A 
ATOM     14  C   UNL     1       6.658   4.514  14.618  0.00  0.00    +0.000 A 
ATOM     15  C   UNL     1       7.388   5.225  15.572  0.00  0.00    +0.000 A 
ATOM     16  C   UNL     1       6.971   5.238  16.904  0.00  0.00    +0.000 A 
ENDBRANCH   8  11
ENDBRANCH   1   8
BRANCH   1  17
ATOM     17  C   UNL     1       3.326   6.225  17.961  0.00  0.00    +0.000 C 
BRANCH  17  25
ATOM     18  C   UNL     1      -1.573  10.993  19.209  0.00  0.00    +0.000 C 
ATOM     19  C   UNL     1      -0.222  11.367  19.840  0.00  0.00    +0.000 C 
ATOM     20  C   UNL     1      -0.450  12.476  20.875  0.00  0.00    +0.000 C 
ATOM     21  C   UNL     1       0.715  11.823  18.742  0.00  0.00    +0.000 C 
ATOM     22  C   UNL     1       1.593  10.987  18.174  0.00  0.00    +0.000 C 
ATOM     23  C   UNL     1       1.697   9.634  18.714  0.00  0.00    +0.000 A 
ATOM     24  C   UNL     1       2.428   8.625  18.065  0.00  0.00    +0.000 A 
ATOM     25  C   UNL     1       2.633   7.375  18.681  0.00  0.00    +0.000 A 
ATOM     26  C   UNL     1       2.130   7.175  19.976  0.00  0.00    +0.000 A 
ATOM     27  C   UNL     1       1.365   8.162  20.603  0.00  0.00    +0.000 A 
ATOM     28  C   UNL     1       1.107   9.365  19.952  0.00  0.00    +0.000 A 
ATOM     29  O   UNL     1       0.283  10.245  20.601  0.00  0.00    +0.000 OA
ENDBRANCH  17  25
ENDBRANCH   1  17
TORSDOF 5
ENDMDL
MODEL 5
REMARK VINA RESULT:      -8.7      1.646      4.616
REMARK  Name = 
REMARK  7 active torsions:
REMARK  status: ('A' for Active; 'I' for Inactive)
REMARK    1  A    between atoms: C_1  and  C_2
REMARK    2  A    between atoms: C_2  and  C_3
REMARK    3  A    between atoms: C_8  and  C_9
REMARK    4  A    between atoms: C_9  and  N_10
REMARK    5  A    between atoms: N_10  and  C_11
REMARK    6  A    between atoms: N_10  and  S_17
REMARK    7  A    between atoms: S_17  and  C_20
REMARK                            x       y       z     vdW  Elec       q    Type
REMARK                         _______ _______ _______ _____ _____    ______ ____
ROOT
ATOM      1  N   UNL     1       3.645   5.156  18.855  0.00  0.00    +0.000 N 
ENDROOT
BRANCH   1   2
ATOM      2  C   UNL     1       2.620   4.228  19.235  0.00  0.00    +0.000 A 
ATOM      3  C   UNL     1       2.378   4.032  20.595  0.00  0.00    +0.000 A 
ATOM      4  C   UNL     1       1.352   3.185  21.011  0.00  0.00    +0.000 A 
ATOM      5  C   UNL     1       0.570   2.524  20.066  0.00  0.00    +0.000 A 
ATOM      6  C   UNL     1       0.823   2.699  18.705  0.00  0.00    +0.000 A 
ATOM      7  C   UNL     1       1.851   3.548  18.286  0.00  0.00    +0.000 A 
ENDBRANCH   1   2
BRANCH   1   8
ATOM      8  S   UNL     1       5.260   4.638  18.934  0.00  0.00    +0.000 S 
ATOM      9  O   UNL     1       6.034   5.664  19.605  0.00  0.00    +0.000 OA
ATOM     10  O   UNL     1       5.295   3.270  19.419  0.00  0.00    +0.000 OA
BRANCH   8  11
ATOM     11  C   UNL     1       5.808   4.605  17.234  0.00  0.00    +0.000 A 
ATOM     12  C   UNL     1       7.050   5.150  16.894  0.00  0.00    +0.000 A 
ATOM     13  C   UNL     1       7.489   5.095  15.569  0.00  0.00    +0.000 A 
ATOM     14  C   UNL     1       6.702   4.476  14.595  0.00  0.00    +0.000 A 
ATOM     15  C   UNL     1       5.490   3.882  14.948  0.00  0.00    +0.000 A 
ATOM     16  C   UNL     1       5.044   3.936  16.271  0.00  0.00    +0.000 A 
ENDBRANCH   8  11
ENDBRANCH   1   8
BRANCH   1  17
ATOM     17  C   UNL     1       3.273   6.261  17.939  0.00  0.00    +0.000 C 
BRANCH  17  25
ATOM     18  C   UNL     1      -1.571  11.054  19.301  0.00  0.00    +0.000 C 
ATOM     19  C   UNL     1      -0.206  11.415  19.911  0.00  0.00    +0.000 C 
ATOM     20  C   UNL     1      -0.409  12.519  20.957  0.00  0.00    +0.000 C 
ATOM     21  C   UNL     1       0.714  11.871  18.800  0.00  0.00    +0.000 C 
ATOM     22  C   UNL     1       1.577  11.033  18.212  0.00  0.00    +0.000 C 
ATOM     23  C   UNL     1       1.681   9.676  18.742  0.00  0.00    +0.000 A 
ATOM     24  C   UNL     1       2.394   8.666  18.074  0.00  0.00    +0.000 A 
ATOM     25  C   UNL     1       2.601   7.411  18.679  0.00  0.00    +0.000 A 
ATOM     26  C   UNL     1       2.119   7.206  19.981  0.00  0.00    +0.000 A 
ATOM     27  C   UNL     1       1.372   8.194  20.627  0.00  0.00    +0.000 A 
ATOM     28  C   UNL     1       1.111   9.403  19.987  0.00  0.00    +0.000 A 
ATOM     29  O   UNL     1       0.304  10.285  20.657  0.00  0.00    +0.000 OA
ENDBRANCH  17  25
ENDBRANCH   1  17
TORSDOF 5
ENDMDL
MODEL 6
REMARK VINA RESULT:      -8.2      1.789      4.672
REMARK  Name = 
REMARK  7 active torsions:
REMARK  status: ('A' for Active; 'I' for Inactive)
REMARK    1  A    between atoms: C_1  and  C_2
REMARK    2  A    between atoms: C_2  and  C_3
REMARK    3  A    between atoms: C_8  and  C_9
REMARK    4  A    between atoms: C_9  and  N_10
REMARK    5  A    between atoms: N_10  and  C_11
REMARK    6  A    between atoms: N_10  and  S_17
REMARK    7  A    between atoms: S_17  and  C_20
REMARK                            x       y       z     vdW  Elec       q    Type
REMARK                         _______ _______ _______ _____ _____    ______ ____
ROOT
ATOM      1  N   UNL     1       3.610   4.989  18.531  0.00  0.00    +0.000 N 
ENDROOT
BRANCH   1   2
ATOM      2  C   UNL     1       2.735   4.210  19.357  0.00  0.00    +0.000 A 
ATOM      3  C   UNL     1       2.962   4.200  20.734  0.00  0.00    +0.000 A 
ATOM      4  C   UNL     1       2.101   3.506  21.583  0.00  0.00    +0.000 A 
ATOM      5  C   UNL     1       1.015   2.811  21.055  0.00  0.00    +0.000 A 
ATOM      6  C   UNL     1       0.798   2.800  19.676  0.00  0.00    +0.000 A 
ATOM      7  C   UNL     1       1.659   3.495  18.824  0.00  0.00    +0.000 A 
ENDBRANCH   1   2
BRANCH   1   8
ATOM      8  S   UNL     1       5.115   4.323  18.110  0.00  0.00    +0.000 S 
ATOM      9  O   UNL     1       5.534   3.436  19.179  0.00  0.00    +0.000 OA
ATOM     10  O   UNL     1       5.049   3.833  16.746  0.00  0.00    +0.000 OA
BRANCH   8  11
ATOM     11  C   UNL     1       6.241   5.710  18.116  0.00  0.00    +0.000 A 
ATOM     12  C   UNL     1       7.337   5.710  18.984  0.00  0.00    +0.000 A 
ATOM     13  C   UNL     1       8.233   6.782  18.963  0.00  0.00    +0.000 A 
ATOM     14  C   UNL     1       8.048   7.833  18.062  0.00  0.00    +0.000 A 
ATOM     15  C   UNL     1       6.986   7.801  17.158  0.00  0.00    +0.000 A 
ATOM     16  C   UNL     1       6.086   6.734  17.175  0.00  0.00    +0.000 A 
ENDBRANCH   8  11
ENDBRANCH   1   8
BRANCH   1  17
ATOM     17  C   UNL     1       3.003   6.030  17.669  0.00  0.00    +0.000 C 
BRANCH  17  25
ATOM     18  C   UNL     1      -1.257  11.188  19.549  0.00  0.00    +0.000 C 
ATOM     19  C   UNL     1       0.189  11.430  20.011  0.00  0.00    +0.000 C 
ATOM     20  C   UNL     1       0.190  12.536  21.075  0.00  0.00    +0.000 C 
ATOM     21  C   UNL     1       1.021  11.821  18.809  0.00  0.00    +0.000 C 
ATOM     22  C   UNL     1       1.744  10.922  18.131  0.00  0.00    +0.000 C 
ATOM     23  C   UNL     1       1.792   9.555  18.643  0.00  0.00    +0.000 A 
ATOM     24  C   UNL     1       2.345   8.498  17.901  0.00  0.00    +0.000 A 
ATOM     25  C   UNL     1       2.510   7.224  18.478  0.00  0.00    +0.000 A 
ATOM     26  C   UNL     1       2.154   7.045  19.824  0.00  0.00    +0.000 A 
ATOM     27  C   UNL     1       1.564   8.084  20.548  0.00  0.00    +0.000 A 
ATOM     28  C   UNL     1       1.337   9.317  19.942  0.00  0.00    +0.000 A 
ATOM     29  O   UNL     1       0.681  10.254  20.695  0.00  0.00    +0.000 OA
ENDBRANCH  17  25
ENDBRANCH   1  17
TORSDOF 5
ENDMDL
MODEL 7
REMARK VINA RESULT:      -8.2      1.335      1.899
REMARK  Name = 
REMARK  7 active torsions:
REMARK  status: ('A' for Active; 'I' for Inactive)
REMARK    1  A    between atoms: C_1  and  C_2
REMARK    2  A    between atoms: C_2  and  C_3
REMARK    3  A    between atoms: C_8  and  C_9
REMARK    4  A    between atoms: C_9  and  N_10
REMARK    5  A    between atoms: N_10  and  C_11
REMARK    6  A    between atoms: N_10  and  S_17
REMARK    7  A    between atoms: S_17  and  C_20
REMARK                            x       y       z     vdW  Elec       q    Type
REMARK                         _______ _______ _______ _____ _____    ______ ____
ROOT
ATOM      1  N   UNL     1       4.805   4.255  18.152  0.00  0.00    +0.000 N 
ENDROOT
BRANCH   1   2
ATOM      2  C   UNL     1       5.526   4.376  16.918  0.00  0.00    +0.000 A 
ATOM      3  C   UNL     1       4.810   4.274  15.724  0.00  0.00    +0.000 A 
ATOM      4  C   UNL     1       5.457   4.444  14.501  0.00  0.00    +0.000 A 
ATOM      5  C   UNL     1       6.825   4.709  14.469  0.00  0.00    +0.000 A 
ATOM      6  C   UNL     1       7.548   4.788  15.660  0.00  0.00    +0.000 A 
ATOM      7  C   UNL     1       6.901   4.618  16.887  0.00  0.00    +0.000 A 
ENDBRANCH   1   2
BRANCH   1   8
ATOM      8  S   UNL     1       4.397   2.697  18.690  0.00  0.00    +0.000 S 
ATOM      9  O   UNL     1       4.206   1.851  17.528  0.00  0.00    +0.000 OA
ATOM     10  O   UNL     1       5.325   2.298  19.732  0.00  0.00    +0.000 OA
BRANCH   8  11
ATOM     11  C   UNL     1       2.796   2.890  19.460  0.00  0.00    +0.000 A 
ATOM     12  C   UNL     1       2.681   2.805  20.851  0.00  0.00    +0.000 A 
ATOM     13  C   UNL     1       1.433   2.986  21.451  0.00  0.00    +0.000 A 
ATOM     14  C   UNL     1       0.313   3.277  20.669  0.00  0.00    +0.000 A 
ATOM     15  C   UNL     1       0.443   3.418  19.287  0.00  0.00    +0.000 A 
ATOM     16  C   UNL     1       1.687   3.236  18.679  0.00  0.00    +0.000 A 
ENDBRANCH   8  11
ENDBRANCH   1   8
BRANCH   1  17
ATOM     17  C   UNL     1       4.921   5.361  19.132  0.00  0.00    +0.000 C 
BRANCH  17  25
ATOM     18  C   UNL     1       1.173  11.046  20.522  0.00  0.00    +0.000 C 
ATOM     19  C   UNL     1       0.321   9.921  19.910  0.00  0.00    +0.000 C 
ATOM     20  C   UNL     1      -1.011  10.515  19.433  0.00  0.00    +0.000 C 
ATOM     21  C   UNL     1       0.103   8.855  20.962  0.00  0.00    +0.000 C 
ATOM     22  C   UNL     1       0.881   7.768  21.034  0.00  0.00    +0.000 C 
ATOM     23  C   UNL     1       1.896   7.583  19.999  0.00  0.00    +0.000 A 
ATOM     24  C   UNL     1       2.891   6.597  20.097  0.00  0.00    +0.000 A 
ATOM     25  C   UNL     1       3.763   6.345  19.019  0.00  0.00    +0.000 A 
ATOM     26  C   UNL     1       3.586   7.069  17.830  0.00  0.00    +0.000 A 
ATOM     27  C   UNL     1       2.626   8.080  17.749  0.00  0.00    +0.000 A 
ATOM     28  C   UNL     1       1.820   8.369  18.847  0.00  0.00    +0.000 A 
ATOM     29  O   UNL     1       0.961   9.427  18.711  0.00  0.00    +0.000 OA
ENDBRANCH  17  25
ENDBRANCH   1  17
TORSDOF 5
ENDMDL
MODEL 8
REMARK VINA RESULT:      -8.0      1.291      1.772
REMARK  Name = 
REMARK  7 active torsions:
REMARK  status: ('A' for Active; 'I' for Inactive)
REMARK    1  A    between atoms: C_1  and  C_2
REMARK    2  A    between atoms: C_2  and  C_3
REMARK    3  A    between atoms: C_8  and  C_9
REMARK    4  A    between atoms: C_9  and  N_10
REMARK    5  A    between atoms: N_10  and  C_11
REMARK    6  A    between atoms: N_10  and  S_17
REMARK    7  A    between atoms: S_17  and  C_20
REMARK                            x       y       z     vdW  Elec       q    Type
REMARK                         _______ _______ _______ _____ _____    ______ ____
ROOT
ATOM      1  N   UNL     1       4.750   4.343  18.116  0.00  0.00    +0.000 N 
ENDROOT
BRANCH   1   2
ATOM      2  C   UNL     1       5.443   4.474  16.867  0.00  0.00    +0.000 A 
ATOM      3  C   UNL     1       6.820   4.693  16.898  0.00  0.00    +0.000 A 
ATOM      4  C   UNL     1       7.546   4.767  15.709  0.00  0.00    +0.000 A 
ATOM      5  C   UNL     1       6.893   4.631  14.486  0.00  0.00    +0.000 A 
ATOM      6  C   UNL     1       5.511   4.435  14.451  0.00  0.00    +0.000 A 
ATOM      7  C   UNL     1       4.782   4.360  15.641  0.00  0.00    +0.000 A 
ENDBRANCH   1   2
BRANCH   1   8
ATOM      8  S   UNL     1       4.367   2.779  18.657  0.00  0.00    +0.000 S 
ATOM      9  O   UNL     1       4.158   1.935  17.497  0.00  0.00    +0.000 OA
ATOM     10  O   UNL     1       5.323   2.386  19.677  0.00  0.00    +0.000 OA
BRANCH   8  11
ATOM     11  C   UNL     1       2.783   2.955  19.463  0.00  0.00    +0.000 A 
ATOM     12  C   UNL     1       1.626   3.116  18.693  0.00  0.00    +0.000 A 
ATOM     13  C   UNL     1       0.386   3.222  19.326  0.00  0.00    +0.000 A 
ATOM     14  C   UNL     1       0.298   3.140  20.717  0.00  0.00    +0.000 A 
ATOM     15  C   UNL     1       1.447   2.922  21.479  0.00  0.00    +0.000 A 
ATOM     16  C   UNL     1       2.691   2.817  20.853  0.00  0.00    +0.000 A 
ENDBRANCH   8  11
ENDBRANCH   1   8
BRANCH   1  17
ATOM     17  C   UNL     1       4.876   5.447  19.096  0.00  0.00    +0.000 C 
BRANCH  17  25
ATOM     18  C   UNL     1       1.134  11.120  20.547  0.00  0.00    +0.000 C 
ATOM     19  C   UNL     1       0.277   9.996  19.942  0.00  0.00    +0.000 C 
ATOM     20  C   UNL     1      -1.062  10.588  19.482  0.00  0.00    +0.000 C 
ATOM     21  C   UNL     1       0.073   8.926  20.993  0.00  0.00    +0.000 C 
ATOM     22  C   UNL     1       0.854   7.840  21.052  0.00  0.00    +0.000 C 
ATOM     23  C   UNL     1       1.857   7.661  20.005  0.00  0.00    +0.000 A 
ATOM     24  C   UNL     1       2.855   6.676  20.088  0.00  0.00    +0.000 A 
ATOM     25  C   UNL     1       3.715   6.429  19.000  0.00  0.00    +0.000 A 
ATOM     26  C   UNL     1       3.523   7.157  17.815  0.00  0.00    +0.000 A 
ATOM     27  C   UNL     1       2.560   8.166  17.748  0.00  0.00    +0.000 A 
ATOM     28  C   UNL     1       1.766   8.450  18.856  0.00  0.00    +0.000 A 
ATOM     29  O   UNL     1       0.904   9.507  18.734  0.00  0.00    +0.000 OA
ENDBRANCH  17  25
ENDBRANCH   1  17
TORSDOF 5
ENDMDL
MODEL 9
REMARK VINA RESULT:      -7.7      1.016      2.032
REMARK  Name = 
REMARK  7 active torsions:
REMARK  status: ('A' for Active; 'I' for Inactive)
REMARK    1  A    between atoms: C_1  and  C_2
REMARK    2  A    between atoms: C_2  and  C_3
REMARK    3  A    between atoms: C_8  and  C_9
REMARK    4  A    between atoms: C_9  and  N_10
REMARK    5  A    between atoms: N_10  and  C_11
REMARK    6  A    between atoms: N_10  and  S_17
REMARK    7  A    between atoms: S_17  and  C_20
REMARK                            x       y       z     vdW  Elec       q    Type
REMARK                         _______ _______ _______ _____ _____    ______ ____
ROOT
ATOM      1  N   UNL     1       3.549   5.086  17.661  0.00  0.00    +0.000 N 
ENDROOT
BRANCH   1   2
ATOM      2  C   UNL     1       4.545   4.975  16.635  0.00  0.00    +0.000 A 
ATOM      3  C   UNL     1       4.929   6.136  15.961  0.00  0.00    +0.000 A 
ATOM      4  C   UNL     1       5.936   6.088  14.999  0.00  0.00    +0.000 A 
ATOM      5  C   UNL     1       6.557   4.876  14.702  0.00  0.00    +0.000 A 
ATOM      6  C   UNL     1       6.160   3.710  15.357  0.00  0.00    +0.000 A 
ATOM      7  C   UNL     1       5.151   3.755  16.323  0.00  0.00    +0.000 A 
ENDBRANCH   1   2
BRANCH   1   8
ATOM      8  S   UNL     1       2.269   3.969  17.655  0.00  0.00    +0.000 S 
ATOM      9  O   UNL     1       1.036   4.692  17.412  0.00  0.00    +0.000 OA
ATOM     10  O   UNL     1       2.628   2.844  16.810  0.00  0.00    +0.000 OA
BRANCH   8  11
ATOM     11  C   UNL     1       2.192   3.361  19.333  0.00  0.00    +0.000 A 
ATOM     12  C   UNL     1       0.993   3.447  20.048  0.00  0.00    +0.000 A 
ATOM     13  C   UNL     1       0.929   2.943  21.349  0.00  0.00    +0.000 A 
ATOM     14  C   UNL     1       2.046   2.333  21.921  0.00  0.00    +0.000 A 
ATOM     15  C   UNL     1       3.223   2.196  21.184  0.00  0.00    +0.000 A 
ATOM     16  C   UNL     1       3.296   2.700  19.884  0.00  0.00    +0.000 A 
ENDBRANCH   8  11
ENDBRANCH   1   8
BRANCH   1  17
ATOM     17  C   UNL     1       3.930   5.757  18.926  0.00  0.00    +0.000 C 
BRANCH  17  25
ATOM     18  C   UNL     1      -1.630   9.883  18.330  0.00  0.00    +0.000 C 
ATOM     19  C   UNL     1      -0.491  10.550  19.120  0.00  0.00    +0.000 C 
ATOM     20  C   UNL     1      -1.055  11.765  19.869  0.00  0.00    +0.000 C 
ATOM     21  C   UNL     1       0.596  10.957  18.150  0.00  0.00    +0.000 C 
ATOM     22  C   UNL     1       1.662  10.181  17.921  0.00  0.00    +0.000 C 
ATOM     23  C   UNL     1       1.804   8.963  18.714  0.00  0.00    +0.000 A 
ATOM     24  C   UNL     1       2.764   7.983  18.412  0.00  0.00    +0.000 A 
ATOM     25  C   UNL     1       2.976   6.892  19.278  0.00  0.00    +0.000 A 
ATOM     26  C   UNL     1       2.239   6.829  20.471  0.00  0.00    +0.000 A 
ATOM     27  C   UNL     1       1.254   7.780  20.749  0.00  0.00    +0.000 A 
ATOM     28  C   UNL     1       1.003   8.811  19.849  0.00  0.00    +0.000 A 
ATOM     29  O   UNL     1      -0.033   9.652  20.158  0.00  0.00    +0.000 OA
ENDBRANCH  17  25
ENDBRANCH   1  17
TORSDOF 5
ENDMDL
