MODEL 1
REMARK VINA RESULT:      -9.1      0.000      0.000
REMARK  Name = 
REMARK  8 active torsions:
REMARK  status: ('A' for Active; 'I' for Inactive)
REMARK    1  A    between atoms: C_2  and  C_15
REMARK    2  A    between atoms: N_3  and  C_4
REMARK    3  A    between atoms: C_4  and  C_5
REMARK    4  A    between atoms: C_9  and  C_10
REMARK    5  A    between atoms: C_20  and  C_21
REMARK    6  A    between atoms: C_23  and  O_24
REMARK    7  A    between atoms: C_25  and  C_26
REMARK    8  A    between atoms: C_26  and  O_27
REMARK                            x       y       z     vdW  Elec       q    Type
REMARK                         _______ _______ _______ _____ _____    ______ ____
ROOT
ATOM      1  C   UNL     1       0.903   9.484  20.023  0.00  0.00    +0.000 A 
ATOM      2  C   UNL     1       1.054   8.711  21.185  0.00  0.00    +0.000 A 
ATOM      3  C   UNL     1       0.365   9.014  22.363  0.00  0.00    +0.000 A 
ATOM      4  C   UNL     1      -0.478  10.121  22.324  0.00  0.00    +0.000 A 
ATOM      5  N   UNL     1      -1.292  10.673  23.271  0.00  0.00    +0.000 N 
ATOM      6  C   UNL     1      -1.870  11.808  22.768  0.00  0.00    +0.000 A 
ATOM      7  N   UNL     1      -1.520  11.967  21.500  0.00  0.00    +0.000 NA
ATOM      8  C   UNL     1      -0.646  10.931  21.208  0.00  0.00    +0.000 A 
ATOM      9  C   UNL     1       0.054  10.612  20.024  0.00  0.00    +0.000 A 
ATOM     10  H   UNL     1      -1.400  10.351  24.224  0.00  0.00    +0.000 HD
ENDROOT
BRANCH   6  11
ATOM     11  C   UNL     1      -2.690  12.706  23.644  0.00  0.00    +0.000 C 
ATOM     12  C   UNL     1      -2.947  14.095  23.088  0.00  0.00    +0.000 C 
ATOM     13  C   UNL     1      -4.232  14.483  23.790  0.00  0.00    +0.000 C 
ATOM     14  C   UNL     1      -4.995  13.161  23.887  0.00  0.00    +0.000 C 
ATOM     15  O   UNL     1      -4.006  12.103  23.777  0.00  0.00    +0.000 OA
BRANCH  13  16
ATOM     16  O   UNL     1      -3.931  15.009  25.084  0.00  0.00    +0.000 OA
ATOM     17  H   UNL     1      -4.308  15.902  25.172  0.00  0.00    +0.000 HD
ENDBRANCH  13  16
BRANCH  14  18
ATOM     18  C   UNL     1      -6.013  12.998  22.753  0.00  0.00    +0.000 C 
BRANCH  18  19
ATOM     19  O   UNL     1      -5.520  12.113  21.747  0.00  0.00    +0.000 OA
ATOM     20  H   UNL     1      -6.295  11.697  21.329  0.00  0.00    +0.000 HD
ENDBRANCH  18  19
ENDBRANCH  14  18
ENDBRANCH   6  11
BRANCH   1  22
ATOM     21  O   UNL     1       1.491   9.609  17.743  0.00  0.00    +0.000 OA
ATOM     22  C   UNL     1       1.627   9.014  18.805  0.00  0.00    +0.000 C 
ATOM     23  N   UNL     1       2.407   7.882  18.933  0.00  0.00    +0.000 N 
ATOM     24  H   UNL     1       2.363   7.336  19.784  0.00  0.00    +0.000 HD
BRANCH  23  25
ATOM     25  C   UNL     1       3.120   7.301  17.809  0.00  0.00    +0.000 C 
BRANCH  25  26
ATOM     26  C   UNL     1       3.113   5.791  17.866  0.00  0.00    +0.000 A 
ATOM     27  C   UNL     1       4.070   5.046  17.166  0.00  0.00    +0.000 A 
ATOM     28  C   UNL     1       4.068   3.650  17.222  0.00  0.00    +0.000 A 
ATOM     29  C   UNL     1       3.105   2.982  17.979  0.00  0.00    +0.000 A 
ATOM     30  C   UNL     1       2.141   3.702  18.700  0.00  0.00    +0.000 A 
ATOM     31  C   UNL     1       2.162   5.109  18.646  0.00  0.00    +0.000 A 
BRANCH  30  32
ATOM     32  C   UNL     1       1.092   2.985  19.515  0.00  0.00    +0.000 C 
ATOM     33  F   UNL     1       1.610   2.072  20.385  0.00  0.00    +0.000 F 
ATOM     34  F   UNL     1       0.342   3.831  20.270  0.00  0.00    +0.000 F 
ATOM     35  F   UNL     1       0.213   2.293  18.738  0.00  0.00    +0.000 F 
ENDBRANCH  30  32
ENDBRANCH  25  26
ENDBRANCH  23  25
ENDBRANCH   1  22
TORSDOF 8
ENDMDL
MODEL 2
REMARK VINA RESULT:      -8.6      0.844      1.189
REMARK  Name = 
REMARK  8 active torsions:
REMARK  status: ('A' for Active; 'I' for Inactive)
REMARK    1  A    between atoms: C_2  and  C_15
REMARK    2  A    between atoms: N_3  and  C_4
REMARK    3  A    between atoms: C_4  and  C_5
REMARK    4  A    between atoms: C_9  and  C_10
REMARK    5  A    between atoms: C_20  and  C_21
REMARK    6  A    between atoms: C_23  and  O_24
REMARK    7  A    between atoms: C_25  and  C_26
REMARK    8  A    between atoms: C_26  and  O_27
REMARK                            x       y       z     vdW  Elec       q    Type
REMARK                         _______ _______ _______ _____ _____    ______ ____
ROOT
ATOM      1  C   UNL     1       1.077   9.335  19.858  0.00  0.00    +0.000 A 
ATOM      2  C   UNL     1       1.248   8.613  21.050  0.00  0.00    +0.000 A 
ATOM      3  C   UNL     1       0.560   8.951  22.219  0.00  0.00    +0.000 A 
ATOM      4  C   UNL     1      -0.304  10.040  22.140  0.00  0.00    +0.000 A 
ATOM      5  N   UNL     1      -1.125  10.614  23.068  0.00  0.00    +0.000 N 
ATOM      6  C   UNL     1      -1.727  11.716  22.522  0.00  0.00    +0.000 A 
ATOM      7  N   UNL     1      -1.386  11.830  21.247  0.00  0.00    +0.000 NA
ATOM      8  C   UNL     1      -0.493  10.800  20.992  0.00  0.00    +0.000 A 
ATOM      9  C   UNL     1       0.206  10.446  19.818  0.00  0.00    +0.000 A 
ATOM     10  H   UNL     1      -1.222  10.329  24.034  0.00  0.00    +0.000 HD
ENDROOT
BRANCH   6  11
ATOM     11  C   UNL     1      -2.559  12.633  23.365  0.00  0.00    +0.000 C 
ATOM     12  C   UNL     1      -1.907  13.958  23.719  0.00  0.00    +0.000 C 
ATOM     13  C   UNL     1      -3.110  14.848  23.956  0.00  0.00    +0.000 C 
ATOM     14  C   UNL     1      -4.129  14.345  22.934  0.00  0.00    +0.000 C 
ATOM     15  O   UNL     1      -3.738  12.987  22.593  0.00  0.00    +0.000 OA
BRANCH  13  16
ATOM     16  O   UNL     1      -3.580  14.672  25.294  0.00  0.00    +0.000 OA
ATOM     17  H   UNL     1      -4.029  13.812  25.374  0.00  0.00    +0.000 HD
ENDBRANCH  13  16
BRANCH  14  18
ATOM     18  C   UNL     1      -4.128  15.188  21.654  0.00  0.00    +0.000 C 
BRANCH  18  19
ATOM     19  O   UNL     1      -3.784  14.395  20.519  0.00  0.00    +0.000 OA
ATOM     20  H   UNL     1      -4.200  13.524  20.643  0.00  0.00    +0.000 HD
ENDBRANCH  18  19
ENDBRANCH  14  18
ENDBRANCH   6  11
BRANCH   1  22
ATOM     21  O   UNL     1       1.634   9.364  17.568  0.00  0.00    +0.000 OA
ATOM     22  C   UNL     1       1.804   8.829  18.656  0.00  0.00    +0.000 C 
ATOM     23  N   UNL     1       2.625   7.733  18.832  0.00  0.00    +0.000 N 
ATOM     24  H   UNL     1       2.611   7.231  19.709  0.00  0.00    +0.000 HD
BRANCH  23  25
ATOM     25  C   UNL     1       3.346   7.121  17.729  0.00  0.00    +0.000 C 
BRANCH  25  26
ATOM     26  C   UNL     1       3.248   5.614  17.768  0.00  0.00    +0.000 A 
ATOM     27  C   UNL     1       4.140   4.821  17.036  0.00  0.00    +0.000 A 
ATOM     28  C   UNL     1       4.052   3.427  17.076  0.00  0.00    +0.000 A 
ATOM     29  C   UNL     1       3.069   2.810  17.848  0.00  0.00    +0.000 A 
ATOM     30  C   UNL     1       2.169   3.578  18.601  0.00  0.00    +0.000 A 
ATOM     31  C   UNL     1       2.275   4.982  18.563  0.00  0.00    +0.000 A 
BRANCH  30  32
ATOM     32  C   UNL     1       1.097   2.915  19.433  0.00  0.00    +0.000 C 
ATOM     33  F   UNL     1       0.332   3.796  20.136  0.00  0.00    +0.000 F 
ATOM     34  F   UNL     1       0.226   2.185  18.685  0.00  0.00    +0.000 F 
ATOM     35  F   UNL     1       1.612   2.058  20.357  0.00  0.00    +0.000 F 
ENDBRANCH  30  32
ENDBRANCH  25  26
ENDBRANCH  23  25
ENDBRANCH   1  22
TORSDOF 8
ENDMDL
MODEL 3
REMARK VINA RESULT:      -8.4      1.225      1.772
REMARK  Name = 
REMARK  8 active torsions:
REMARK  status: ('A' for Active; 'I' for Inactive)
REMARK    1  A    between atoms: C_2  and  C_15
REMARK    2  A    between atoms: N_3  and  C_4
REMARK    3  A    between atoms: C_4  and  C_5
REMARK    4  A    between atoms: C_9  and  C_10
REMARK    5  A    between atoms: C_20  and  C_21
REMARK    6  A    between atoms: C_23  and  O_24
REMARK    7  A    between atoms: C_25  and  C_26
REMARK    8  A    between atoms: C_26  and  O_27
REMARK                            x       y       z     vdW  Elec       q    Type
REMARK                         _______ _______ _______ _____ _____    ______ ____
ROOT
ATOM      1  C   UNL     1       0.774  10.070  19.015  0.00  0.00    +0.000 A 
ATOM      2  C   UNL     1      -0.447  10.271  18.352  0.00  0.00    +0.000 A 
ATOM      3  C   UNL     1      -1.518  10.925  18.968  0.00  0.00    +0.000 A 
ATOM      4  C   UNL     1      -1.312  11.366  20.272  0.00  0.00    +0.000 A 
ATOM      5  N   UNL     1      -2.122  12.040  21.140  0.00  0.00    +0.000 N 
ATOM      6  C   UNL     1      -1.482  12.182  22.342  0.00  0.00    +0.000 A 
ATOM      7  N   UNL     1      -0.254  11.693  22.259  0.00  0.00    +0.000 NA
ATOM      8  C   UNL     1      -0.132  11.172  20.980  0.00  0.00    +0.000 A 
ATOM      9  C   UNL     1       0.944  10.513  20.344  0.00  0.00    +0.000 A 
ATOM     10  H   UNL     1      -3.077  12.325  20.963  0.00  0.00    +0.000 HD
ENDROOT
BRANCH   6  11
ATOM     11  C   UNL     1      -2.200  12.745  23.532  0.00  0.00    +0.000 C 
ATOM     12  C   UNL     1      -2.654  14.187  23.391  0.00  0.00    +0.000 C 
ATOM     13  C   UNL     1      -3.821  14.245  24.356  0.00  0.00    +0.000 C 
ATOM     14  C   UNL     1      -4.453  12.859  24.231  0.00  0.00    +0.000 C 
ATOM     15  O   UNL     1      -3.422  11.979  23.707  0.00  0.00    +0.000 OA
BRANCH  13  16
ATOM     16  O   UNL     1      -3.335  14.482  25.679  0.00  0.00    +0.000 OA
ATOM     17  H   UNL     1      -2.661  13.817  25.906  0.00  0.00    +0.000 HD
ENDBRANCH  13  16
BRANCH  14  18
ATOM     18  C   UNL     1      -5.640  12.851  23.261  0.00  0.00    +0.000 C 
BRANCH  18  19
ATOM     19  O   UNL     1      -5.236  12.418  21.963  0.00  0.00    +0.000 OA
ATOM     20  H   UNL     1      -5.927  11.813  21.637  0.00  0.00    +0.000 HD
ENDBRANCH  18  19
ENDBRANCH  14  18
ENDBRANCH   6  11
BRANCH   1  22
ATOM     21  O   UNL     1       2.421  10.057  17.328  0.00  0.00    +0.000 OA
ATOM     22  C   UNL     1       1.869   9.432  18.225  0.00  0.00    +0.000 C 
ATOM     23  N   UNL     1       2.188   8.125  18.533  0.00  0.00    +0.000 N 
ATOM     24  H   UNL     1       1.602   7.601  19.169  0.00  0.00    +0.000 HD
BRANCH  23  25
ATOM     25  C   UNL     1       3.201   7.383  17.802  0.00  0.00    +0.000 C 
BRANCH  25  26
ATOM     26  C   UNL     1       3.489   6.049  18.449  0.00  0.00    +0.000 A 
ATOM     27  C   UNL     1       4.713   5.401  18.238  0.00  0.00    +0.000 A 
ATOM     28  C   UNL     1       4.982   4.169  18.840  0.00  0.00    +0.000 A 
ATOM     29  C   UNL     1       4.027   3.570  19.661  0.00  0.00    +0.000 A 
ATOM     30  C   UNL     1       2.797   4.199  19.900  0.00  0.00    +0.000 A 
ATOM     31  C   UNL     1       2.543   5.447  19.298  0.00  0.00    +0.000 A 
BRANCH  30  32
ATOM     32  C   UNL     1       1.757   3.551  20.782  0.00  0.00    +0.000 C 
ATOM     33  F   UNL     1       0.508   4.071  20.623  0.00  0.00    +0.000 F 
ATOM     34  F   UNL     1       1.632   2.215  20.554  0.00  0.00    +0.000 F 
ATOM     35  F   UNL     1       2.043   3.681  22.107  0.00  0.00    +0.000 F 
ENDBRANCH  30  32
ENDBRANCH  25  26
ENDBRANCH  23  25
ENDBRANCH   1  22
TORSDOF 8
ENDMDL
MODEL 4
REMARK VINA RESULT:      -8.4      1.146      1.854
REMARK  Name = 
REMARK  8 active torsions:
REMARK  status: ('A' for Active; 'I' for Inactive)
REMARK    1  A    between atoms: C_2  and  C_15
REMARK    2  A    between atoms: N_3  and  C_4
REMARK    3  A    between atoms: C_4  and  C_5
REMARK    4  A    between atoms: C_9  and  C_10
REMARK    5  A    between atoms: C_20  and  C_21
REMARK    6  A    between atoms: C_23  and  O_24
REMARK    7  A    between atoms: C_25  and  C_26
REMARK    8  A    between atoms: C_26  and  O_27
REMARK                            x       y       z     vdW  Elec       q    Type
REMARK                         _______ _______ _______ _____ _____    ______ ____
ROOT
ATOM      1  C   UNL     1       1.058   9.580  19.558  0.00  0.00    +0.000 A 
ATOM      2  C   UNL     1       1.162   8.956  20.812  0.00  0.00    +0.000 A 
ATOM      3  C   UNL     1       0.386   9.362  21.901  0.00  0.00    +0.000 A 
ATOM      4  C   UNL     1      -0.495  10.418  21.678  0.00  0.00    +0.000 A 
ATOM      5  N   UNL     1      -1.391  11.038  22.501  0.00  0.00    +0.000 N 
ATOM      6  C   UNL     1      -1.977  12.079  21.830  0.00  0.00    +0.000 A 
ATOM      7  N   UNL     1      -1.550  12.105  20.577  0.00  0.00    +0.000 NA
ATOM      8  C   UNL     1      -0.619  11.083  20.465  0.00  0.00    +0.000 A 
ATOM      9  C   UNL     1       0.169  10.660  19.372  0.00  0.00    +0.000 A 
ATOM     10  H   UNL     1      -1.550  10.825  23.477  0.00  0.00    +0.000 HD
ENDROOT
BRANCH   6  11
ATOM     11  C   UNL     1      -2.888  13.034  22.541  0.00  0.00    +0.000 C 
ATOM     12  C   UNL     1      -3.322  12.603  23.930  0.00  0.00    +0.000 C 
ATOM     13  C   UNL     1      -3.628  13.930  24.592  0.00  0.00    +0.000 C 
ATOM     14  C   UNL     1      -2.584  14.873  23.992  0.00  0.00    +0.000 C 
ATOM     15  O   UNL     1      -2.151  14.270  22.743  0.00  0.00    +0.000 OA
BRANCH  13  16
ATOM     16  O   UNL     1      -4.956  14.338  24.256  0.00  0.00    +0.000 OA
ATOM     17  H   UNL     1      -5.201  15.123  24.777  0.00  0.00    +0.000 HD
ENDBRANCH  13  16
BRANCH  14  18
ATOM     18  C   UNL     1      -1.363  15.037  24.904  0.00  0.00    +0.000 C 
BRANCH  18  19
ATOM     19  O   UNL     1      -1.762  15.256  26.257  0.00  0.00    +0.000 OA
ATOM     20  H   UNL     1      -1.606  16.198  26.451  0.00  0.00    +0.000 HD
ENDBRANCH  18  19
ENDBRANCH  14  18
ENDBRANCH   6  11
BRANCH   1  22
ATOM     21  O   UNL     1       1.934   9.574  17.370  0.00  0.00    +0.000 OA
ATOM     22  C   UNL     1       1.879   9.004  18.452  0.00  0.00    +0.000 C 
ATOM     23  N   UNL     1       2.525   7.809  18.702  0.00  0.00    +0.000 N 
ATOM     24  H   UNL     1       2.323   7.298  19.552  0.00  0.00    +0.000 HD
BRANCH  23  25
ATOM     25  C   UNL     1       3.312   7.127  17.689  0.00  0.00    +0.000 C 
BRANCH  25  26
ATOM     26  C   UNL     1       3.225   5.626  17.835  0.00  0.00    +0.000 A 
ATOM     27  C   UNL     1       4.143   4.791  17.184  0.00  0.00    +0.000 A 
ATOM     28  C   UNL     1       4.065   3.403  17.322  0.00  0.00    +0.000 A 
ATOM     29  C   UNL     1       3.067   2.833  18.111  0.00  0.00    +0.000 A 
ATOM     30  C   UNL     1       2.142   3.644  18.783  0.00  0.00    +0.000 A 
ATOM     31  C   UNL     1       2.237   5.042  18.648  0.00  0.00    +0.000 A 
BRANCH  30  32
ATOM     32  C   UNL     1       1.054   3.032  19.633  0.00  0.00    +0.000 C 
ATOM     33  F   UNL     1       1.522   2.160  20.570  0.00  0.00    +0.000 F 
ATOM     34  F   UNL     1       0.336   3.961  20.320  0.00  0.00    +0.000 F 
ATOM     35  F   UNL     1       0.152   2.328  18.896  0.00  0.00    +0.000 F 
ENDBRANCH  30  32
ENDBRANCH  25  26
ENDBRANCH  23  25
ENDBRANCH   1  22
TORSDOF 8
ENDMDL
MODEL 5
REMARK VINA RESULT:      -8.4      3.797      5.140
REMARK  Name = 
REMARK  8 active torsions:
REMARK  status: ('A' for Active; 'I' for Inactive)
REMARK    1  A    between atoms: C_2  and  C_15
REMARK    2  A    between atoms: N_3  and  C_4
REMARK    3  A    between atoms: C_4  and  C_5
REMARK    4  A    between atoms: C_9  and  C_10
REMARK    5  A    between atoms: C_20  and  C_21
REMARK    6  A    between atoms: C_23  and  O_24
REMARK    7  A    between atoms: C_25  and  C_26
REMARK    8  A    between atoms: C_26  and  O_27
REMARK                            x       y       z     vdW  Elec       q    Type
REMARK                         _______ _______ _______ _____ _____    ______ ____
ROOT
ATOM      1  C   UNL     1       2.586   7.091  18.926  0.00  0.00    +0.000 A 
ATOM      2  C   UNL     1       2.535   7.951  17.818  0.00  0.00    +0.000 A 
ATOM      3  C   UNL     1       1.842   9.164  17.861  0.00  0.00    +0.000 A 
ATOM      4  C   UNL     1       1.204   9.474  19.059  0.00  0.00    +0.000 A 
ATOM      5  N   UNL     1       0.470  10.561  19.439  0.00  0.00    +0.000 N 
ATOM      6  C   UNL     1      -0.010  10.364  20.707  0.00  0.00    +0.000 A 
ATOM      7  N   UNL     1       0.454   9.222  21.191  0.00  0.00    +0.000 NA
ATOM      8  C   UNL     1       1.205   8.648  20.176  0.00  0.00    +0.000 A 
ATOM      9  C   UNL     1       1.912   7.427  20.120  0.00  0.00    +0.000 A 
ATOM     10  H   UNL     1       0.241  11.357  18.858  0.00  0.00    +0.000 HD
ENDROOT
BRANCH   6  11
ATOM     11  C   UNL     1      -0.981  11.328  21.318  0.00  0.00    +0.000 C 
ATOM     12  C   UNL     1      -0.890  11.468  22.827  0.00  0.00    +0.000 C 
ATOM     13  C   UNL     1      -1.447  12.860  23.049  0.00  0.00    +0.000 C 
ATOM     14  C   UNL     1      -0.957  13.635  21.826  0.00  0.00    +0.000 C 
ATOM     15  O   UNL     1      -0.671  12.649  20.797  0.00  0.00    +0.000 OA
BRANCH  13  16
ATOM     16  O   UNL     1      -2.874  12.803  23.096  0.00  0.00    +0.000 OA
ATOM     17  H   UNL     1      -3.157  12.290  23.874  0.00  0.00    +0.000 HD
ENDBRANCH  13  16
BRANCH  14  18
ATOM     18  C   UNL     1       0.325  14.423  22.117  0.00  0.00    +0.000 C 
BRANCH  18  19
ATOM     19  O   UNL     1       0.183  15.212  23.297  0.00  0.00    +0.000 OA
ATOM     20  H   UNL     1       0.082  14.593  24.043  0.00  0.00    +0.000 HD
ENDBRANCH  18  19
ENDBRANCH  14  18
ENDBRANCH   6  11
BRANCH   1  22
ATOM     21  O   UNL     1       4.192   5.540  19.685  0.00  0.00    +0.000 OA
ATOM     22  C   UNL     1       3.425   5.864  18.786  0.00  0.00    +0.000 C 
ATOM     23  N   UNL     1       3.317   5.158  17.604  0.00  0.00    +0.000 N 
ATOM     24  H   UNL     1       2.793   5.549  16.833  0.00  0.00    +0.000 HD
BRANCH  23  25
ATOM     25  C   UNL     1       4.118   3.977  17.332  0.00  0.00    +0.000 C 
BRANCH  25  26
ATOM     26  C   UNL     1       5.188   4.257  16.303  0.00  0.00    +0.000 A 
ATOM     27  C   UNL     1       6.348   4.961  16.652  0.00  0.00    +0.000 A 
ATOM     28  C   UNL     1       7.340   5.216  15.702  0.00  0.00    +0.000 A 
ATOM     29  C   UNL     1       7.183   4.771  14.390  0.00  0.00    +0.000 A 
ATOM     30  C   UNL     1       6.038   4.054  14.014  0.00  0.00    +0.000 A 
ATOM     31  C   UNL     1       5.051   3.791  14.983  0.00  0.00    +0.000 A 
BRANCH  30  32
ATOM     32  C   UNL     1       5.860   3.577  12.593  0.00  0.00    +0.000 C 
ATOM     33  F   UNL     1       4.631   3.859  12.075  0.00  0.00    +0.000 F 
ATOM     34  F   UNL     1       6.758   4.130  11.734  0.00  0.00    +0.000 F 
ATOM     35  F   UNL     1       6.006   2.228  12.474  0.00  0.00    +0.000 F 
ENDBRANCH  30  32
ENDBRANCH  25  26
ENDBRANCH  23  25
ENDBRANCH   1  22
TORSDOF 8
ENDMDL
MODEL 6
REMARK VINA RESULT:      -8.3      0.810      1.125
REMARK  Name = 
REMARK  8 active torsions:
REMARK  status: ('A' for Active; 'I' for Inactive)
REMARK    1  A    between atoms: C_2  and  C_15
REMARK    2  A    between atoms: N_3  and  C_4
REMARK    3  A    between atoms: C_4  and  C_5
REMARK    4  A    between atoms: C_9  and  C_10
REMARK    5  A    between atoms: C_20  and  C_21
REMARK    6  A    between atoms: C_23  and  O_24
REMARK    7  A    between atoms: C_25  and  C_26
REMARK    8  A    between atoms: C_26  and  O_27
REMARK                            x       y       z     vdW  Elec       q    Type
REMARK                         _______ _______ _______ _____ _____    ______ ____
ROOT
ATOM      1  C   UNL     1       0.821   9.605  20.110  0.00  0.00    +0.000 A 
ATOM      2  C   UNL     1       1.050   8.936  21.323  0.00  0.00    +0.000 A 
ATOM      3  C   UNL     1       0.366   9.281  22.492  0.00  0.00    +0.000 A 
ATOM      4  C   UNL     1      -0.554  10.321  22.391  0.00  0.00    +0.000 A 
ATOM      5  N   UNL     1      -1.386  10.887  23.314  0.00  0.00    +0.000 N 
ATOM      6  C   UNL     1      -2.052  11.937  22.742  0.00  0.00    +0.000 A 
ATOM      7  N   UNL     1      -1.740  12.022  21.457  0.00  0.00    +0.000 NA
ATOM      8  C   UNL     1      -0.801  11.029  21.222  0.00  0.00    +0.000 A 
ATOM      9  C   UNL     1      -0.105  10.669  20.047  0.00  0.00    +0.000 A 
ATOM     10  H   UNL     1      -1.452  10.632  24.291  0.00  0.00    +0.000 HD
ENDROOT
BRANCH   6  11
ATOM     11  C   UNL     1      -2.916  12.841  23.568  0.00  0.00    +0.000 C 
ATOM     12  C   UNL     1      -3.130  14.232  22.999  0.00  0.00    +0.000 C 
ATOM     13  C   UNL     1      -4.451  14.630  23.624  0.00  0.00    +0.000 C 
ATOM     14  C   UNL     1      -5.228  13.314  23.676  0.00  0.00    +0.000 C 
ATOM     15  O   UNL     1      -4.241  12.248  23.624  0.00  0.00    +0.000 OA
BRANCH  13  16
ATOM     16  O   UNL     1      -4.222  15.154  24.934  0.00  0.00    +0.000 OA
ATOM     17  H   UNL     1      -4.871  14.781  25.556  0.00  0.00    +0.000 HD
ENDBRANCH  13  16
BRANCH  14  18
ATOM     18  C   UNL     1      -6.178  13.158  22.484  0.00  0.00    +0.000 C 
BRANCH  18  19
ATOM     19  O   UNL     1      -5.834  12.014  21.702  0.00  0.00    +0.000 OA
ATOM     20  H   UNL     1      -6.324  11.258  22.072  0.00  0.00    +0.000 HD
ENDBRANCH  18  19
ENDBRANCH  14  18
ENDBRANCH   6  11
BRANCH   1  22
ATOM     21  O   UNL     1       1.519   9.720  17.861  0.00  0.00    +0.000 OA
ATOM     22  C   UNL     1       1.553   9.094  18.913  0.00  0.00    +0.000 C 
ATOM     23  N   UNL     1       2.219   7.892  19.047  0.00  0.00    +0.000 N 
ATOM     24  H   UNL     1       2.087   7.336  19.882  0.00  0.00    +0.000 HD
BRANCH  23  25
ATOM     25  C   UNL     1       2.924   7.269  17.940  0.00  0.00    +0.000 C 
BRANCH  25  26
ATOM     26  C   UNL     1       3.450   5.903  18.314  0.00  0.00    +0.000 A 
ATOM     27  C   UNL     1       4.824   5.690  18.486  0.00  0.00    +0.000 A 
ATOM     28  C   UNL     1       5.312   4.429  18.836  0.00  0.00    +0.000 A 
ATOM     29  C   UNL     1       4.430   3.364  19.017  0.00  0.00    +0.000 A 
ATOM     30  C   UNL     1       3.049   3.549  18.862  0.00  0.00    +0.000 A 
ATOM     31  C   UNL     1       2.568   4.828  18.522  0.00  0.00    +0.000 A 
BRANCH  30  32
ATOM     32  C   UNL     1       2.090   2.398  19.048  0.00  0.00    +0.000 C 
ATOM     33  F   UNL     1       0.943   2.523  18.324  0.00  0.00    +0.000 F 
ATOM     34  F   UNL     1       2.627   1.201  18.686  0.00  0.00    +0.000 F 
ATOM     35  F   UNL     1       1.692   2.256  20.343  0.00  0.00    +0.000 F 
ENDBRANCH  30  32
ENDBRANCH  25  26
ENDBRANCH  23  25
ENDBRANCH   1  22
TORSDOF 8
ENDMDL
MODEL 7
REMARK VINA RESULT:      -8.3      1.617      2.172
REMARK  Name = 
REMARK  8 active torsions:
REMARK  status: ('A' for Active; 'I' for Inactive)
REMARK    1  A    between atoms: C_2  and  C_15
REMARK    2  A    between atoms: N_3  and  C_4
REMARK    3  A    between atoms: C_4  and  C_5
REMARK    4  A    between atoms: C_9  and  C_10
REMARK    5  A    between atoms: C_20  and  C_21
REMARK    6  A    between atoms: C_23  and  O_24
REMARK    7  A    between atoms: C_25  and  C_26
REMARK    8  A    between atoms: C_26  and  O_27
REMARK                            x       y       z     vdW  Elec       q    Type
REMARK                         _______ _______ _______ _____ _____    ______ ____
ROOT
ATOM      1  C   UNL     1       0.436   9.638  20.888  0.00  0.00    +0.000 A 
ATOM      2  C   UNL     1       0.482   9.214  22.225  0.00  0.00    +0.000 A 
ATOM      3  C   UNL     1      -0.329   9.791  23.207  0.00  0.00    +0.000 A 
ATOM      4  C   UNL     1      -1.183  10.808  22.790  0.00  0.00    +0.000 A 
ATOM      5  N   UNL     1      -2.100  11.557  23.471  0.00  0.00    +0.000 N 
ATOM      6  C   UNL     1      -2.643  12.488  22.627  0.00  0.00    +0.000 A 
ATOM      7  N   UNL     1      -2.169  12.316  21.402  0.00  0.00    +0.000 NA
ATOM      8  C   UNL     1      -1.251  11.280  21.486  0.00  0.00    +0.000 A 
ATOM      9  C   UNL     1      -0.429  10.686  20.503  0.00  0.00    +0.000 A 
ATOM     10  H   UNL     1      -2.299  11.498  24.462  0.00  0.00    +0.000 HD
ENDROOT
BRANCH   6  11
ATOM     11  C   UNL     1      -3.564  13.550  23.145  0.00  0.00    +0.000 C 
ATOM     12  C   UNL     1      -4.277  14.365  22.081  0.00  0.00    +0.000 C 
ATOM     13  C   UNL     1      -5.517  14.830  22.818  0.00  0.00    +0.000 C 
ATOM     14  C   UNL     1      -5.852  13.647  23.727  0.00  0.00    +0.000 C 
ATOM     15  O   UNL     1      -4.624  12.886  23.885  0.00  0.00    +0.000 OA
BRANCH  13  16
ATOM     16  O   UNL     1      -5.213  16.003  23.575  0.00  0.00    +0.000 OA
ATOM     17  H   UNL     1      -4.257  16.039  23.756  0.00  0.00    +0.000 HD
ENDBRANCH  13  16
BRANCH  14  18
ATOM     18  C   UNL     1      -6.919  12.733  23.116  0.00  0.00    +0.000 C 
BRANCH  18  19
ATOM     19  O   UNL     1      -7.236  11.657  23.998  0.00  0.00    +0.000 OA
ATOM     20  H   UNL     1      -7.676  12.046  24.776  0.00  0.00    +0.000 HD
ENDBRANCH  18  19
ENDBRANCH  14  18
ENDBRANCH   6  11
BRANCH   1  22
ATOM     21  O   UNL     1       1.394   9.288  18.763  0.00  0.00    +0.000 OA
ATOM     22  C   UNL     1       1.289   8.892  19.917  0.00  0.00    +0.000 C 
ATOM     23  N   UNL     1       1.905   7.743  20.373  0.00  0.00    +0.000 N 
ATOM     24  H   UNL     1       1.663   7.371  21.282  0.00  0.00    +0.000 HD
BRANCH  23  25
ATOM     25  C   UNL     1       2.719   6.905  19.508  0.00  0.00    +0.000 C 
BRANCH  25  26
ATOM     26  C   UNL     1       2.377   5.443  19.669  0.00  0.00    +0.000 A 
ATOM     27  C   UNL     1       1.521   5.018  20.693  0.00  0.00    +0.000 A 
ATOM     28  C   UNL     1       1.201   3.665  20.840  0.00  0.00    +0.000 A 
ATOM     29  C   UNL     1       1.736   2.722  19.964  0.00  0.00    +0.000 A 
ATOM     30  C   UNL     1       2.587   3.119  18.923  0.00  0.00    +0.000 A 
ATOM     31  C   UNL     1       2.892   4.485  18.776  0.00  0.00    +0.000 A 
BRANCH  30  32
ATOM     32  C   UNL     1       3.175   2.100  17.976  0.00  0.00    +0.000 C 
ATOM     33  F   UNL     1       3.583   0.956  18.594  0.00  0.00    +0.000 F 
ATOM     34  F   UNL     1       2.298   1.706  17.013  0.00  0.00    +0.000 F 
ATOM     35  F   UNL     1       4.270   2.571  17.318  0.00  0.00    +0.000 F 
ENDBRANCH  30  32
ENDBRANCH  25  26
ENDBRANCH  23  25
ENDBRANCH   1  22
TORSDOF 8
ENDMDL
MODEL 8
REMARK VINA RESULT:      -8.3      4.209      6.192
REMARK  Name = 
REMARK  8 active torsions:
REMARK  status: ('A' for Active; 'I' for Inactive)
REMARK    1  A    between atoms: C_2  and  C_15
REMARK    2  A    between atoms: N_3  and  C_4
REMARK    3  A    between atoms: C_4  and  C_5
REMARK    4  A    between atoms: C_9  and  C_10
REMARK    5  A    between atoms: C_20  and  C_21
REMARK    6  A    between atoms: C_23  and  O_24
REMARK    7  A    between atoms: C_25  and  C_26
REMARK    8  A    between atoms: C_26  and  O_27
REMARK                            x       y       z     vdW  Elec       q    Type
REMARK                         _______ _______ _______ _____ _____    ______ ____
ROOT
ATOM      1  C   UNL     1       3.526   6.036  18.186  0.00  0.00    +0.000 A 
ATOM      2  C   UNL     1       2.989   5.875  19.473  0.00  0.00    +0.000 A 
ATOM      3  C   UNL     1       2.201   6.865  20.069  0.00  0.00    +0.000 A 
ATOM      4  C   UNL     1       1.978   8.017  19.321  0.00  0.00    +0.000 A 
ATOM      5  N   UNL     1       1.258   9.146  19.589  0.00  0.00    +0.000 N 
ATOM      6  C   UNL     1       1.404  10.034  18.556  0.00  0.00    +0.000 A 
ATOM      7  N   UNL     1       2.130   9.488  17.592  0.00  0.00    +0.000 NA
ATOM      8  C   UNL     1       2.504   8.235  18.054  0.00  0.00    +0.000 A 
ATOM      9  C   UNL     1       3.295   7.226  17.462  0.00  0.00    +0.000 A 
ATOM     10  H   UNL     1       0.756   9.342  20.445  0.00  0.00    +0.000 HD
ENDROOT
BRANCH   6  11
ATOM     11  C   UNL     1       0.850  11.423  18.654  0.00  0.00    +0.000 C 
ATOM     12  C   UNL     1      -0.664  11.519  18.636  0.00  0.00    +0.000 C 
ATOM     13  C   UNL     1      -0.907  12.823  19.368  0.00  0.00    +0.000 C 
ATOM     14  C   UNL     1       0.200  12.847  20.423  0.00  0.00    +0.000 C 
ATOM     15  O   UNL     1       1.247  11.961  19.945  0.00  0.00    +0.000 OA
BRANCH  13  16
ATOM     16  O   UNL     1      -0.783  13.916  18.455  0.00  0.00    +0.000 OA
ATOM     17  H   UNL     1      -0.584  14.733  18.945  0.00  0.00    +0.000 HD
ENDBRANCH  13  16
BRANCH  14  18
ATOM     18  C   UNL     1      -0.288  12.336  21.783  0.00  0.00    +0.000 C 
BRANCH  18  19
ATOM     19  O   UNL     1       0.264  11.053  22.075  0.00  0.00    +0.000 OA
ATOM     20  H   UNL     1       0.342  10.990  23.044  0.00  0.00    +0.000 HD
ENDBRANCH  18  19
ENDBRANCH  14  18
ENDBRANCH   6  11
BRANCH   1  22
ATOM     21  O   UNL     1       3.882   3.735  17.817  0.00  0.00    +0.000 OA
ATOM     22  C   UNL     1       4.281   4.877  17.625  0.00  0.00    +0.000 C 
ATOM     23  N   UNL     1       5.440   5.157  16.929  0.00  0.00    +0.000 N 
ATOM     24  H   UNL     1       5.812   6.098  16.933  0.00  0.00    +0.000 HD
BRANCH  23  25
ATOM     25  C   UNL     1       6.286   4.112  16.380  0.00  0.00    +0.000 C 
BRANCH  25  26
ATOM     26  C   UNL     1       6.462   4.266  14.887  0.00  0.00    +0.000 A 
ATOM     27  C   UNL     1       7.545   4.987  14.367  0.00  0.00    +0.000 A 
ATOM     28  C   UNL     1       7.711   5.126  12.987  0.00  0.00    +0.000 A 
ATOM     29  C   UNL     1       6.794   4.547  12.110  0.00  0.00    +0.000 A 
ATOM     30  C   UNL     1       5.707   3.810  12.602  0.00  0.00    +0.000 A 
ATOM     31  C   UNL     1       5.557   3.665  13.994  0.00  0.00    +0.000 A 
BRANCH  30  32
ATOM     32  C   UNL     1       4.708   3.187  11.657  0.00  0.00    +0.000 C 
ATOM     33  F   UNL     1       4.442   3.955  10.563  0.00  0.00    +0.000 F 
ATOM     34  F   UNL     1       5.119   1.984  11.172  0.00  0.00    +0.000 F 
ATOM     35  F   UNL     1       3.502   2.963  12.248  0.00  0.00    +0.000 F 
ENDBRANCH  30  32
ENDBRANCH  25  26
ENDBRANCH  23  25
ENDBRANCH   1  22
TORSDOF 8
ENDMDL
MODEL 9
REMARK VINA RESULT:      -8.3      4.131      5.624
REMARK  Name = 
REMARK  8 active torsions:
REMARK  status: ('A' for Active; 'I' for Inactive)
REMARK    1  A    between atoms: C_2  and  C_15
REMARK    2  A    between atoms: N_3  and  C_4
REMARK    3  A    between atoms: C_4  and  C_5
REMARK    4  A    between atoms: C_9  and  C_10
REMARK    5  A    between atoms: C_20  and  C_21
REMARK    6  A    between atoms: C_23  and  O_24
REMARK    7  A    between atoms: C_25  and  C_26
REMARK    8  A    between atoms: C_26  and  O_27
REMARK                            x       y       z     vdW  Elec       q    Type
REMARK                         _______ _______ _______ _____ _____    ______ ____
ROOT
ATOM      1  C   UNL     1       2.657   6.324  19.207  0.00  0.00    +0.000 A 
ATOM      2  C   UNL     1       2.072   6.297  20.483  0.00  0.00    +0.000 A 
ATOM      3  C   UNL     1       1.370   7.394  20.993  0.00  0.00    +0.000 A 
ATOM      4  C   UNL     1       1.282   8.514  20.170  0.00  0.00    +0.000 A 
ATOM      5  N   UNL     1       0.670   9.721  20.346  0.00  0.00    +0.000 N 
ATOM      6  C   UNL     1       0.932  10.524  19.268  0.00  0.00    +0.000 A 
ATOM      7  N   UNL     1       1.626   9.852  18.363  0.00  0.00    +0.000 NA
ATOM      8  C   UNL     1       1.862   8.600  18.911  0.00  0.00    +0.000 A 
ATOM      9  C   UNL     1       2.566   7.483  18.407  0.00  0.00    +0.000 A 
ATOM     10  H   UNL     1       0.166  10.018  21.172  0.00  0.00    +0.000 HD
ENDROOT
BRANCH   6  11
ATOM     11  C   UNL     1       0.516  11.964  19.265  0.00  0.00    +0.000 C 
ATOM     12  C   UNL     1      -0.979  12.206  19.155  0.00  0.00    +0.000 C 
ATOM     13  C   UNL     1      -1.127  13.566  19.806  0.00  0.00    +0.000 C 
ATOM     14  C   UNL     1      -0.081  13.540  20.920  0.00  0.00    +0.000 C 
ATOM     15  O   UNL     1       0.897  12.532  20.548  0.00  0.00    +0.000 OA
BRANCH  13  16
ATOM     16  O   UNL     1      -0.847  14.589  18.848  0.00  0.00    +0.000 OA
ATOM     17  H   UNL     1       0.032  14.441  18.457  0.00  0.00    +0.000 HD
ENDBRANCH  13  16
BRANCH  14  18
ATOM     18  C   UNL     1      -0.688  13.155  22.274  0.00  0.00    +0.000 C 
BRANCH  18  19
ATOM     19  O   UNL     1      -0.242  11.863  22.685  0.00  0.00    +0.000 OA
ATOM     20  H   UNL     1       0.644  11.978  23.073  0.00  0.00    +0.000 HD
ENDBRANCH  18  19
ENDBRANCH  14  18
ENDBRANCH   6  11
BRANCH   1  22
ATOM     21  O   UNL     1       3.772   4.277  19.558  0.00  0.00    +0.000 OA
ATOM     22  C   UNL     1       3.310   5.065  18.742  0.00  0.00    +0.000 C 
ATOM     23  N   UNL     1       3.392   4.864  17.378  0.00  0.00    +0.000 N 
ATOM     24  H   UNL     1       3.141   5.612  16.745  0.00  0.00    +0.000 HD
BRANCH  23  25
ATOM     25  C   UNL     1       4.047   3.702  16.804  0.00  0.00    +0.000 C 
BRANCH  25  26
ATOM     26  C   UNL     1       5.192   4.098  15.902  0.00  0.00    +0.000 A 
ATOM     27  C   UNL     1       6.258   4.861  16.395  0.00  0.00    +0.000 A 
ATOM     28  C   UNL     1       7.320   5.224  15.562  0.00  0.00    +0.000 A 
ATOM     29  C   UNL     1       7.326   4.828  14.225  0.00  0.00    +0.000 A 
ATOM     30  C   UNL     1       6.279   4.054  13.707  0.00  0.00    +0.000 A 
ATOM     31  C   UNL     1       5.221   3.683  14.559  0.00  0.00    +0.000 A 
BRANCH  30  32
ATOM     32  C   UNL     1       6.277   3.629  12.258  0.00  0.00    +0.000 C 
ATOM     33  F   UNL     1       6.764   2.372  12.059  0.00  0.00    +0.000 F 
ATOM     34  F   UNL     1       5.032   3.634  11.709  0.00  0.00    +0.000 F 
ATOM     35  F   UNL     1       7.037   4.445  11.476  0.00  0.00    +0.000 F 
ENDBRANCH  30  32
ENDBRANCH  25  26
ENDBRANCH  23  25
ENDBRANCH   1  22
TORSDOF 8
ENDMDL
