MODEL 1
REMARK VINA RESULT:      -9.1      0.000      0.000
REMARK  Name = 
REMARK  6 active torsions:
REMARK  status: ('A' for Active; 'I' for Inactive)
REMARK    1  A    between atoms: C_2  and  C_3
REMARK    2  A    between atoms: C_3  and  N_4
REMARK    3  A    between atoms: N_4  and  C_5
REMARK    4  A    between atoms: N_4  and  S_11
REMARK    5  A    between atoms: S_11  and  C_14
REMARK    6  A    between atoms: N_21  and  C_22
REMARK                            x       y       z     vdW  Elec       q    Type
REMARK                         _______ _______ _______ _____ _____    ______ ____
ROOT
ATOM      1  N   UNL     1       3.572   4.817  18.886  0.00  0.00    +0.000 NA
ENDROOT
BRANCH   1   2
ATOM      2  C   UNL     1       2.736   3.537  18.769  0.00  0.00    +0.000 C 
ATOM      3  C   UNL     1       3.118   2.401  19.747  0.00  0.00    +0.000 C 
ATOM      4  C   UNL     1       2.675   2.614  21.199  0.00  0.00    +0.000 C 
ATOM      5  C   UNL     1       1.191   2.937  21.317  0.00  0.00    +0.000 C 
ATOM      6  C   UNL     1       0.822   4.075  20.384  0.00  0.00    +0.000 C 
ATOM      7  C   UNL     1       1.222   3.763  18.942  0.00  0.00    +0.000 C 
ENDBRANCH   1   2
BRANCH   1   8
ATOM      8  S   UNL     1       5.318   4.614  18.885  0.00  0.00    +0.000 S 
ATOM      9  O   UNL     1       5.920   5.733  19.576  0.00  0.00    +0.000 OA
ATOM     10  O   UNL     1       5.594   3.260  19.326  0.00  0.00    +0.000 OA
BRANCH   8  11
ATOM     11  C   UNL     1       5.873   4.733  17.172  0.00  0.00    +0.000 A 
ATOM     12  C   UNL     1       6.880   5.626  16.782  0.00  0.00    +0.000 A 
ATOM     13  C   UNL     1       7.312   5.646  15.447  0.00  0.00    +0.000 A 
ATOM     14  C   UNL     1       6.763   4.759  14.524  0.00  0.00    +0.000 A 
ATOM     15  F   UNL     1       7.192   4.775  13.256  0.00  0.00    +0.000 F 
ATOM     16  C   UNL     1       5.789   3.846  14.909  0.00  0.00    +0.000 A 
ATOM     17  C   UNL     1       5.343   3.830  16.234  0.00  0.00    +0.000 A 
ENDBRANCH   8  11
ENDBRANCH   1   8
BRANCH   1  18
ATOM     18  C   UNL     1       3.184   5.936  17.946  0.00  0.00    +0.000 C 
BRANCH  18  20
ATOM     19  O   UNL     1       2.985   8.297  17.799  0.00  0.00    +0.000 OA
ATOM     20  C   UNL     1       2.746   7.292  18.466  0.00  0.00    +0.000 C 
ATOM     21  N   UNL     1       2.142   7.272  19.708  0.00  0.00    +0.000 N 
ATOM     22  H   UNL     1       2.149   6.379  20.191  0.00  0.00    +0.000 HD
BRANCH  21  23
ATOM     23  C   UNL     1       1.478   8.346  20.346  0.00  0.00    +0.000 A 
ATOM     24  C   UNL     1       1.306   8.433  21.744  0.00  0.00    +0.000 A 
ATOM     25  C   UNL     1       0.583   9.482  22.326  0.00  0.00    +0.000 A 
ATOM     26  C   UNL     1       0.047  10.430  21.488  0.00  0.00    +0.000 A 
ATOM     27  C   UNL     1       0.259  10.390  20.131  0.00  0.00    +0.000 A 
ATOM     28  C   UNL     1       0.985   9.378  19.533  0.00  0.00    +0.000 A 
ATOM     29  O   UNL     1      -0.347  11.425  19.487  0.00  0.00    +0.000 OA
ATOM     30  C   UNL     1      -1.089  12.018  20.575  0.00  0.00    +0.000 C 
ATOM     31  O   UNL     1      -0.736  11.476  21.863  0.00  0.00    +0.000 OA
ENDBRANCH  21  23
ENDBRANCH  18  20
ENDBRANCH   1  18
TORSDOF 6
ENDMDL
MODEL 2
REMARK VINA RESULT:      -9.1      1.586      1.935
REMARK  Name = 
REMARK  6 active torsions:
REMARK  status: ('A' for Active; 'I' for Inactive)
REMARK    1  A    between atoms: C_2  and  C_3
REMARK    2  A    between atoms: C_3  and  N_4
REMARK    3  A    between atoms: N_4  and  C_5
REMARK    4  A    between atoms: N_4  and  S_11
REMARK    5  A    between atoms: S_11  and  C_14
REMARK    6  A    between atoms: N_21  and  C_22
REMARK                            x       y       z     vdW  Elec       q    Type
REMARK                         _______ _______ _______ _____ _____    ______ ____
ROOT
ATOM      1  N   UNL     1       3.617   5.001  18.815  0.00  0.00    +0.000 NA
ENDROOT
BRANCH   1   2
ATOM      2  C   UNL     1       2.819   3.706  18.628  0.00  0.00    +0.000 C 
ATOM      3  C   UNL     1       3.214   2.540  19.565  0.00  0.00    +0.000 C 
ATOM      4  C   UNL     1       2.739   2.680  21.016  0.00  0.00    +0.000 C 
ATOM      5  C   UNL     1       1.245   2.958  21.119  0.00  0.00    +0.000 C 
ATOM      6  C   UNL     1       0.862   4.125  20.227  0.00  0.00    +0.000 C 
ATOM      7  C   UNL     1       1.296   3.884  18.782  0.00  0.00    +0.000 C 
ENDBRANCH   1   2
BRANCH   1   8
ATOM      8  S   UNL     1       5.367   4.862  18.719  0.00  0.00    +0.000 S 
ATOM      9  O   UNL     1       5.958   6.126  19.102  0.00  0.00    +0.000 OA
ATOM     10  O   UNL     1       5.741   3.648  19.416  0.00  0.00    +0.000 OA
BRANCH   8  11
ATOM     11  C   UNL     1       5.793   4.623  16.981  0.00  0.00    +0.000 A 
ATOM     12  C   UNL     1       4.912   4.004  16.084  0.00  0.00    +0.000 A 
ATOM     13  C   UNL     1       5.268   3.886  14.731  0.00  0.00    +0.000 A 
ATOM     14  C   UNL     1       6.476   4.411  14.281  0.00  0.00    +0.000 A 
ATOM     15  F   UNL     1       6.801   4.308  12.986  0.00  0.00    +0.000 F 
ATOM     16  C   UNL     1       7.340   5.058  15.156  0.00  0.00    +0.000 A 
ATOM     17  C   UNL     1       6.999   5.166  16.507  0.00  0.00    +0.000 A 
ENDBRANCH   8  11
ENDBRANCH   1   8
BRANCH   1  18
ATOM     18  C   UNL     1       3.149   6.180  17.991  0.00  0.00    +0.000 C 
BRANCH  18  20
ATOM     19  O   UNL     1       2.274   7.377  19.844  0.00  0.00    +0.000 OA
ATOM     20  C   UNL     1       2.445   7.362  18.627  0.00  0.00    +0.000 C 
ATOM     21  N   UNL     1       2.002   8.324  17.738  0.00  0.00    +0.000 N 
ATOM     22  H   UNL     1       2.094   8.094  16.754  0.00  0.00    +0.000 HD
BRANCH  21  23
ATOM     23  C   UNL     1       1.486   9.601  18.059  0.00  0.00    +0.000 A 
ATOM     24  C   UNL     1       2.292  10.752  18.196  0.00  0.00    +0.000 A 
ATOM     25  C   UNL     1       1.745  11.983  18.579  0.00  0.00    +0.000 A 
ATOM     26  C   UNL     1       0.393  12.036  18.816  0.00  0.00    +0.000 A 
ATOM     27  C   UNL     1      -0.411  10.938  18.627  0.00  0.00    +0.000 A 
ATOM     28  C   UNL     1       0.098   9.717  18.230  0.00  0.00    +0.000 A 
ATOM     29  O   UNL     1      -1.717  11.204  18.905  0.00  0.00    +0.000 OA
ATOM     30  C   UNL     1      -1.607  12.542  19.439  0.00  0.00    +0.000 C 
ATOM     31  O   UNL     1      -0.299  13.119  19.259  0.00  0.00    +0.000 OA
ENDBRANCH  21  23
ENDBRANCH  18  20
ENDBRANCH   1  18
TORSDOF 6
ENDMDL
MODEL 3
REMARK VINA RESULT:      -9.0      0.658      1.294
REMARK  Name = 
REMARK  6 active torsions:
REMARK  status: ('A' for Active; 'I' for Inactive)
REMARK    1  A    between atoms: C_2  and  C_3
REMARK    2  A    between atoms: C_3  and  N_4
REMARK    3  A    between atoms: N_4  and  C_5
REMARK    4  A    between atoms: N_4  and  S_11
REMARK    5  A    between atoms: S_11  and  C_14
REMARK    6  A    between atoms: N_21  and  C_22
REMARK                            x       y       z     vdW  Elec       q    Type
REMARK                         _______ _______ _______ _____ _____    ______ ____
ROOT
ATOM      1  N   UNL     1       3.541   4.778  18.851  0.00  0.00    +0.000 NA
ENDROOT
BRANCH   1   2
ATOM      2  C   UNL     1       2.689   3.504  18.830  0.00  0.00    +0.000 C 
ATOM      3  C   UNL     1       3.095   2.416  19.851  0.00  0.00    +0.000 C 
ATOM      4  C   UNL     1       2.709   2.707  21.305  0.00  0.00    +0.000 C 
ATOM      5  C   UNL     1       1.234   3.054  21.461  0.00  0.00    +0.000 C 
ATOM      6  C   UNL     1       0.843   4.148  20.486  0.00  0.00    +0.000 C 
ATOM      7  C   UNL     1       1.184   3.758  19.048  0.00  0.00    +0.000 C 
ENDBRANCH   1   2
BRANCH   1   8
ATOM      8  S   UNL     1       5.285   4.552  18.884  0.00  0.00    +0.000 S 
ATOM      9  O   UNL     1       5.886   5.654  19.603  0.00  0.00    +0.000 OA
ATOM     10  O   UNL     1       5.534   3.189  19.311  0.00  0.00    +0.000 OA
BRANCH   8  11
ATOM     11  C   UNL     1       5.877   4.687  17.184  0.00  0.00    +0.000 A 
ATOM     12  C   UNL     1       7.028   5.416  16.860  0.00  0.00    +0.000 A 
ATOM     13  C   UNL     1       7.477   5.450  15.530  0.00  0.00    +0.000 A 
ATOM     14  C   UNL     1       6.797   4.736  14.548  0.00  0.00    +0.000 A 
ATOM     15  F   UNL     1       7.241   4.762  13.284  0.00  0.00    +0.000 F 
ATOM     16  C   UNL     1       5.674   3.982  14.866  0.00  0.00    +0.000 A 
ATOM     17  C   UNL     1       5.213   3.955  16.185  0.00  0.00    +0.000 A 
ENDBRANCH   8  11
ENDBRANCH   1   8
BRANCH   1  18
ATOM     18  C   UNL     1       3.178   5.823  17.819  0.00  0.00    +0.000 C 
BRANCH  18  20
ATOM     19  O   UNL     1       2.851   8.147  17.470  0.00  0.00    +0.000 OA
ATOM     20  C   UNL     1       2.669   7.193  18.223  0.00  0.00    +0.000 C 
ATOM     21  N   UNL     1       2.072   7.249  19.468  0.00  0.00    +0.000 N 
ATOM     22  H   UNL     1       2.128   6.403  20.026  0.00  0.00    +0.000 HD
BRANCH  21  23
ATOM     23  C   UNL     1       1.353   8.338  20.015  0.00  0.00    +0.000 A 
ATOM     24  C   UNL     1       1.232   9.589  19.374  0.00  0.00    +0.000 A 
ATOM     25  C   UNL     1       0.566  10.659  19.985  0.00  0.00    +0.000 A 
ATOM     26  C   UNL     1       0.029  10.450  21.232  0.00  0.00    +0.000 A 
ATOM     27  C   UNL     1       0.087   9.219  21.840  0.00  0.00    +0.000 A 
ATOM     28  C   UNL     1       0.719   8.141  21.251  0.00  0.00    +0.000 A 
ATOM     29  O   UNL     1      -0.514   9.221  23.061  0.00  0.00    +0.000 OA
ATOM     30  C   UNL     1      -0.807  10.627  23.210  0.00  0.00    +0.000 C 
ATOM     31  O   UNL     1      -0.589  11.383  22.002  0.00  0.00    +0.000 OA
ENDBRANCH  21  23
ENDBRANCH  18  20
ENDBRANCH   1  18
TORSDOF 6
ENDMDL
MODEL 4
REMARK VINA RESULT:      -8.9      1.666      2.174
REMARK  Name = 
REMARK  6 active torsions:
REMARK  status: ('A' for Active; 'I' for Inactive)
REMARK    1  A    between atoms: C_2  and  C_3
REMARK    2  A    between atoms: C_3  and  N_4
REMARK    3  A    between atoms: N_4  and  C_5
REMARK    4  A    between atoms: N_4  and  S_11
REMARK    5  A    between atoms: S_11  and  C_14
REMARK    6  A    between atoms: N_21  and  C_22
REMARK                            x       y       z     vdW  Elec       q    Type
REMARK                         _______ _______ _______ _____ _____    ______ ____
ROOT
ATOM      1  N   UNL     1       3.698   5.003  18.782  0.00  0.00    +0.000 NA
ENDROOT
BRANCH   1   2
ATOM      2  C   UNL     1       2.975   3.660  18.625  0.00  0.00    +0.000 C 
ATOM      3  C   UNL     1       3.373   2.567  19.644  0.00  0.00    +0.000 C 
ATOM      4  C   UNL     1       2.812   2.758  21.058  0.00  0.00    +0.000 C 
ATOM      5  C   UNL     1       1.303   2.964  21.065  0.00  0.00    +0.000 C 
ATOM      6  C   UNL     1       0.914   4.062  20.092  0.00  0.00    +0.000 C 
ATOM      7  C   UNL     1       1.439   3.769  18.687  0.00  0.00    +0.000 C 
ENDBRANCH   1   2
BRANCH   1   8
ATOM      8  S   UNL     1       5.448   4.973  18.617  0.00  0.00    +0.000 S 
ATOM      9  O   UNL     1       5.968   6.293  18.901  0.00  0.00    +0.000 OA
ATOM     10  O   UNL     1       5.931   3.829  19.367  0.00  0.00    +0.000 OA
BRANCH   8  11
ATOM     11  C   UNL     1       5.820   4.657  16.879  0.00  0.00    +0.000 A 
ATOM     12  C   UNL     1       4.953   3.920  16.062  0.00  0.00    +0.000 A 
ATOM     13  C   UNL     1       5.261   3.744  14.704  0.00  0.00    +0.000 A 
ATOM     14  C   UNL     1       6.406   4.327  14.168  0.00  0.00    +0.000 A 
ATOM     15  F   UNL     1       6.685   4.166  12.868  0.00  0.00    +0.000 F 
ATOM     16  C   UNL     1       7.254   5.088  14.963  0.00  0.00    +0.000 A 
ATOM     17  C   UNL     1       6.961   5.256  16.320  0.00  0.00    +0.000 A 
ENDBRANCH   8  11
ENDBRANCH   1   8
BRANCH   1  18
ATOM     18  C   UNL     1       3.126   6.150  17.978  0.00  0.00    +0.000 C 
BRANCH  18  20
ATOM     19  O   UNL     1       2.277   7.309  19.867  0.00  0.00    +0.000 OA
ATOM     20  C   UNL     1       2.445   7.326  18.650  0.00  0.00    +0.000 C 
ATOM     21  N   UNL     1       2.017   8.320  17.790  0.00  0.00    +0.000 N 
ATOM     22  H   UNL     1       2.102   8.117  16.799  0.00  0.00    +0.000 HD
BRANCH  21  23
ATOM     23  C   UNL     1       1.524   9.597  18.148  0.00  0.00    +0.000 A 
ATOM     24  C   UNL     1       0.184   9.836  18.520  0.00  0.00    +0.000 A 
ATOM     25  C   UNL     1      -0.274  11.129  18.803  0.00  0.00    +0.000 A 
ATOM     26  C   UNL     1       0.628  12.162  18.708  0.00  0.00    +0.000 A 
ATOM     27  C   UNL     1       1.948  11.934  18.405  0.00  0.00    +0.000 A 
ATOM     28  C   UNL     1       2.432  10.667  18.143  0.00  0.00    +0.000 A 
ATOM     29  O   UNL     1       2.673  13.086  18.372  0.00  0.00    +0.000 OA
ATOM     30  C   UNL     1       1.623  14.065  18.530  0.00  0.00    +0.000 C 
ATOM     31  O   UNL     1       0.351  13.481  18.877  0.00  0.00    +0.000 OA
ENDBRANCH  21  23
ENDBRANCH  18  20
ENDBRANCH   1  18
TORSDOF 6
ENDMDL
MODEL 5
REMARK VINA RESULT:      -8.6      2.591      5.040
REMARK  Name = 
REMARK  6 active torsions:
REMARK  status: ('A' for Active; 'I' for Inactive)
REMARK    1  A    between atoms: C_2  and  C_3
REMARK    2  A    between atoms: C_3  and  N_4
REMARK    3  A    between atoms: N_4  and  C_5
REMARK    4  A    between atoms: N_4  and  S_11
REMARK    5  A    between atoms: S_11  and  C_14
REMARK    6  A    between atoms: N_21  and  C_22
REMARK                            x       y       z     vdW  Elec       q    Type
REMARK                         _______ _______ _______ _____ _____    ______ ____
ROOT
ATOM      1  N   UNL     1       4.317   4.863  17.460  0.00  0.00    +0.000 NA
ENDROOT
BRANCH   1   2
ATOM      2  C   UNL     1       5.778   4.716  17.019  0.00  0.00    +0.000 C 
ATOM      3  C   UNL     1       6.359   5.914  16.233  0.00  0.00    +0.000 C 
ATOM      4  C   UNL     1       6.688   7.151  17.076  0.00  0.00    +0.000 C 
ATOM      5  C   UNL     1       7.573   6.825  18.273  0.00  0.00    +0.000 C 
ATOM      6  C   UNL     1       6.985   5.673  19.067  0.00  0.00    +0.000 C 
ATOM      7  C   UNL     1       6.755   4.449  18.181  0.00  0.00    +0.000 C 
ENDBRANCH   1   2
BRANCH   1   8
ATOM      8  S   UNL     1       3.339   3.402  17.424  0.00  0.00    +0.000 S 
ATOM      9  O   UNL     1       2.237   3.600  16.507  0.00  0.00    +0.000 OA
ATOM     10  O   UNL     1       4.242   2.284  17.237  0.00  0.00    +0.000 OA
BRANCH   8  11
ATOM     11  C   UNL     1       2.597   3.211  19.058  0.00  0.00    +0.000 A 
ATOM     12  C   UNL     1       1.253   3.524  19.299  0.00  0.00    +0.000 A 
ATOM     13  C   UNL     1       0.708   3.311  20.575  0.00  0.00    +0.000 A 
ATOM     14  C   UNL     1       1.494   2.762  21.584  0.00  0.00    +0.000 A 
ATOM     15  F   UNL     1       0.962   2.547  22.795  0.00  0.00    +0.000 F 
ATOM     16  C   UNL     1       2.818   2.415  21.345  0.00  0.00    +0.000 A 
ATOM     17  C   UNL     1       3.372   2.638  20.081  0.00  0.00    +0.000 A 
ENDBRANCH   8  11
ENDBRANCH   1   8
BRANCH   1  18
ATOM     18  C   UNL     1       4.100   5.594  18.766  0.00  0.00    +0.000 C 
BRANCH  18  20
ATOM     19  O   UNL     1       3.319   7.652  17.878  0.00  0.00    +0.000 OA
ATOM     20  C   UNL     1       3.295   6.877  18.832  0.00  0.00    +0.000 C 
ATOM     21  N   UNL     1       2.624   7.083  20.022  0.00  0.00    +0.000 N 
ATOM     22  H   UNL     1       2.821   6.419  20.764  0.00  0.00    +0.000 HD
BRANCH  21  23
ATOM     23  C   UNL     1       1.663   8.086  20.292  0.00  0.00    +0.000 A 
ATOM     24  C   UNL     1       1.202   9.001  19.321  0.00  0.00    +0.000 A 
ATOM     25  C   UNL     1       0.298  10.019  19.650  0.00  0.00    +0.000 A 
ATOM     26  C   UNL     1      -0.130  10.097  20.954  0.00  0.00    +0.000 A 
ATOM     27  C   UNL     1       0.264   9.175  21.894  0.00  0.00    +0.000 A 
ATOM     28  C   UNL     1       1.138   8.149  21.592  0.00  0.00    +0.000 A 
ATOM     29  O   UNL     1      -0.280   9.425  23.116  0.00  0.00    +0.000 OA
ATOM     30  C   UNL     1      -0.926  10.692  22.866  0.00  0.00    +0.000 C 
ATOM     31  O   UNL     1      -0.947  11.052  21.470  0.00  0.00    +0.000 OA
ENDBRANCH  21  23
ENDBRANCH  18  20
ENDBRANCH   1  18
TORSDOF 6
ENDMDL
MODEL 6
REMARK VINA RESULT:      -8.6      0.805      1.637
REMARK  Name = 
REMARK  6 active torsions:
REMARK  status: ('A' for Active; 'I' for Inactive)
REMARK    1  A    between atoms: C_2  and  C_3
REMARK    2  A    between atoms: C_3  and  N_4
REMARK    3  A    between atoms: N_4  and  C_5
REMARK    4  A    between atoms: N_4  and  S_11
REMARK    5  A    between atoms: S_11  and  C_14
REMARK    6  A    between atoms: N_21  and  C_22
REMARK                            x       y       z     vdW  Elec       q    Type
REMARK                         _______ _______ _______ _____ _____    ______ ____
ROOT
ATOM      1  N   UNL     1       3.655   4.696  18.790  0.00  0.00    +0.000 NA
ENDROOT
BRANCH   1   2
ATOM      2  C   UNL     1       2.867   3.381  18.804  0.00  0.00    +0.000 C 
ATOM      3  C   UNL     1       3.214   2.409  19.956  0.00  0.00    +0.000 C 
ATOM      4  C   UNL     1       2.668   2.806  21.332  0.00  0.00    +0.000 C 
ATOM      5  C   UNL     1       1.170   3.085  21.308  0.00  0.00    +0.000 C 
ATOM      6  C   UNL     1       0.833   4.067  20.202  0.00  0.00    +0.000 C 
ATOM      7  C   UNL     1       1.338   3.571  18.847  0.00  0.00    +0.000 C 
ENDBRANCH   1   2
BRANCH   1   8
ATOM      8  S   UNL     1       5.407   4.558  18.843  0.00  0.00    +0.000 S 
ATOM      9  O   UNL     1       5.950   5.733  19.488  0.00  0.00    +0.000 OA
ATOM     10  O   UNL     1       5.720   3.240  19.360  0.00  0.00    +0.000 OA
BRANCH   8  11
ATOM     11  C   UNL     1       6.002   4.608  17.139  0.00  0.00    +0.000 A 
ATOM     12  C   UNL     1       5.398   3.856  16.124  0.00  0.00    +0.000 A 
ATOM     13  C   UNL     1       5.865   3.967  14.805  0.00  0.00    +0.000 A 
ATOM     14  C   UNL     1       6.902   4.846  14.506  0.00  0.00    +0.000 A 
ATOM     15  F   UNL     1       7.331   4.958  13.242  0.00  0.00    +0.000 F 
ATOM     16  C   UNL     1       7.484   5.623  15.500  0.00  0.00    +0.000 A 
ATOM     17  C   UNL     1       7.034   5.507  16.818  0.00  0.00    +0.000 A 
ENDBRANCH   8  11
ENDBRANCH   1   8
BRANCH   1  18
ATOM     18  C   UNL     1       3.249   5.688  17.723  0.00  0.00    +0.000 C 
BRANCH  18  20
ATOM     19  O   UNL     1       3.940   7.955  17.600  0.00  0.00    +0.000 OA
ATOM     20  C   UNL     1       3.102   7.165  18.029  0.00  0.00    +0.000 C 
ATOM     21  N   UNL     1       2.026   7.489  18.833  0.00  0.00    +0.000 N 
ATOM     22  H   UNL     1       1.511   6.706  19.223  0.00  0.00    +0.000 HD
BRANCH  21  23
ATOM     23  C   UNL     1       1.544   8.787  19.124  0.00  0.00    +0.000 A 
ATOM     24  C   UNL     1       1.481   9.824  18.168  0.00  0.00    +0.000 A 
ATOM     25  C   UNL     1       1.059  11.113  18.517  0.00  0.00    +0.000 A 
ATOM     26  C   UNL     1       0.703  11.336  19.826  0.00  0.00    +0.000 A 
ATOM     27  C   UNL     1       0.702  10.320  20.751  0.00  0.00    +0.000 A 
ATOM     28  C   UNL     1       1.094   9.036  20.429  0.00  0.00    +0.000 A 
ATOM     29  O   UNL     1       0.307  10.748  21.982  0.00  0.00    +0.000 OA
ATOM     30  C   UNL     1       0.219  12.172  21.752  0.00  0.00    +0.000 C 
ATOM     31  O   UNL     1       0.336  12.530  20.361  0.00  0.00    +0.000 OA
ENDBRANCH  21  23
ENDBRANCH  18  20
ENDBRANCH   1  18
TORSDOF 6
ENDMDL
MODEL 7
REMARK VINA RESULT:      -8.6      0.862      1.632
REMARK  Name = 
REMARK  6 active torsions:
REMARK  status: ('A' for Active; 'I' for Inactive)
REMARK    1  A    between atoms: C_2  and  C_3
REMARK    2  A    between atoms: C_3  and  N_4
REMARK    3  A    between atoms: N_4  and  C_5
REMARK    4  A    between atoms: N_4  and  S_11
REMARK    5  A    between atoms: S_11  and  C_14
REMARK    6  A    between atoms: N_21  and  C_22
REMARK                            x       y       z     vdW  Elec       q    Type
REMARK                         _______ _______ _______ _____ _____    ______ ____
ROOT
ATOM      1  N   UNL     1       3.918   4.860  18.788  0.00  0.00    +0.000 NA
ENDROOT
BRANCH   1   2
ATOM      2  C   UNL     1       3.409   3.415  18.853  0.00  0.00    +0.000 C 
ATOM      3  C   UNL     1       3.606   2.702  20.211  0.00  0.00    +0.000 C 
ATOM      4  C   UNL     1       2.647   3.139  21.324  0.00  0.00    +0.000 C 
ATOM      5  C   UNL     1       1.186   3.072  20.897  0.00  0.00    +0.000 C 
ATOM      6  C   UNL     1       0.985   3.803  19.583  0.00  0.00    +0.000 C 
ATOM      7  C   UNL     1       1.917   3.263  18.499  0.00  0.00    +0.000 C 
ENDBRANCH   1   2
BRANCH   1   8
ATOM      8  S   UNL     1       5.638   5.071  18.491  0.00  0.00    +0.000 S 
ATOM      9  O   UNL     1       5.973   6.468  18.657  0.00  0.00    +0.000 OA
ATOM     10  O   UNL     1       6.335   4.063  19.266  0.00  0.00    +0.000 OA
BRANCH   8  11
ATOM     11  C   UNL     1       5.933   4.694  16.751  0.00  0.00    +0.000 A 
ATOM     12  C   UNL     1       4.972   4.048  15.962  0.00  0.00    +0.000 A 
ATOM     13  C   UNL     1       5.229   3.822  14.601  0.00  0.00    +0.000 A 
ATOM     14  C   UNL     1       6.420   4.266  14.034  0.00  0.00    +0.000 A 
ATOM     15  F   UNL     1       6.651   4.059  12.731  0.00  0.00    +0.000 F 
ATOM     16  C   UNL     1       7.365   4.938  14.800  0.00  0.00    +0.000 A 
ATOM     17  C   UNL     1       7.122   5.155  16.159  0.00  0.00    +0.000 A 
ENDBRANCH   8  11
ENDBRANCH   1   8
BRANCH   1  18
ATOM     18  C   UNL     1       3.124   5.791  17.898  0.00  0.00    +0.000 C 
BRANCH  18  20
ATOM     19  O   UNL     1       3.170   8.158  17.743  0.00  0.00    +0.000 OA
ATOM     20  C   UNL     1       2.736   7.184  18.353  0.00  0.00    +0.000 C 
ATOM     21  N   UNL     1       1.942   7.227  19.483  0.00  0.00    +0.000 N 
ATOM     22  H   UNL     1       1.789   6.340  19.953  0.00  0.00    +0.000 HD
BRANCH  21  23
ATOM     23  C   UNL     1       1.286   8.362  20.016  0.00  0.00    +0.000 A 
ATOM     24  C   UNL     1       1.287   9.625  19.388  0.00  0.00    +0.000 A 
ATOM     25  C   UNL     1       0.680  10.737  19.985  0.00  0.00    +0.000 A 
ATOM     26  C   UNL     1       0.079  10.557  21.208  0.00  0.00    +0.000 A 
ATOM     27  C   UNL     1       0.020   9.319  21.802  0.00  0.00    +0.000 A 
ATOM     28  C   UNL     1       0.592   8.202  21.225  0.00  0.00    +0.000 A 
ATOM     29  O   UNL     1      -0.627   9.355  22.999  0.00  0.00    +0.000 OA
ATOM     30  C   UNL     1      -0.819  10.778  23.155  0.00  0.00    +0.000 C 
ATOM     31  O   UNL     1      -0.496  11.527  21.966  0.00  0.00    +0.000 OA
ENDBRANCH  21  23
ENDBRANCH  18  20
ENDBRANCH   1  18
TORSDOF 6
ENDMDL
MODEL 8
REMARK VINA RESULT:      -8.6      2.473      2.865
REMARK  Name = 
REMARK  6 active torsions:
REMARK  status: ('A' for Active; 'I' for Inactive)
REMARK    1  A    between atoms: C_2  and  C_3
REMARK    2  A    between atoms: C_3  and  N_4
REMARK    3  A    between atoms: N_4  and  C_5
REMARK    4  A    between atoms: N_4  and  S_11
REMARK    5  A    between atoms: S_11  and  C_14
REMARK    6  A    between atoms: N_21  and  C_22
REMARK                            x       y       z     vdW  Elec       q    Type
REMARK                         _______ _______ _______ _____ _____    ______ ____
ROOT
ATOM      1  N   UNL     1       3.837   4.952  18.040  0.00  0.00    +0.000 NA
ENDROOT
BRANCH   1   2
ATOM      2  C   UNL     1       2.793   3.975  17.489  0.00  0.00    +0.000 C 
ATOM      3  C   UNL     1       3.063   2.479  17.776  0.00  0.00    +0.000 C 
ATOM      4  C   UNL     1       2.792   2.031  19.217  0.00  0.00    +0.000 C 
ATOM      5  C   UNL     1       1.399   2.418  19.697  0.00  0.00    +0.000 C 
ATOM      6  C   UNL     1       1.145   3.894  19.449  0.00  0.00    +0.000 C 
ATOM      7  C   UNL     1       1.358   4.254  17.979  0.00  0.00    +0.000 C 
ENDBRANCH   1   2
BRANCH   1   8
ATOM      8  S   UNL     1       5.517   4.443  17.932  0.00  0.00    +0.000 S 
ATOM      9  O   UNL     1       5.840   3.643  19.093  0.00  0.00    +0.000 OA
ATOM     10  O   UNL     1       5.718   3.902  16.602  0.00  0.00    +0.000 OA
BRANCH   8  11
ATOM     11  C   UNL     1       6.537   5.927  18.055  0.00  0.00    +0.000 A 
ATOM     12  C   UNL     1       7.580   6.032  18.985  0.00  0.00    +0.000 A 
ATOM     13  C   UNL     1       8.377   7.187  19.008  0.00  0.00    +0.000 A 
ATOM     14  C   UNL     1       8.150   8.207  18.089  0.00  0.00    +0.000 A 
ATOM     15  F   UNL     1       8.926   9.299  18.108  0.00  0.00    +0.000 F 
ATOM     16  C   UNL     1       7.142   8.098  17.139  0.00  0.00    +0.000 A 
ATOM     17  C   UNL     1       6.334   6.957  17.120  0.00  0.00    +0.000 A 
ENDBRANCH   8  11
ENDBRANCH   1   8
BRANCH   1  18
ATOM     18  C   UNL     1       3.703   6.383  17.572  0.00  0.00    +0.000 C 
BRANCH  18  20
ATOM     19  O   UNL     1       2.547   7.193  19.481  0.00  0.00    +0.000 OA
ATOM     20  C   UNL     1       2.807   7.372  18.293  0.00  0.00    +0.000 C 
ATOM     21  N   UNL     1       2.310   8.391  17.503  0.00  0.00    +0.000 N 
ATOM     22  H   UNL     1       2.503   8.317  16.509  0.00  0.00    +0.000 HD
BRANCH  21  23
ATOM     23  C   UNL     1       1.611   9.541  17.941  0.00  0.00    +0.000 A 
ATOM     24  C   UNL     1       2.247  10.757  18.268  0.00  0.00    +0.000 A 
ATOM     25  C   UNL     1       1.521  11.849  18.761  0.00  0.00    +0.000 A 
ATOM     26  C   UNL     1       0.164  11.698  18.914  0.00  0.00    +0.000 A 
ATOM     27  C   UNL     1      -0.474  10.539  18.542  0.00  0.00    +0.000 A 
ATOM     28  C   UNL     1       0.214   9.455  18.034  0.00  0.00    +0.000 A 
ATOM     29  O   UNL     1      -1.816  10.599  18.765  0.00  0.00    +0.000 OA
ATOM     30  C   UNL     1      -1.914  11.859  19.463  0.00  0.00    +0.000 C 
ATOM     31  O   UNL     1      -0.688  12.617  19.439  0.00  0.00    +0.000 OA
ENDBRANCH  21  23
ENDBRANCH  18  20
ENDBRANCH   1  18
TORSDOF 6
ENDMDL
MODEL 9
REMARK VINA RESULT:      -8.5      2.034      2.513
REMARK  Name = 
REMARK  6 active torsions:
REMARK  status: ('A' for Active; 'I' for Inactive)
REMARK    1  A    between atoms: C_2  and  C_3
REMARK    2  A    between atoms: C_3  and  N_4
REMARK    3  A    between atoms: N_4  and  C_5
REMARK    4  A    between atoms: N_4  and  S_11
REMARK    5  A    between atoms: S_11  and  C_14
REMARK    6  A    between atoms: N_21  and  C_22
REMARK                            x       y       z     vdW  Elec       q    Type
REMARK                         _______ _______ _______ _____ _____    ______ ____
ROOT
ATOM      1  N   UNL     1       3.934   4.558  18.223  0.00  0.00    +0.000 NA
ENDROOT
BRANCH   1   2
ATOM      2  C   UNL     1       3.592   3.111  18.597  0.00  0.00    +0.000 C 
ATOM      3  C   UNL     1       3.686   2.773  20.103  0.00  0.00    +0.000 C 
ATOM      4  C   UNL     1       2.542   3.316  20.966  0.00  0.00    +0.000 C 
ATOM      5  C   UNL     1       1.170   2.938  20.424  0.00  0.00    +0.000 C 
ATOM      6  C   UNL     1       1.063   3.303  18.955  0.00  0.00    +0.000 C 
ATOM      7  C   UNL     1       2.189   2.664  18.142  0.00  0.00    +0.000 C 
ENDBRANCH   1   2
BRANCH   1   8
ATOM      8  S   UNL     1       5.190   4.777  17.011  0.00  0.00    +0.000 S 
ATOM      9  O   UNL     1       5.902   3.529  16.845  0.00  0.00    +0.000 OA
ATOM     10  O   UNL     1       4.574   5.416  15.865  0.00  0.00    +0.000 OA
BRANCH   8  11
ATOM     11  C   UNL     1       6.388   5.947  17.685  0.00  0.00    +0.000 A 
ATOM     12  C   UNL     1       7.256   5.596  18.727  0.00  0.00    +0.000 A 
ATOM     13  C   UNL     1       8.205   6.524  19.183  0.00  0.00    +0.000 A 
ATOM     14  C   UNL     1       8.301   7.775  18.579  0.00  0.00    +0.000 A 
ATOM     15  F   UNL     1       9.220   8.649  19.010  0.00  0.00    +0.000 F 
ATOM     16  C   UNL     1       7.468   8.120  17.521  0.00  0.00    +0.000 A 
ATOM     17  C   UNL     1       6.511   7.205  17.071  0.00  0.00    +0.000 A 
ENDBRANCH   8  11
ENDBRANCH   1   8
BRANCH   1  18
ATOM     18  C   UNL     1       2.752   5.445  17.904  0.00  0.00    +0.000 C 
BRANCH  18  20
ATOM     19  O   UNL     1       3.189   7.778  17.861  0.00  0.00    +0.000 OA
ATOM     20  C   UNL     1       2.644   6.852  18.459  0.00  0.00    +0.000 C 
ATOM     21  N   UNL     1       1.960   6.956  19.655  0.00  0.00    +0.000 N 
ATOM     22  H   UNL     1       1.695   6.079  20.093  0.00  0.00    +0.000 HD
BRANCH  21  23
ATOM     23  C   UNL     1       1.552   8.149  20.298  0.00  0.00    +0.000 A 
ATOM     24  C   UNL     1       1.473   8.286  21.700  0.00  0.00    +0.000 A 
ATOM     25  C   UNL     1       1.000   9.465  22.291  0.00  0.00    +0.000 A 
ATOM     26  C   UNL     1       0.616  10.488  21.458  0.00  0.00    +0.000 A 
ATOM     27  C   UNL     1       0.745  10.388  20.094  0.00  0.00    +0.000 A 
ATOM     28  C   UNL     1       1.228   9.246  19.486  0.00  0.00    +0.000 A 
ATOM     29  O   UNL     1       0.320  11.512  19.455  0.00  0.00    +0.000 OA
ATOM     30  C   UNL     1      -0.234  12.255  20.563  0.00  0.00    +0.000 C 
ATOM     31  O   UNL     1       0.072  11.672  21.845  0.00  0.00    +0.000 OA
ENDBRANCH  21  23
ENDBRANCH  18  20
ENDBRANCH   1  18
TORSDOF 6
ENDMDL
