MODEL 1
REMARK VINA RESULT:      -7.2      0.000      0.000
REMARK  Name = 
REMARK  5 active torsions:
REMARK  status: ('A' for Active; 'I' for Inactive)
REMARK    1  A    between atoms: N_5  and  C_6
REMARK    2  A    between atoms: C_6  and  C_7
REMARK    3  A    between atoms: C_7  and  C_8
REMARK    4  A    between atoms: C_14  and  C_15
REMARK    5  A    between atoms: C_17  and  N_18
REMARK                            x       y       z     vdW  Elec       q    Type
REMARK                         _______ _______ _______ _____ _____    ______ ____
ROOT
ATOM      1  N   UNL     1       1.823   8.663  17.819  0.00  0.00    +0.000 N 
ATOM      2  C   UNL     1       2.720   7.640  18.059  0.00  0.00    +0.000 A 
ATOM      3  N   UNL     1       2.496   6.871  19.131  0.00  0.00    +0.000 NA
ATOM      4  C   UNL     1       3.389   5.913  19.401  0.00  0.00    +0.000 A 
ATOM      5  N   UNL     1       3.202   4.996  20.447  0.00  0.00    +0.000 N 
ATOM      6  C   UNL     1       4.509   5.749  18.617  0.00  0.00    +0.000 A 
ATOM      7  C   UNL     1       4.657   6.554  17.500  0.00  0.00    +0.000 A 
ATOM      8  N   UNL     1       3.765   7.526  17.219  0.00  0.00    +0.000 NA
ATOM      9  H   UNL     1       1.360   8.915  18.682  0.00  0.00    +0.000 HD
ATOM     10  H   UNL     1       2.270   9.404  17.301  0.00  0.00    +0.000 HD
ATOM     11  H   UNL     1       3.958   5.039  21.122  0.00  0.00    +0.000 HD
ENDROOT
BRANCH   7  12
ATOM     12  C   UNL     1       5.809   6.288  16.453  0.00  0.00    +0.000 C 
ATOM     13  C   UNL     1       6.929   5.315  16.913  0.00  0.00    +0.000 C 
ATOM     14  C   UNL     1       6.560   4.354  15.775  0.00  0.00    +0.000 C 
ATOM     15  C   UNL     1       5.633   5.426  15.182  0.00  0.00    +0.000 C 
BRANCH  14  16
ATOM     16  N   UNL     1       5.734   3.270  16.301  0.00  0.00    +0.000 NA
ATOM     17  H   UNL     1       5.936   3.025  17.276  0.00  0.00    +0.000 HD
ATOM     18  H   UNL     1       5.809   2.400  15.777  0.00  0.00    +0.000 HD
ENDBRANCH  14  16
ENDBRANCH   7  12
BRANCH   5  19
ATOM     19  C   UNL     1       1.851   4.908  21.001  0.00  0.00    +0.000 C 
BRANCH  19  20
ATOM     20  C   UNL     1       1.245   3.519  20.756  0.00  0.00    +0.000 C 
BRANCH  20  21
ATOM     21  C   UNL     1       1.864   2.848  19.574  0.00  0.00    +0.000 A 
ATOM     22  C   UNL     1       1.512   2.976  18.208  0.00  0.00    +0.000 A 
ATOM     23  C   UNL     1       2.409   2.181  17.536  0.00  0.00    +0.000 A 
ATOM     24  N   UNL     1       3.212   1.631  18.489  0.00  0.00    +0.000 N 
ATOM     25  N   UNL     1       2.898   2.014  19.737  0.00  0.00    +0.000 NA
ATOM     26  H   UNL     1       3.993   0.993  18.365  0.00  0.00    +0.000 HD
ENDBRANCH  20  21
ENDBRANCH  19  20
ENDBRANCH   5  19
TORSDOF 5
ENDMDL
MODEL 2
REMARK VINA RESULT:      -7.1      2.131      5.805
REMARK  Name = 
REMARK  5 active torsions:
REMARK  status: ('A' for Active; 'I' for Inactive)
REMARK    1  A    between atoms: N_5  and  C_6
REMARK    2  A    between atoms: C_6  and  C_7
REMARK    3  A    between atoms: C_7  and  C_8
REMARK    4  A    between atoms: C_14  and  C_15
REMARK    5  A    between atoms: C_17  and  N_18
REMARK                            x       y       z     vdW  Elec       q    Type
REMARK                         _______ _______ _______ _____ _____    ______ ____
ROOT
ATOM      1  N   UNL     1       3.320   7.703  17.654  0.00  0.00    +0.000 N 
ATOM      2  C   UNL     1       3.342   6.321  17.649  0.00  0.00    +0.000 A 
ATOM      3  N   UNL     1       4.375   5.729  17.038  0.00  0.00    +0.000 NA
ATOM      4  C   UNL     1       4.375   4.393  16.981  0.00  0.00    +0.000 A 
ATOM      5  N   UNL     1       5.454   3.672  16.444  0.00  0.00    +0.000 N 
ATOM      6  C   UNL     1       3.335   3.662  17.510  0.00  0.00    +0.000 A 
ATOM      7  C   UNL     1       2.318   4.338  18.163  0.00  0.00    +0.000 A 
ATOM      8  N   UNL     1       2.304   5.686  18.224  0.00  0.00    +0.000 NA
ATOM      9  H   UNL     1       3.871   8.051  16.881  0.00  0.00    +0.000 HD
ATOM     10  H   UNL     1       2.371   8.035  17.733  0.00  0.00    +0.000 HD
ATOM     11  H   UNL     1       5.164   3.094  15.662  0.00  0.00    +0.000 HD
ENDROOT
BRANCH   7  12
ATOM     12  C   UNL     1       1.203   3.554  18.960  0.00  0.00    +0.000 C 
ATOM     13  C   UNL     1       1.576   2.114  19.406  0.00  0.00    +0.000 C 
ATOM     14  C   UNL     1       1.417   2.529  20.874  0.00  0.00    +0.000 C 
ATOM     15  C   UNL     1       0.811   3.867  20.422  0.00  0.00    +0.000 C 
BRANCH  14  16
ATOM     16  N   UNL     1       2.733   2.790  21.452  0.00  0.00    +0.000 NA
ATOM     17  H   UNL     1       3.445   3.060  20.765  0.00  0.00    +0.000 HD
ATOM     18  H   UNL     1       3.127   2.001  21.961  0.00  0.00    +0.000 HD
ENDBRANCH  14  16
ENDBRANCH   7  12
BRANCH   5  19
ATOM     19  C   UNL     1       6.706   4.408  16.269  0.00  0.00    +0.000 C 
BRANCH  19  20
ATOM     20  C   UNL     1       7.421   4.604  17.613  0.00  0.00    +0.000 C 
BRANCH  20  21
ATOM     21  C   UNL     1       7.728   6.042  17.870  0.00  0.00    +0.000 A 
ATOM     22  C   UNL     1       7.461   7.159  17.043  0.00  0.00    +0.000 A 
ATOM     23  C   UNL     1       7.908   8.245  17.757  0.00  0.00    +0.000 A 
ATOM     24  N   UNL     1       8.409   7.748  18.922  0.00  0.00    +0.000 N 
ATOM     25  N   UNL     1       8.320   6.412  19.014  0.00  0.00    +0.000 NA
ATOM     26  H   UNL     1       8.822   8.256  19.698  0.00  0.00    +0.000 HD
ENDBRANCH  20  21
ENDBRANCH  19  20
ENDBRANCH   5  19
TORSDOF 5
ENDMDL
MODEL 3
REMARK VINA RESULT:      -7.0      1.645      5.407
REMARK  Name = 
REMARK  5 active torsions:
REMARK  status: ('A' for Active; 'I' for Inactive)
REMARK    1  A    between atoms: N_5  and  C_6
REMARK    2  A    between atoms: C_6  and  C_7
REMARK    3  A    between atoms: C_7  and  C_8
REMARK    4  A    between atoms: C_14  and  C_15
REMARK    5  A    between atoms: C_17  and  N_18
REMARK                            x       y       z     vdW  Elec       q    Type
REMARK                         _______ _______ _______ _____ _____    ______ ____
ROOT
ATOM      1  N   UNL     1       3.042   8.395  17.869  0.00  0.00    +0.000 N 
ATOM      2  C   UNL     1       3.235   7.032  17.985  0.00  0.00    +0.000 A 
ATOM      3  N   UNL     1       3.903   6.423  16.998  0.00  0.00    +0.000 NA
ATOM      4  C   UNL     1       4.047   5.096  17.077  0.00  0.00    +0.000 A 
ATOM      5  N   UNL     1       4.806   4.374  16.143  0.00  0.00    +0.000 N 
ATOM      6  C   UNL     1       3.503   4.386  18.123  0.00  0.00    +0.000 A 
ATOM      7  C   UNL     1       2.859   5.085  19.131  0.00  0.00    +0.000 A 
ATOM      8  N   UNL     1       2.704   6.423  19.061  0.00  0.00    +0.000 NA
ATOM      9  H   UNL     1       3.094   8.660  16.895  0.00  0.00    +0.000 HD
ATOM     10  H   UNL     1       2.220   8.674  18.382  0.00  0.00    +0.000 HD
ATOM     11  H   UNL     1       4.248   3.670  15.671  0.00  0.00    +0.000 HD
ENDROOT
BRANCH   7  12
ATOM     12  C   UNL     1       2.388   4.358  20.452  0.00  0.00    +0.000 C 
ATOM     13  C   UNL     1       0.924   3.837  20.451  0.00  0.00    +0.000 C 
ATOM     14  C   UNL     1       1.437   2.401  20.617  0.00  0.00    +0.000 C 
ATOM     15  C   UNL     1       2.853   2.944  20.867  0.00  0.00    +0.000 C 
BRANCH  14  16
ATOM     16  N   UNL     1       1.424   1.726  19.322  0.00  0.00    +0.000 NA
ATOM     17  H   UNL     1       0.869   0.864  19.305  0.00  0.00    +0.000 HD
ATOM     18  H   UNL     1       2.347   1.465  18.981  0.00  0.00    +0.000 HD
ENDBRANCH  14  16
ENDBRANCH   7  12
BRANCH   5  19
ATOM     19  C   UNL     1       5.706   5.154  15.293  0.00  0.00    +0.000 C 
BRANCH  19  20
ATOM     20  C   UNL     1       7.172   4.903  15.669  0.00  0.00    +0.000 C 
BRANCH  20  21
ATOM     21  C   UNL     1       7.461   5.317  17.074  0.00  0.00    +0.000 A 
ATOM     22  C   UNL     1       7.512   6.626  17.611  0.00  0.00    +0.000 A 
ATOM     23  C   UNL     1       7.778   6.451  18.948  0.00  0.00    +0.000 A 
ATOM     24  N   UNL     1       7.881   5.105  19.137  0.00  0.00    +0.000 N 
ATOM     25  N   UNL     1       7.700   4.393  18.014  0.00  0.00    +0.000 NA
ATOM     26  H   UNL     1       8.067   4.603  19.999  0.00  0.00    +0.000 HD
ENDBRANCH  20  21
ENDBRANCH  19  20
ENDBRANCH   5  19
TORSDOF 5
ENDMDL
MODEL 4
REMARK VINA RESULT:      -7.0      3.060      5.711
REMARK  Name = 
REMARK  5 active torsions:
REMARK  status: ('A' for Active; 'I' for Inactive)
REMARK    1  A    between atoms: N_5  and  C_6
REMARK    2  A    between atoms: C_6  and  C_7
REMARK    3  A    between atoms: C_7  and  C_8
REMARK    4  A    between atoms: C_14  and  C_15
REMARK    5  A    between atoms: C_17  and  N_18
REMARK                            x       y       z     vdW  Elec       q    Type
REMARK                         _______ _______ _______ _____ _____    ______ ____
ROOT
ATOM      1  N   UNL     1       2.390   5.533  20.922  0.00  0.00    +0.000 N 
ATOM      2  C   UNL     1       2.621   6.356  19.837  0.00  0.00    +0.000 A 
ATOM      3  N   UNL     1       1.924   7.497  19.777  0.00  0.00    +0.000 NA
ATOM      4  C   UNL     1       2.103   8.273  18.703  0.00  0.00    +0.000 A 
ATOM      5  N   UNL     1       1.490   9.531  18.585  0.00  0.00    +0.000 N 
ATOM      6  C   UNL     1       2.952   7.893  17.688  0.00  0.00    +0.000 A 
ATOM      7  C   UNL     1       3.672   6.719  17.835  0.00  0.00    +0.000 A 
ATOM      8  N   UNL     1       3.499   5.925  18.912  0.00  0.00    +0.000 NA
ATOM      9  H   UNL     1       1.473   5.723  21.300  0.00  0.00    +0.000 HD
ATOM     10  H   UNL     1       2.603   4.576  20.684  0.00  0.00    +0.000 HD
ATOM     11  H   UNL     1       0.897   9.582  17.763  0.00  0.00    +0.000 HD
ENDROOT
BRANCH   7  12
ATOM     12  C   UNL     1       4.805   6.327  16.807  0.00  0.00    +0.000 C 
ATOM     13  C   UNL     1       6.257   6.344  17.361  0.00  0.00    +0.000 C 
ATOM     14  C   UNL     1       6.381   4.841  17.078  0.00  0.00    +0.000 C 
ATOM     15  C   UNL     1       5.051   4.885  16.308  0.00  0.00    +0.000 C 
BRANCH  14  16
ATOM     16  N   UNL     1       6.173   4.093  18.315  0.00  0.00    +0.000 NA
ATOM     17  H   UNL     1       6.298   3.081  18.218  0.00  0.00    +0.000 HD
ATOM     18  H   UNL     1       5.250   4.219  18.726  0.00  0.00    +0.000 HD
ENDBRANCH  14  16
ENDBRANCH   7  12
BRANCH   5  19
ATOM     19  C   UNL     1       0.937  10.103  19.812  0.00  0.00    +0.000 C 
BRANCH  19  20
ATOM     20  C   UNL     1      -0.595  10.005  19.823  0.00  0.00    +0.000 C 
BRANCH  20  21
ATOM     21  C   UNL     1      -1.198  10.658  18.623  0.00  0.00    +0.000 A 
ATOM     22  C   UNL     1      -2.121  10.114  17.698  0.00  0.00    +0.000 A 
ATOM     23  C   UNL     1      -2.378  11.134  16.813  0.00  0.00    +0.000 A 
ATOM     24  N   UNL     1      -1.622  12.189  17.225  0.00  0.00    +0.000 N 
ATOM     25  N   UNL     1      -0.889  11.925  18.318  0.00  0.00    +0.000 NA
ATOM     26  H   UNL     1      -1.557  13.116  16.816  0.00  0.00    +0.000 HD
ENDBRANCH  20  21
ENDBRANCH  19  20
ENDBRANCH   5  19
TORSDOF 5
ENDMDL
MODEL 5
REMARK VINA RESULT:      -7.0      2.984      6.564
REMARK  Name = 
REMARK  5 active torsions:
REMARK  status: ('A' for Active; 'I' for Inactive)
REMARK    1  A    between atoms: N_5  and  C_6
REMARK    2  A    between atoms: C_6  and  C_7
REMARK    3  A    between atoms: C_7  and  C_8
REMARK    4  A    between atoms: C_14  and  C_15
REMARK    5  A    between atoms: C_17  and  N_18
REMARK                            x       y       z     vdW  Elec       q    Type
REMARK                         _______ _______ _______ _____ _____    ______ ____
ROOT
ATOM      1  N   UNL     1       8.224   4.756  18.716  0.00  0.00    +0.000 N 
ATOM      2  C   UNL     1       7.102   4.668  17.915  0.00  0.00    +0.000 A 
ATOM      3  N   UNL     1       7.261   4.923  16.611  0.00  0.00    +0.000 NA
ATOM      4  C   UNL     1       6.169   4.893  15.839  0.00  0.00    +0.000 A 
ATOM      5  N   UNL     1       6.240   5.056  14.446  0.00  0.00    +0.000 N 
ATOM      6  C   UNL     1       4.929   4.636  16.377  0.00  0.00    +0.000 A 
ATOM      7  C   UNL     1       4.843   4.341  17.727  0.00  0.00    +0.000 A 
ATOM      8  N   UNL     1       5.936   4.372  18.518  0.00  0.00    +0.000 NA
ATOM      9  H   UNL     1       8.904   5.362  18.277  0.00  0.00    +0.000 HD
ATOM     10  H   UNL     1       7.958   4.970  19.665  0.00  0.00    +0.000 HD
ATOM     11  H   UNL     1       5.690   5.850  14.135  0.00  0.00    +0.000 HD
ENDROOT
BRANCH   7  12
ATOM     12  C   UNL     1       3.487   3.845  18.367  0.00  0.00    +0.000 C 
ATOM     13  C   UNL     1       2.692   2.798  17.539  0.00  0.00    +0.000 C 
ATOM     14  C   UNL     1       2.847   1.782  18.678  0.00  0.00    +0.000 C 
ATOM     15  C   UNL     1       3.406   2.892  19.581  0.00  0.00    +0.000 C 
BRANCH  14  16
ATOM     16  N   UNL     1       3.931   0.856  18.361  0.00  0.00    +0.000 NA
ATOM     17  H   UNL     1       4.847   1.147  18.714  0.00  0.00    +0.000 HD
ATOM     18  H   UNL     1       4.059   0.693  17.364  0.00  0.00    +0.000 HD
ENDBRANCH  14  16
ENDBRANCH   7  12
BRANCH   5  19
ATOM     19  C   UNL     1       7.564   4.915  13.841  0.00  0.00    +0.000 C 
BRANCH  19  20
ATOM     20  C   UNL     1       7.461   4.806  12.313  0.00  0.00    +0.000 C 
BRANCH  20  21
ATOM     21  C   UNL     1       6.787   3.540  11.895  0.00  0.00    +0.000 A 
ATOM     22  C   UNL     1       7.369   2.383  11.325  0.00  0.00    +0.000 A 
ATOM     23  C   UNL     1       6.325   1.503  11.164  0.00  0.00    +0.000 A 
ATOM     24  N   UNL     1       5.215   2.152  11.615  0.00  0.00    +0.000 N 
ATOM     25  N   UNL     1       5.466   3.393  12.058  0.00  0.00    +0.000 NA
ATOM     26  H   UNL     1       4.260   1.811  11.656  0.00  0.00    +0.000 HD
ENDBRANCH  20  21
ENDBRANCH  19  20
ENDBRANCH   5  19
TORSDOF 5
ENDMDL
MODEL 6
REMARK VINA RESULT:      -6.8      1.965      5.912
REMARK  Name = 
REMARK  5 active torsions:
REMARK  status: ('A' for Active; 'I' for Inactive)
REMARK    1  A    between atoms: N_5  and  C_6
REMARK    2  A    between atoms: C_6  and  C_7
REMARK    3  A    between atoms: C_7  and  C_8
REMARK    4  A    between atoms: C_14  and  C_15
REMARK    5  A    between atoms: C_17  and  N_18
REMARK                            x       y       z     vdW  Elec       q    Type
REMARK                         _______ _______ _______ _____ _____    ______ ____
ROOT
ATOM      1  N   UNL     1       3.310   7.465  17.929  0.00  0.00    +0.000 N 
ATOM      2  C   UNL     1       3.413   6.088  17.887  0.00  0.00    +0.000 A 
ATOM      3  N   UNL     1       4.492   5.575  17.283  0.00  0.00    +0.000 NA
ATOM      4  C   UNL     1       4.572   4.243  17.191  0.00  0.00    +0.000 A 
ATOM      5  N   UNL     1       5.702   3.602  16.659  0.00  0.00    +0.000 N 
ATOM      6  C   UNL     1       3.566   3.438  17.675  0.00  0.00    +0.000 A 
ATOM      7  C   UNL     1       2.498   4.034  18.324  0.00  0.00    +0.000 A 
ATOM      8  N   UNL     1       2.402   5.377  18.420  0.00  0.00    +0.000 NA
ATOM      9  H   UNL     1       3.855   7.867  17.179  0.00  0.00    +0.000 HD
ATOM     10  H   UNL     1       2.341   7.739  17.996  0.00  0.00    +0.000 HD
ATOM     11  H   UNL     1       5.464   3.030  15.855  0.00  0.00    +0.000 HD
ENDROOT
BRANCH   7  12
ATOM     12  C   UNL     1       1.413   3.165  19.073  0.00  0.00    +0.000 C 
ATOM     13  C   UNL     1       1.964   2.012  19.957  0.00  0.00    +0.000 C 
ATOM     14  C   UNL     1       1.350   2.672  21.198  0.00  0.00    +0.000 C 
ATOM     15  C   UNL     1       0.603   3.663  20.292  0.00  0.00    +0.000 C 
BRANCH  14  16
ATOM     16  N   UNL     1       2.386   3.402  21.925  0.00  0.00    +0.000 NA
ATOM     17  H   UNL     1       2.201   4.405  22.023  0.00  0.00    +0.000 HD
ATOM     18  H   UNL     1       3.312   3.333  21.508  0.00  0.00    +0.000 HD
ENDBRANCH  14  16
ENDBRANCH   7  12
BRANCH   5  19
ATOM     19  C   UNL     1       6.912   4.415  16.533  0.00  0.00    +0.000 C 
BRANCH  19  20
ATOM     20  C   UNL     1       6.789   5.406  15.368  0.00  0.00    +0.000 C 
BRANCH  20  21
ATOM     21  C   UNL     1       6.784   4.709  14.047  0.00  0.00    +0.000 A 
ATOM     22  C   UNL     1       7.608   4.950  12.923  0.00  0.00    +0.000 A 
ATOM     23  C   UNL     1       7.221   4.017  11.991  0.00  0.00    +0.000 A 
ATOM     24  N   UNL     1       6.220   3.299  12.573  0.00  0.00    +0.000 N 
ATOM     25  N   UNL     1       5.929   3.703  13.820  0.00  0.00    +0.000 NA
ATOM     26  H   UNL     1       5.694   2.522  12.185  0.00  0.00    +0.000 HD
ENDBRANCH  20  21
ENDBRANCH  19  20
ENDBRANCH   5  19
TORSDOF 5
ENDMDL
MODEL 7
REMARK VINA RESULT:      -6.7      2.474      5.977
REMARK  Name = 
REMARK  5 active torsions:
REMARK  status: ('A' for Active; 'I' for Inactive)
REMARK    1  A    between atoms: N_5  and  C_6
REMARK    2  A    between atoms: C_6  and  C_7
REMARK    3  A    between atoms: C_7  and  C_8
REMARK    4  A    between atoms: C_14  and  C_15
REMARK    5  A    between atoms: C_17  and  N_18
REMARK                            x       y       z     vdW  Elec       q    Type
REMARK                         _______ _______ _______ _____ _____    ______ ____
ROOT
ATOM      1  N   UNL     1       2.087   5.969  20.935  0.00  0.00    +0.000 N 
ATOM      2  C   UNL     1       2.429   6.568  19.737  0.00  0.00    +0.000 A 
ATOM      3  N   UNL     1       3.283   5.907  18.947  0.00  0.00    +0.000 NA
ATOM      4  C   UNL     1       3.661   6.504  17.811  0.00  0.00    +0.000 A 
ATOM      5  N   UNL     1       4.481   5.861  16.871  0.00  0.00    +0.000 N 
ATOM      6  C   UNL     1       3.204   7.761  17.487  0.00  0.00    +0.000 A 
ATOM      7  C   UNL     1       2.290   8.370  18.331  0.00  0.00    +0.000 A 
ATOM      8  N   UNL     1       1.905   7.780  19.481  0.00  0.00    +0.000 NA
ATOM      9  H   UNL     1       2.813   5.320  21.206  0.00  0.00    +0.000 HD
ATOM     10  H   UNL     1       1.817   6.670  21.608  0.00  0.00    +0.000 HD
ATOM     11  H   UNL     1       5.339   6.377  16.708  0.00  0.00    +0.000 HD
ENDROOT
BRANCH   7  12
ATOM     12  C   UNL     1       1.578   9.719  17.922  0.00  0.00    +0.000 C 
ATOM     13  C   UNL     1       0.081   9.841  18.317  0.00  0.00    +0.000 C 
ATOM     14  C   UNL     1       0.415  11.044  19.207  0.00  0.00    +0.000 C 
ATOM     15  C   UNL     1       1.835  11.073  18.621  0.00  0.00    +0.000 C 
BRANCH  14  16
ATOM     16  N   UNL     1       0.499  10.612  20.600  0.00  0.00    +0.000 NA
ATOM     17  H   UNL     1      -0.393  10.297  20.995  0.00  0.00    +0.000 HD
ATOM     18  H   UNL     1       0.845  11.327  21.236  0.00  0.00    +0.000 HD
ENDBRANCH  14  16
ENDBRANCH   7  12
BRANCH   5  19
ATOM     19  C   UNL     1       4.621   4.412  17.013  0.00  0.00    +0.000 C 
BRANCH  19  20
ATOM     20  C   UNL     1       6.080   3.979  16.817  0.00  0.00    +0.000 C 
BRANCH  20  21
ATOM     21  C   UNL     1       6.602   4.386  15.479  0.00  0.00    +0.000 A 
ATOM     22  C   UNL     1       6.265   3.862  14.208  0.00  0.00    +0.000 A 
ATOM     23  C   UNL     1       6.996   4.606  13.312  0.00  0.00    +0.000 A 
ATOM     24  N   UNL     1       7.712   5.494  14.058  0.00  0.00    +0.000 N 
ATOM     25  N   UNL     1       7.497   5.377  15.377  0.00  0.00    +0.000 NA
ATOM     26  H   UNL     1       8.359   6.207  13.737  0.00  0.00    +0.000 HD
ENDBRANCH  20  21
ENDBRANCH  19  20
ENDBRANCH   5  19
TORSDOF 5
ENDMDL
MODEL 8
REMARK VINA RESULT:      -6.7      2.720      6.195
REMARK  Name = 
REMARK  5 active torsions:
REMARK  status: ('A' for Active; 'I' for Inactive)
REMARK    1  A    between atoms: N_5  and  C_6
REMARK    2  A    between atoms: C_6  and  C_7
REMARK    3  A    between atoms: C_7  and  C_8
REMARK    4  A    between atoms: C_14  and  C_15
REMARK    5  A    between atoms: C_17  and  N_18
REMARK                            x       y       z     vdW  Elec       q    Type
REMARK                         _______ _______ _______ _____ _____    ______ ____
ROOT
ATOM      1  N   UNL     1       7.210   5.190  19.681  0.00  0.00    +0.000 N 
ATOM      2  C   UNL     1       6.110   5.147  18.846  0.00  0.00    +0.000 A 
ATOM      3  N   UNL     1       6.344   5.008  17.536  0.00  0.00    +0.000 NA
ATOM      4  C   UNL     1       5.287   5.020  16.716  0.00  0.00    +0.000 A 
ATOM      5  N   UNL     1       5.414   4.791  15.337  0.00  0.00    +0.000 N 
ATOM      6  C   UNL     1       4.013   5.197  17.206  0.00  0.00    +0.000 A 
ATOM      7  C   UNL     1       3.841   5.295  18.577  0.00  0.00    +0.000 A 
ATOM      8  N   UNL     1       4.898   5.288  19.414  0.00  0.00    +0.000 NA
ATOM      9  H   UNL     1       8.020   5.491  19.156  0.00  0.00    +0.000 HD
ATOM     10  H   UNL     1       6.988   5.700  20.522  0.00  0.00    +0.000 HD
ATOM     11  H   UNL     1       5.070   5.578  14.794  0.00  0.00    +0.000 HD
ENDROOT
BRANCH   7  12
ATOM     12  C   UNL     1       2.397   5.300  19.217  0.00  0.00    +0.000 C 
ATOM     13  C   UNL     1       1.475   4.115  18.815  0.00  0.00    +0.000 C 
ATOM     14  C   UNL     1       1.415   3.667  20.281  0.00  0.00    +0.000 C 
ATOM     15  C   UNL     1       2.112   4.971  20.700  0.00  0.00    +0.000 C 
BRANCH  14  16
ATOM     16  N   UNL     1       2.344   2.560  20.491  0.00  0.00    +0.000 NA
ATOM     17  H   UNL     1       2.066   1.916  21.238  0.00  0.00    +0.000 HD
ATOM     18  H   UNL     1       3.293   2.852  20.719  0.00  0.00    +0.000 HD
ENDBRANCH  14  16
ENDBRANCH   7  12
BRANCH   5  19
ATOM     19  C   UNL     1       6.676   4.204  14.888  0.00  0.00    +0.000 C 
BRANCH  19  20
ATOM     20  C   UNL     1       6.926   4.507  13.404  0.00  0.00    +0.000 C 
BRANCH  20  21
ATOM     21  C   UNL     1       6.182   3.565  12.516  0.00  0.00    +0.000 A 
ATOM     22  C   UNL     1       6.681   2.445  11.808  0.00  0.00    +0.000 A 
ATOM     23  C   UNL     1       5.585   1.906  11.178  0.00  0.00    +0.000 A 
ATOM     24  N   UNL     1       4.530   2.700  11.515  0.00  0.00    +0.000 N 
ATOM     25  N   UNL     1       4.866   3.719  12.321  0.00  0.00    +0.000 NA
ATOM     26  H   UNL     1       3.557   2.607  11.239  0.00  0.00    +0.000 HD
ENDBRANCH  20  21
ENDBRANCH  19  20
ENDBRANCH   5  19
TORSDOF 5
ENDMDL
MODEL 9
REMARK VINA RESULT:      -6.6      2.868      6.463
REMARK  Name = 
REMARK  5 active torsions:
REMARK  status: ('A' for Active; 'I' for Inactive)
REMARK    1  A    between atoms: N_5  and  C_6
REMARK    2  A    between atoms: C_6  and  C_7
REMARK    3  A    between atoms: C_7  and  C_8
REMARK    4  A    between atoms: C_14  and  C_15
REMARK    5  A    between atoms: C_17  and  N_18
REMARK                            x       y       z     vdW  Elec       q    Type
REMARK                         _______ _______ _______ _____ _____    ______ ____
ROOT
ATOM      1  N   UNL     1       7.284   5.170  19.402  0.00  0.00    +0.000 N 
ATOM      2  C   UNL     1       6.283   4.672  18.591  0.00  0.00    +0.000 A 
ATOM      3  N   UNL     1       6.473   4.753  17.268  0.00  0.00    +0.000 NA
ATOM      4  C   UNL     1       5.485   4.322  16.476  0.00  0.00    +0.000 A 
ATOM      5  N   UNL     1       5.618   4.279  15.079  0.00  0.00    +0.000 N 
ATOM      6  C   UNL     1       4.310   3.842  17.008  0.00  0.00    +0.000 A 
ATOM      7  C   UNL     1       4.197   3.749  18.385  0.00  0.00    +0.000 A 
ATOM      8  N   UNL     1       5.185   4.183  19.195  0.00  0.00    +0.000 NA
ATOM      9  H   UNL     1       7.824   5.854  18.890  0.00  0.00    +0.000 HD
ATOM     10  H   UNL     1       6.902   5.453  20.292  0.00  0.00    +0.000 HD
ATOM     11  H   UNL     1       4.914   4.846  14.618  0.00  0.00    +0.000 HD
ENDROOT
BRANCH   7  12
ATOM     12  C   UNL     1       2.962   3.027  19.053  0.00  0.00    +0.000 C 
ATOM     13  C   UNL     1       3.063   2.794  20.586  0.00  0.00    +0.000 C 
ATOM     14  C   UNL     1       1.831   3.683  20.800  0.00  0.00    +0.000 C 
ATOM     15  C   UNL     1       1.591   3.703  19.283  0.00  0.00    +0.000 C 
BRANCH  14  16
ATOM     16  N   UNL     1       2.260   5.016  21.217  0.00  0.00    +0.000 NA
ATOM     17  H   UNL     1       3.026   5.403  20.658  0.00  0.00    +0.000 HD
ATOM     18  H   UNL     1       2.572   5.068  22.185  0.00  0.00    +0.000 HD
ENDBRANCH  14  16
ENDBRANCH   7  12
BRANCH   5  19
ATOM     19  C   UNL     1       6.978   4.391  14.552  0.00  0.00    +0.000 C 
BRANCH  19  20
ATOM     20  C   UNL     1       6.961   4.661  13.041  0.00  0.00    +0.000 C 
BRANCH  20  21
ATOM     21  C   UNL     1       6.332   3.537  12.286  0.00  0.00    +0.000 A 
ATOM     22  C   UNL     1       6.960   2.413  11.699  0.00  0.00    +0.000 A 
ATOM     23  C   UNL     1       5.934   1.672  11.163  0.00  0.00    +0.000 A 
ATOM     24  N   UNL     1       4.791   2.364  11.432  0.00  0.00    +0.000 N 
ATOM     25  N   UNL     1       5.005   3.504  12.107  0.00  0.00    +0.000 NA
ATOM     26  H   UNL     1       3.835   2.120  11.193  0.00  0.00    +0.000 HD
ENDBRANCH  20  21
ENDBRANCH  19  20
ENDBRANCH   5  19
TORSDOF 5
ENDMDL
