MODEL 1
REMARK VINA RESULT:      -7.0      0.000      0.000
REMARK  Name = 
REMARK  5 active torsions:
REMARK  status: ('A' for Active; 'I' for Inactive)
REMARK    1  A    between atoms: C_1  and  N_2
REMARK    2  A    between atoms: C_5  and  S_6
REMARK    3  A    between atoms: S_6  and  C_7
REMARK    4  A    between atoms: C_10  and  C_11
REMARK    5  A    between atoms: C_15  and  C_16
REMARK                            x       y       z     vdW  Elec       q    Type
REMARK                         _______ _______ _______ _____ _____    ______ ____
ROOT
ATOM      1  C   UNL     1       1.619   8.960  18.177  0.00  0.00    +0.000 C 
ATOM      2  N   UNL     1       2.647   8.208  17.491  0.00  0.00    +0.000 N 
ATOM      3  C   UNL     1       3.136   7.122  18.198  0.00  0.00    +0.000 A 
ATOM      4  N   UNL     1       4.418   6.810  17.998  0.00  0.00    +0.000 NA
ATOM      5  C   UNL     1       4.902   5.743  18.661  0.00  0.00    +0.000 A 
ATOM      6  C   UNL     1       4.140   4.986  19.525  0.00  0.00    +0.000 A 
ATOM      7  C   UNL     1       2.825   5.371  19.674  0.00  0.00    +0.000 A 
ATOM      8  N   UNL     1       2.326   6.445  19.016  0.00  0.00    +0.000 NA
ATOM      9  H   UNL     1       3.448   8.741  17.173  0.00  0.00    +0.000 HD
ENDROOT
BRANCH   7  10
ATOM     10  C   UNL     1       1.883   4.582  20.563  0.00  0.00    +0.000 C 
ATOM     11  F   UNL     1       1.593   3.340  20.070  0.00  0.00    +0.000 F 
ATOM     12  F   UNL     1       2.386   4.365  21.812  0.00  0.00    +0.000 F 
ATOM     13  F   UNL     1       0.678   5.190  20.741  0.00  0.00    +0.000 F 
ENDBRANCH   7  10
BRANCH   5  14
ATOM     14  S   UNL     1       6.567   5.228  18.276  0.00  0.00    +0.000 S 
BRANCH  14  15
ATOM     15  C   UNL     1       6.436   4.716  16.574  0.00  0.00    +0.000 A 
ATOM     16  C   UNL     1       5.399   3.856  16.193  0.00  0.00    +0.000 A 
ATOM     17  C   UNL     1       5.244   3.475  14.856  0.00  0.00    +0.000 A 
ATOM     18  C   UNL     1       6.117   3.956  13.876  0.00  0.00    +0.000 A 
ATOM     19  C   UNL     1       5.966   3.554  12.438  0.00  0.00    +0.000 C 
ATOM     20  C   UNL     1       7.139   4.838  14.253  0.00  0.00    +0.000 A 
ATOM     21  C   UNL     1       7.295   5.216  15.590  0.00  0.00    +0.000 A 
ENDBRANCH  14  15
ENDBRANCH   5  14
TORSDOF 3
ENDMDL
MODEL 2
REMARK VINA RESULT:      -7.0      2.566      3.552
REMARK  Name = 
REMARK  5 active torsions:
REMARK  status: ('A' for Active; 'I' for Inactive)
REMARK    1  A    between atoms: C_1  and  N_2
REMARK    2  A    between atoms: C_5  and  S_6
REMARK    3  A    between atoms: S_6  and  C_7
REMARK    4  A    between atoms: C_10  and  C_11
REMARK    5  A    between atoms: C_15  and  C_16
REMARK                            x       y       z     vdW  Elec       q    Type
REMARK                         _______ _______ _______ _____ _____    ______ ____
ROOT
ATOM      1  C   UNL     1       1.605   7.606  20.720  0.00  0.00    +0.000 C 
ATOM      2  N   UNL     1       2.322   7.373  19.485  0.00  0.00    +0.000 N 
ATOM      3  C   UNL     1       2.712   6.059  19.283  0.00  0.00    +0.000 A 
ATOM      4  N   UNL     1       3.849   5.874  18.609  0.00  0.00    +0.000 NA
ATOM      5  C   UNL     1       4.230   4.602  18.386  0.00  0.00    +0.000 A 
ATOM      6  C   UNL     1       3.509   3.513  18.826  0.00  0.00    +0.000 A 
ATOM      7  C   UNL     1       2.345   3.789  19.511  0.00  0.00    +0.000 A 
ATOM      8  N   UNL     1       1.952   5.064  19.746  0.00  0.00    +0.000 NA
ATOM      9  H   UNL     1       3.138   7.953  19.330  0.00  0.00    +0.000 HD
ENDROOT
BRANCH   7  10
ATOM     10  C   UNL     1       1.449   2.667  19.999  0.00  0.00    +0.000 C 
ATOM     11  F   UNL     1       1.746   1.458  19.435  0.00  0.00    +0.000 F 
ATOM     12  F   UNL     1       1.532   2.467  21.346  0.00  0.00    +0.000 F 
ATOM     13  F   UNL     1       0.131   2.878  19.729  0.00  0.00    +0.000 F 
ENDBRANCH   7  10
BRANCH   5  14
ATOM     14  S   UNL     1       5.661   4.348  17.350  0.00  0.00    +0.000 S 
BRANCH  14  15
ATOM     15  C   UNL     1       6.645   5.797  17.678  0.00  0.00    +0.000 A 
ATOM     16  C   UNL     1       6.417   6.964  16.940  0.00  0.00    +0.000 A 
ATOM     17  C   UNL     1       7.142   8.130  17.207  0.00  0.00    +0.000 A 
ATOM     18  C   UNL     1       8.100   8.151  18.225  0.00  0.00    +0.000 A 
ATOM     19  C   UNL     1       8.888   9.393  18.522  0.00  0.00    +0.000 C 
ATOM     20  C   UNL     1       8.310   6.991  18.981  0.00  0.00    +0.000 A 
ATOM     21  C   UNL     1       7.586   5.825  18.712  0.00  0.00    +0.000 A 
ENDBRANCH  14  15
ENDBRANCH   5  14
TORSDOF 3
ENDMDL
MODEL 3
REMARK VINA RESULT:      -7.0      0.352      1.368
REMARK  Name = 
REMARK  5 active torsions:
REMARK  status: ('A' for Active; 'I' for Inactive)
REMARK    1  A    between atoms: C_1  and  N_2
REMARK    2  A    between atoms: C_5  and  S_6
REMARK    3  A    between atoms: S_6  and  C_7
REMARK    4  A    between atoms: C_10  and  C_11
REMARK    5  A    between atoms: C_15  and  C_16
REMARK                            x       y       z     vdW  Elec       q    Type
REMARK                         _______ _______ _______ _____ _____    ______ ____
ROOT
ATOM      1  C   UNL     1       1.565   8.723  18.647  0.00  0.00    +0.000 C 
ATOM      2  N   UNL     1       2.582   8.069  17.855  0.00  0.00    +0.000 N 
ATOM      3  C   UNL     1       3.107   6.920  18.425  0.00  0.00    +0.000 A 
ATOM      4  N   UNL     1       4.387   6.654  18.156  0.00  0.00    +0.000 NA
ATOM      5  C   UNL     1       4.905   5.529  18.685  0.00  0.00    +0.000 A 
ATOM      6  C   UNL     1       4.180   4.670  19.482  0.00  0.00    +0.000 A 
ATOM      7  C   UNL     1       2.864   5.014  19.709  0.00  0.00    +0.000 A 
ATOM      8  N   UNL     1       2.331   6.145  19.186  0.00  0.00    +0.000 NA
ATOM      9  H   UNL     1       3.366   8.646  17.575  0.00  0.00    +0.000 HD
ENDROOT
BRANCH   7  10
ATOM     10  C   UNL     1       1.960   4.116  20.532  0.00  0.00    +0.000 C 
ATOM     11  F   UNL     1       0.647   4.496  20.495  0.00  0.00    +0.000 F 
ATOM     12  F   UNL     1       1.972   2.819  20.112  0.00  0.00    +0.000 F 
ATOM     13  F   UNL     1       2.291   4.089  21.853  0.00  0.00    +0.000 F 
ENDBRANCH   7  10
BRANCH   5  14
ATOM     14  S   UNL     1       6.564   5.088  18.200  0.00  0.00    +0.000 S 
BRANCH  14  15
ATOM     15  C   UNL     1       6.373   4.673  16.477  0.00  0.00    +0.000 A 
ATOM     16  C   UNL     1       7.361   5.061  15.564  0.00  0.00    +0.000 A 
ATOM     17  C   UNL     1       7.260   4.710  14.214  0.00  0.00    +0.000 A 
ATOM     18  C   UNL     1       6.176   3.954  13.756  0.00  0.00    +0.000 A 
ATOM     19  C   UNL     1       6.052   3.571  12.311  0.00  0.00    +0.000 C 
ATOM     20  C   UNL     1       5.201   3.544  14.676  0.00  0.00    +0.000 A 
ATOM     21  C   UNL     1       5.301   3.898  16.025  0.00  0.00    +0.000 A 
ENDBRANCH  14  15
ENDBRANCH   5  14
TORSDOF 3
ENDMDL
MODEL 4
REMARK VINA RESULT:      -7.0      2.638      3.644
REMARK  Name = 
REMARK  5 active torsions:
REMARK  status: ('A' for Active; 'I' for Inactive)
REMARK    1  A    between atoms: C_1  and  N_2
REMARK    2  A    between atoms: C_5  and  S_6
REMARK    3  A    between atoms: S_6  and  C_7
REMARK    4  A    between atoms: C_10  and  C_11
REMARK    5  A    between atoms: C_15  and  C_16
REMARK                            x       y       z     vdW  Elec       q    Type
REMARK                         _______ _______ _______ _____ _____    ______ ____
ROOT
ATOM      1  C   UNL     1       1.531   7.495  20.911  0.00  0.00    +0.000 C 
ATOM      2  N   UNL     1       2.274   7.336  19.680  0.00  0.00    +0.000 N 
ATOM      3  C   UNL     1       2.638   6.031  19.391  0.00  0.00    +0.000 A 
ATOM      4  N   UNL     1       3.787   5.867  18.733  0.00  0.00    +0.000 NA
ATOM      5  C   UNL     1       4.144   4.605  18.425  0.00  0.00    +0.000 A 
ATOM      6  C   UNL     1       3.388   3.506  18.766  0.00  0.00    +0.000 A 
ATOM      7  C   UNL     1       2.213   3.760  19.441  0.00  0.00    +0.000 A 
ATOM      8  N   UNL     1       1.844   5.024  19.761  0.00  0.00    +0.000 NA
ATOM      9  H   UNL     1       3.107   7.905  19.588  0.00  0.00    +0.000 HD
ENDROOT
BRANCH   7  10
ATOM     10  C   UNL     1       1.279   2.628  19.824  0.00  0.00    +0.000 C 
ATOM     11  F   UNL     1       0.098   2.651  19.136  0.00  0.00    +0.000 F 
ATOM     12  F   UNL     1       1.812   1.395  19.586  0.00  0.00    +0.000 F 
ATOM     13  F   UNL     1       0.931   2.642  21.141  0.00  0.00    +0.000 F 
ENDBRANCH   7  10
BRANCH   5  14
ATOM     14  S   UNL     1       5.596   4.393  17.408  0.00  0.00    +0.000 S 
BRANCH  14  15
ATOM     15  C   UNL     1       6.533   5.870  17.748  0.00  0.00    +0.000 A 
ATOM     16  C   UNL     1       7.514   5.846  18.747  0.00  0.00    +0.000 A 
ATOM     17  C   UNL     1       8.297   6.976  19.003  0.00  0.00    +0.000 A 
ATOM     18  C   UNL     1       8.120   8.146  18.258  0.00  0.00    +0.000 A 
ATOM     19  C   UNL     1       8.951   9.367  18.522  0.00  0.00    +0.000 C 
ATOM     20  C   UNL     1       7.157   8.160  17.240  0.00  0.00    +0.000 A 
ATOM     21  C   UNL     1       6.373   7.031  16.986  0.00  0.00    +0.000 A 
ENDBRANCH  14  15
ENDBRANCH   5  14
TORSDOF 3
ENDMDL
MODEL 5
REMARK VINA RESULT:      -6.9      3.267      6.197
REMARK  Name = 
REMARK  5 active torsions:
REMARK  status: ('A' for Active; 'I' for Inactive)
REMARK    1  A    between atoms: C_1  and  N_2
REMARK    2  A    between atoms: C_5  and  S_6
REMARK    3  A    between atoms: S_6  and  C_7
REMARK    4  A    between atoms: C_10  and  C_11
REMARK    5  A    between atoms: C_15  and  C_16
REMARK                            x       y       z     vdW  Elec       q    Type
REMARK                         _______ _______ _______ _____ _____    ______ ____
ROOT
ATOM      1  C   UNL     1       7.251   4.606  14.115  0.00  0.00    +0.000 C 
ATOM      2  N   UNL     1       6.192   5.543  14.418  0.00  0.00    +0.000 N 
ATOM      3  C   UNL     1       5.938   5.708  15.770  0.00  0.00    +0.000 A 
ATOM      4  N   UNL     1       4.675   5.974  16.109  0.00  0.00    +0.000 NA
ATOM      5  C   UNL     1       4.416   6.158  17.417  0.00  0.00    +0.000 A 
ATOM      6  C   UNL     1       5.384   6.075  18.394  0.00  0.00    +0.000 A 
ATOM      7  C   UNL     1       6.664   5.801  17.962  0.00  0.00    +0.000 A 
ATOM      8  N   UNL     1       6.938   5.609  16.649  0.00  0.00    +0.000 NA
ATOM      9  H   UNL     1       5.302   5.367  13.967  0.00  0.00    +0.000 HD
ENDROOT
BRANCH   7  10
ATOM     10  C   UNL     1       7.816   5.735  18.946  0.00  0.00    +0.000 C 
ATOM     11  F   UNL     1       8.610   6.847  18.919  0.00  0.00    +0.000 F 
ATOM     12  F   UNL     1       7.404   5.616  20.241  0.00  0.00    +0.000 F 
ATOM     13  F   UNL     1       8.655   4.686  18.719  0.00  0.00    +0.000 F 
ENDBRANCH   7  10
BRANCH   5  14
ATOM     14  S   UNL     1       2.764   6.670  17.858  0.00  0.00    +0.000 S 
BRANCH  14  15
ATOM     15  C   UNL     1       2.272   5.433  19.043  0.00  0.00    +0.000 A 
ATOM     16  C   UNL     1       1.807   4.193  18.589  0.00  0.00    +0.000 A 
ATOM     17  C   UNL     1       1.458   3.187  19.496  0.00  0.00    +0.000 A 
ATOM     18  C   UNL     1       1.578   3.400  20.872  0.00  0.00    +0.000 A 
ATOM     19  C   UNL     1       1.206   2.332  21.858  0.00  0.00    +0.000 C 
ATOM     20  C   UNL     1       2.068   4.632  21.326  0.00  0.00    +0.000 A 
ATOM     21  C   UNL     1       2.415   5.638  20.419  0.00  0.00    +0.000 A 
ENDBRANCH  14  15
ENDBRANCH   5  14
TORSDOF 3
ENDMDL
MODEL 6
REMARK VINA RESULT:      -6.9      3.251      6.306
REMARK  Name = 
REMARK  5 active torsions:
REMARK  status: ('A' for Active; 'I' for Inactive)
REMARK    1  A    between atoms: C_1  and  N_2
REMARK    2  A    between atoms: C_5  and  S_6
REMARK    3  A    between atoms: S_6  and  C_7
REMARK    4  A    between atoms: C_10  and  C_11
REMARK    5  A    between atoms: C_15  and  C_16
REMARK                            x       y       z     vdW  Elec       q    Type
REMARK                         _______ _______ _______ _____ _____    ______ ____
ROOT
ATOM      1  C   UNL     1       6.182   3.882  14.665  0.00  0.00    +0.000 C 
ATOM      2  N   UNL     1       5.047   4.558  15.254  0.00  0.00    +0.000 N 
ATOM      3  C   UNL     1       5.161   4.799  16.613  0.00  0.00    +0.000 A 
ATOM      4  N   UNL     1       4.028   4.782  17.317  0.00  0.00    +0.000 NA
ATOM      5  C   UNL     1       4.120   5.036  18.636  0.00  0.00    +0.000 A 
ATOM      6  C   UNL     1       5.315   5.298  19.270  0.00  0.00    +0.000 A 
ATOM      7  C   UNL     1       6.440   5.301  18.472  0.00  0.00    +0.000 A 
ATOM      8  N   UNL     1       6.361   5.043  17.144  0.00  0.00    +0.000 NA
ATOM      9  H   UNL     1       4.145   4.123  15.104  0.00  0.00    +0.000 HD
ENDROOT
BRANCH   7  10
ATOM     10  C   UNL     1       7.802   5.623  19.055  0.00  0.00    +0.000 C 
ATOM     11  F   UNL     1       7.809   5.645  20.422  0.00  0.00    +0.000 F 
ATOM     12  F   UNL     1       8.760   4.719  18.703  0.00  0.00    +0.000 F 
ATOM     13  F   UNL     1       8.274   6.842  18.672  0.00  0.00    +0.000 F 
ENDBRANCH   7  10
BRANCH   5  14
ATOM     14  S   UNL     1       2.592   5.172  19.550  0.00  0.00    +0.000 S 
BRANCH  14  15
ATOM     15  C   UNL     1       2.130   6.874  19.292  0.00  0.00    +0.000 A 
ATOM     16  C   UNL     1       1.611   7.614  20.361  0.00  0.00    +0.000 A 
ATOM     17  C   UNL     1       1.283   8.964  20.200  0.00  0.00    +0.000 A 
ATOM     18  C   UNL     1       1.478   9.599  18.970  0.00  0.00    +0.000 A 
ATOM     19  C   UNL     1       1.128  11.046  18.781  0.00  0.00    +0.000 C 
ATOM     20  C   UNL     1       2.021   8.865  17.908  0.00  0.00    +0.000 A 
ATOM     21  C   UNL     1       2.347   7.515  18.069  0.00  0.00    +0.000 A 
ENDBRANCH  14  15
ENDBRANCH   5  14
TORSDOF 3
ENDMDL
MODEL 7
REMARK VINA RESULT:      -6.9      3.312      6.412
REMARK  Name = 
REMARK  5 active torsions:
REMARK  status: ('A' for Active; 'I' for Inactive)
REMARK    1  A    between atoms: C_1  and  N_2
REMARK    2  A    between atoms: C_5  and  S_6
REMARK    3  A    between atoms: S_6  and  C_7
REMARK    4  A    between atoms: C_10  and  C_11
REMARK    5  A    between atoms: C_15  and  C_16
REMARK                            x       y       z     vdW  Elec       q    Type
REMARK                         _______ _______ _______ _____ _____    ______ ____
ROOT
ATOM      1  C   UNL     1       6.523   4.073  14.275  0.00  0.00    +0.000 C 
ATOM      2  N   UNL     1       5.287   4.534  14.870  0.00  0.00    +0.000 N 
ATOM      3  C   UNL     1       5.320   4.650  16.250  0.00  0.00    +0.000 A 
ATOM      4  N   UNL     1       4.175   4.415  16.893  0.00  0.00    +0.000 NA
ATOM      5  C   UNL     1       4.185   4.545  18.234  0.00  0.00    +0.000 A 
ATOM      6  C   UNL     1       5.312   4.894  18.946  0.00  0.00    +0.000 A 
ATOM      7  C   UNL     1       6.453   5.124  18.208  0.00  0.00    +0.000 A 
ATOM      8  N   UNL     1       6.457   4.992  16.859  0.00  0.00    +0.000 NA
ATOM      9  H   UNL     1       4.457   4.003  14.636  0.00  0.00    +0.000 HD
ENDROOT
BRANCH   7  10
ATOM     10  C   UNL     1       7.738   5.560  18.884  0.00  0.00    +0.000 C 
ATOM     11  F   UNL     1       8.766   4.678  18.704  0.00  0.00    +0.000 F 
ATOM     12  F   UNL     1       8.203   6.756  18.422  0.00  0.00    +0.000 F 
ATOM     13  F   UNL     1       7.613   5.699  20.233  0.00  0.00    +0.000 F 
ENDBRANCH   7  10
BRANCH   5  14
ATOM     14  S   UNL     1       2.622   4.389  19.081  0.00  0.00    +0.000 S 
BRANCH  14  15
ATOM     15  C   UNL     1       2.192   6.083  19.429  0.00  0.00    +0.000 A 
ATOM     16  C   UNL     1       2.340   7.049  18.426  0.00  0.00    +0.000 A 
ATOM     17  C   UNL     1       1.967   8.377  18.656  0.00  0.00    +0.000 A 
ATOM     18  C   UNL     1       1.430   8.760  19.889  0.00  0.00    +0.000 A 
ATOM     19  C   UNL     1       1.027  10.181  20.152  0.00  0.00    +0.000 C 
ATOM     20  C   UNL     1       1.258   7.787  20.883  0.00  0.00    +0.000 A 
ATOM     21  C   UNL     1       1.633   6.460  20.654  0.00  0.00    +0.000 A 
ENDBRANCH  14  15
ENDBRANCH   5  14
TORSDOF 3
ENDMDL
MODEL 8
REMARK VINA RESULT:      -6.8      3.289      6.235
REMARK  Name = 
REMARK  5 active torsions:
REMARK  status: ('A' for Active; 'I' for Inactive)
REMARK    1  A    between atoms: C_1  and  N_2
REMARK    2  A    between atoms: C_5  and  S_6
REMARK    3  A    between atoms: S_6  and  C_7
REMARK    4  A    between atoms: C_10  and  C_11
REMARK    5  A    between atoms: C_15  and  C_16
REMARK                            x       y       z     vdW  Elec       q    Type
REMARK                         _______ _______ _______ _____ _____    ______ ____
ROOT
ATOM      1  C   UNL     1       7.166   4.715  14.053  0.00  0.00    +0.000 C 
ATOM      2  N   UNL     1       6.064   5.587  14.397  0.00  0.00    +0.000 N 
ATOM      3  C   UNL     1       5.836   5.719  15.756  0.00  0.00    +0.000 A 
ATOM      4  N   UNL     1       4.569   5.909  16.131  0.00  0.00    +0.000 NA
ATOM      5  C   UNL     1       4.333   6.062  17.448  0.00  0.00    +0.000 A 
ATOM      6  C   UNL     1       5.329   6.021  18.399  0.00  0.00    +0.000 A 
ATOM      7  C   UNL     1       6.611   5.825  17.931  0.00  0.00    +0.000 A 
ATOM      8  N   UNL     1       6.862   5.666  16.609  0.00  0.00    +0.000 NA
ATOM      9  H   UNL     1       5.174   5.367  13.966  0.00  0.00    +0.000 HD
ENDROOT
BRANCH   7  10
ATOM     10  C   UNL     1       7.790   5.811  18.885  0.00  0.00    +0.000 C 
ATOM     11  F   UNL     1       8.669   4.794  18.637  0.00  0.00    +0.000 F 
ATOM     12  F   UNL     1       8.534   6.953  18.830  0.00  0.00    +0.000 F 
ATOM     13  F   UNL     1       7.423   5.661  20.188  0.00  0.00    +0.000 F 
ENDBRANCH   7  10
BRANCH   5  14
ATOM     14  S   UNL     1       2.667   6.473  17.937  0.00  0.00    +0.000 S 
BRANCH  14  15
ATOM     15  C   UNL     1       2.271   5.188  19.106  0.00  0.00    +0.000 A 
ATOM     16  C   UNL     1       2.469   5.419  20.473  0.00  0.00    +0.000 A 
ATOM     17  C   UNL     1       2.124   4.446  21.417  0.00  0.00    +0.000 A 
ATOM     18  C   UNL     1       1.565   3.231  21.011  0.00  0.00    +0.000 A 
ATOM     19  C   UNL     1       1.192   2.176  22.011  0.00  0.00    +0.000 C 
ATOM     20  C   UNL     1       1.343   3.011  19.645  0.00  0.00    +0.000 A 
ATOM     21  C   UNL     1       1.691   3.983  18.701  0.00  0.00    +0.000 A 
ENDBRANCH  14  15
ENDBRANCH   5  14
TORSDOF 3
ENDMDL
MODEL 9
REMARK VINA RESULT:      -6.8      2.094      3.061
REMARK  Name = 
REMARK  5 active torsions:
REMARK  status: ('A' for Active; 'I' for Inactive)
REMARK    1  A    between atoms: C_1  and  N_2
REMARK    2  A    between atoms: C_5  and  S_6
REMARK    3  A    between atoms: S_6  and  C_7
REMARK    4  A    between atoms: C_10  and  C_11
REMARK    5  A    between atoms: C_15  and  C_16
REMARK                            x       y       z     vdW  Elec       q    Type
REMARK                         _______ _______ _______ _____ _____    ______ ____
ROOT
ATOM      1  C   UNL     1       1.069   3.697  20.481  0.00  0.00    +0.000 C 
ATOM      2  N   UNL     1       2.502   3.846  20.606  0.00  0.00    +0.000 N 
ATOM      3  C   UNL     1       3.056   4.809  19.778  0.00  0.00    +0.000 A 
ATOM      4  N   UNL     1       4.296   4.578  19.344  0.00  0.00    +0.000 NA
ATOM      5  C   UNL     1       4.856   5.516  18.557  0.00  0.00    +0.000 A 
ATOM      6  C   UNL     1       4.206   6.672  18.186  0.00  0.00    +0.000 A 
ATOM      7  C   UNL     1       2.929   6.839  18.679  0.00  0.00    +0.000 A 
ATOM      8  N   UNL     1       2.352   5.901  19.469  0.00  0.00    +0.000 NA
ATOM      9  H   UNL     1       3.048   3.001  20.485  0.00  0.00    +0.000 HD
ENDROOT
BRANCH   7  10
ATOM     10  C   UNL     1       2.139   8.096  18.374  0.00  0.00    +0.000 C 
ATOM     11  F   UNL     1       1.531   8.629  19.477  0.00  0.00    +0.000 F 
ATOM     12  F   UNL     1       2.910   9.100  17.866  0.00  0.00    +0.000 F 
ATOM     13  F   UNL     1       1.138   7.895  17.472  0.00  0.00    +0.000 F 
ENDBRANCH   7  10
BRANCH   5  14
ATOM     14  S   UNL     1       6.568   5.287  18.106  0.00  0.00    +0.000 S 
BRANCH  14  15
ATOM     15  C   UNL     1       6.459   4.749  16.410  0.00  0.00    +0.000 A 
ATOM     16  C   UNL     1       5.370   3.967  16.006  0.00  0.00    +0.000 A 
ATOM     17  C   UNL     1       5.235   3.570  14.672  0.00  0.00    +0.000 A 
ATOM     18  C   UNL     1       6.180   3.957  13.717  0.00  0.00    +0.000 A 
ATOM     19  C   UNL     1       6.050   3.536  12.283  0.00  0.00    +0.000 C 
ATOM     20  C   UNL     1       7.255   4.761  14.117  0.00  0.00    +0.000 A 
ATOM     21  C   UNL     1       7.392   5.156  15.451  0.00  0.00    +0.000 A 
ENDBRANCH  14  15
ENDBRANCH   5  14
TORSDOF 3
ENDMDL
