MODEL 1
REMARK VINA RESULT:      -7.2      0.000      0.000
REMARK  Name = 
REMARK  10 active torsions:
REMARK  status: ('A' for Active; 'I' for Inactive)
REMARK    1  A    between atoms: C_1  and  O_2
REMARK    2  A    between atoms: O_2  and  C_3
REMARK    3  A    between atoms: C_6  and  C_7
REMARK    4  A    between atoms: C_7  and  C_8
REMARK    5  A    between atoms: C_7  and  C_9
REMARK    6  A    between atoms: C_7  and  C_10
REMARK    7  A    between atoms: C_12  and  N_13
REMARK    8  A    between atoms: C_14  and  C_16
REMARK    9  A    between atoms: C_21  and  C_22
REMARK   10  A    between atoms: C_22  and  O_24
REMARK                            x       y       z     vdW  Elec       q    Type
REMARK                         _______ _______ _______ _____ _____    ______ ____
ROOT
ATOM      1  N   UNL     1       5.367   3.808  17.105  0.00  0.00    +0.000 N 
ATOM      2  C   UNL     1       4.380   4.574  17.717  0.00  0.00    +0.000 C 
ATOM      3  O   UNL     1       3.830   5.533  17.169  0.00  0.00    +0.000 OA
ATOM      4  H   UNL     1       5.510   2.849  17.404  0.00  0.00    +0.000 HD
ENDROOT
BRANCH   1  10
ATOM      5  C   UNL     1       7.154   5.042  15.939  0.00  0.00    +0.000 A 
ATOM      6  C   UNL     1       7.791   5.391  14.739  0.00  0.00    +0.000 A 
ATOM      7  C   UNL     1       7.380   4.846  13.521  0.00  0.00    +0.000 A 
ATOM      8  C   UNL     1       6.296   3.965  13.454  0.00  0.00    +0.000 A 
ATOM      9  C   UNL     1       5.623   3.687  14.655  0.00  0.00    +0.000 A 
ATOM     10  C   UNL     1       6.047   4.176  15.904  0.00  0.00    +0.000 A 
BRANCH   8  11
ATOM     11  C   UNL     1       5.899   3.308  12.122  0.00  0.00    +0.000 C 
ATOM     12  C   UNL     1       6.735   3.927  10.980  0.00  0.00    +0.000 C 
ATOM     13  C   UNL     1       6.142   1.782  12.088  0.00  0.00    +0.000 C 
ATOM     14  C   UNL     1       4.402   3.544  11.839  0.00  0.00    +0.000 C 
ENDBRANCH   8  11
BRANCH   5  16
ATOM     15  C   UNL     1       7.368   6.892  17.396  0.00  0.00    +0.000 C 
ATOM     16  O   UNL     1       7.574   5.494  17.171  0.00  0.00    +0.000 OA
ENDBRANCH   5  16
ENDBRANCH   1  10
BRANCH   2  17
ATOM     17  C   UNL     1       3.901   4.127  19.109  0.00  0.00    +0.000 C 
ATOM     18  C   UNL     1       2.431   4.470  19.387  0.00  0.00    +0.000 C 
ATOM     19  C   UNL     1       1.449   3.505  18.788  0.00  0.00    +0.000 C 
ATOM     20  C   UNL     1       1.797   2.299  18.324  0.00  0.00    +0.000 C 
ATOM     21  C   UNL     1       3.190   1.757  18.398  0.00  0.00    +0.000 C 
ATOM     22  C   UNL     1       4.149   2.593  19.273  0.00  0.00    +0.000 C 
BRANCH  22  23
ATOM     23  C   UNL     1       4.090   2.168  20.733  0.00  0.00    +0.000 C 
ATOM     24  O   UNL     1       3.163   2.415  21.493  0.00  0.00    +0.000 OA
BRANCH  23  25
ATOM     25  O   UNL     1       5.211   1.552  21.174  0.00  0.00    +0.000 OA
ATOM     26  H   UNL     1       5.451   0.742  20.688  0.00  0.00    +0.000 HD
ENDBRANCH  23  25
ENDBRANCH  22  23
ENDBRANCH   2  17
TORSDOF 6
ENDMDL
MODEL 2
REMARK VINA RESULT:      -6.9      1.135      1.751
REMARK  Name = 
REMARK  10 active torsions:
REMARK  status: ('A' for Active; 'I' for Inactive)
REMARK    1  A    between atoms: C_1  and  O_2
REMARK    2  A    between atoms: O_2  and  C_3
REMARK    3  A    between atoms: C_6  and  C_7
REMARK    4  A    between atoms: C_7  and  C_8
REMARK    5  A    between atoms: C_7  and  C_9
REMARK    6  A    between atoms: C_7  and  C_10
REMARK    7  A    between atoms: C_12  and  N_13
REMARK    8  A    between atoms: C_14  and  C_16
REMARK    9  A    between atoms: C_21  and  C_22
REMARK   10  A    between atoms: C_22  and  O_24
REMARK                            x       y       z     vdW  Elec       q    Type
REMARK                         _______ _______ _______ _____ _____    ______ ____
ROOT
ATOM      1  N   UNL     1       4.136   3.834  16.777  0.00  0.00    +0.000 N 
ATOM      2  C   UNL     1       3.477   4.799  17.531  0.00  0.00    +0.000 C 
ATOM      3  O   UNL     1       3.626   6.012  17.358  0.00  0.00    +0.000 OA
ATOM      4  H   UNL     1       3.725   2.912  16.677  0.00  0.00    +0.000 HD
ENDROOT
BRANCH   1  10
ATOM      5  C   UNL     1       6.441   4.631  16.416  0.00  0.00    +0.000 A 
ATOM      6  C   UNL     1       7.501   4.891  15.535  0.00  0.00    +0.000 A 
ATOM      7  C   UNL     1       7.403   4.577  14.178  0.00  0.00    +0.000 A 
ATOM      8  C   UNL     1       6.231   4.029  13.647  0.00  0.00    +0.000 A 
ATOM      9  C   UNL     1       5.153   3.847  14.530  0.00  0.00    +0.000 A 
ATOM     10  C   UNL     1       5.241   4.101  15.910  0.00  0.00    +0.000 A 
BRANCH   8  11
ATOM     11  C   UNL     1       6.157   3.614  12.168  0.00  0.00    +0.000 C 
ATOM     12  C   UNL     1       7.005   4.589  11.323  0.00  0.00    +0.000 C 
ATOM     13  C   UNL     1       6.695   2.191  11.898  0.00  0.00    +0.000 C 
ATOM     14  C   UNL     1       4.696   3.657  11.677  0.00  0.00    +0.000 C 
ENDBRANCH   8  11
BRANCH   5  16
ATOM     15  C   UNL     1       7.270   6.013  18.145  0.00  0.00    +0.000 C 
ATOM     16  O   UNL     1       6.521   4.851  17.773  0.00  0.00    +0.000 OA
ENDBRANCH   5  16
ENDBRANCH   1  10
BRANCH   2  17
ATOM     17  C   UNL     1       2.445   4.306  18.561  0.00  0.00    +0.000 C 
ATOM     18  C   UNL     1       1.763   2.991  18.159  0.00  0.00    +0.000 C 
ATOM     19  C   UNL     1       2.575   1.762  18.449  0.00  0.00    +0.000 C 
ATOM     20  C   UNL     1       3.644   1.762  19.253  0.00  0.00    +0.000 C 
ATOM     21  C   UNL     1       4.118   2.974  19.995  0.00  0.00    +0.000 C 
ATOM     22  C   UNL     1       3.136   4.164  19.955  0.00  0.00    +0.000 C 
BRANCH  22  23
ATOM     23  C   UNL     1       2.115   4.087  21.081  0.00  0.00    +0.000 C 
ATOM     24  O   UNL     1       2.225   3.377  22.072  0.00  0.00    +0.000 OA
BRANCH  23  25
ATOM     25  O   UNL     1       0.998   4.818  20.866  0.00  0.00    +0.000 OA
ATOM     26  H   UNL     1       0.204   4.296  20.645  0.00  0.00    +0.000 HD
ENDBRANCH  23  25
ENDBRANCH  22  23
ENDBRANCH   2  17
TORSDOF 6
ENDMDL
MODEL 3
REMARK VINA RESULT:      -6.9      3.579      7.450
REMARK  Name = 
REMARK  10 active torsions:
REMARK  status: ('A' for Active; 'I' for Inactive)
REMARK    1  A    between atoms: C_1  and  O_2
REMARK    2  A    between atoms: O_2  and  C_3
REMARK    3  A    between atoms: C_6  and  C_7
REMARK    4  A    between atoms: C_7  and  C_8
REMARK    5  A    between atoms: C_7  and  C_9
REMARK    6  A    between atoms: C_7  and  C_10
REMARK    7  A    between atoms: C_12  and  N_13
REMARK    8  A    between atoms: C_14  and  C_16
REMARK    9  A    between atoms: C_21  and  C_22
REMARK   10  A    between atoms: C_22  and  O_24
REMARK                            x       y       z     vdW  Elec       q    Type
REMARK                         _______ _______ _______ _____ _____    ______ ____
ROOT
ATOM      1  N   UNL     1       3.738   6.276  19.020  0.00  0.00    +0.000 N 
ATOM      2  C   UNL     1       3.655   5.203  18.138  0.00  0.00    +0.000 C 
ATOM      3  O   UNL     1       2.611   4.876  17.567  0.00  0.00    +0.000 OA
ATOM      4  H   UNL     1       4.631   6.737  19.160  0.00  0.00    +0.000 HD
ENDROOT
BRANCH   1  10
ATOM      5  C   UNL     1       1.886   6.402  20.642  0.00  0.00    +0.000 A 
ATOM      6  C   UNL     1       0.777   7.093  21.152  0.00  0.00    +0.000 A 
ATOM      7  C   UNL     1       0.421   8.349  20.655  0.00  0.00    +0.000 A 
ATOM      8  C   UNL     1       1.133   8.939  19.606  0.00  0.00    +0.000 A 
ATOM      9  C   UNL     1       2.193   8.197  19.056  0.00  0.00    +0.000 A 
ATOM     10  C   UNL     1       2.610   6.957  19.572  0.00  0.00    +0.000 A 
BRANCH   8  11
ATOM     11  C   UNL     1       0.783  10.353  19.116  0.00  0.00    +0.000 C 
ATOM     12  C   UNL     1      -0.551  10.307  18.340  0.00  0.00    +0.000 C 
ATOM     13  C   UNL     1       0.609  11.379  20.259  0.00  0.00    +0.000 C 
ATOM     14  C   UNL     1       1.893  10.882  18.185  0.00  0.00    +0.000 C 
ENDBRANCH   8  11
BRANCH   5  16
ATOM     15  C   UNL     1       1.476   4.083  20.855  0.00  0.00    +0.000 C 
ATOM     16  O   UNL     1       2.321   5.199  21.153  0.00  0.00    +0.000 OA
ENDBRANCH   5  16
ENDBRANCH   1  10
BRANCH   2  17
ATOM     17  C   UNL     1       4.961   4.460  17.805  0.00  0.00    +0.000 C 
ATOM     18  C   UNL     1       4.880   3.637  16.511  0.00  0.00    +0.000 C 
ATOM     19  C   UNL     1       5.067   4.440  15.257  0.00  0.00    +0.000 C 
ATOM     20  C   UNL     1       5.562   5.683  15.249  0.00  0.00    +0.000 C 
ATOM     21  C   UNL     1       6.034   6.390  16.482  0.00  0.00    +0.000 C 
ATOM     22  C   UNL     1       6.135   5.488  17.730  0.00  0.00    +0.000 C 
BRANCH  22  23
ATOM     23  C   UNL     1       7.489   4.800  17.817  0.00  0.00    +0.000 C 
ATOM     24  O   UNL     1       8.040   4.229  16.884  0.00  0.00    +0.000 OA
BRANCH  23  25
ATOM     25  O   UNL     1       8.024   4.787  19.059  0.00  0.00    +0.000 OA
ATOM     26  H   UNL     1       8.698   5.472  19.221  0.00  0.00    +0.000 HD
ENDBRANCH  23  25
ENDBRANCH  22  23
ENDBRANCH   2  17
TORSDOF 6
ENDMDL
MODEL 4
REMARK VINA RESULT:      -6.8      4.692      7.518
REMARK  Name = 
REMARK  10 active torsions:
REMARK  status: ('A' for Active; 'I' for Inactive)
REMARK    1  A    between atoms: C_1  and  O_2
REMARK    2  A    between atoms: O_2  and  C_3
REMARK    3  A    between atoms: C_6  and  C_7
REMARK    4  A    between atoms: C_7  and  C_8
REMARK    5  A    between atoms: C_7  and  C_9
REMARK    6  A    between atoms: C_7  and  C_10
REMARK    7  A    between atoms: C_12  and  N_13
REMARK    8  A    between atoms: C_14  and  C_16
REMARK    9  A    between atoms: C_21  and  C_22
REMARK   10  A    between atoms: C_22  and  O_24
REMARK                            x       y       z     vdW  Elec       q    Type
REMARK                         _______ _______ _______ _____ _____    ______ ____
ROOT
ATOM      1  N   UNL     1       2.773   7.918  17.765  0.00  0.00    +0.000 N 
ATOM      2  C   UNL     1       1.948   8.635  18.625  0.00  0.00    +0.000 C 
ATOM      3  O   UNL     1       1.729   8.298  19.792  0.00  0.00    +0.000 OA
ATOM      4  H   UNL     1       3.222   8.396  16.991  0.00  0.00    +0.000 HD
ENDROOT
BRANCH   1  10
ATOM      5  C   UNL     1       4.559   6.222  17.661  0.00  0.00    +0.000 A 
ATOM      6  C   UNL     1       4.991   4.912  17.916  0.00  0.00    +0.000 A 
ATOM      7  C   UNL     1       4.166   3.996  18.572  0.00  0.00    +0.000 A 
ATOM      8  C   UNL     1       2.869   4.343  18.961  0.00  0.00    +0.000 A 
ATOM      9  C   UNL     1       2.426   5.635  18.629  0.00  0.00    +0.000 A 
ATOM     10  C   UNL     1       3.252   6.596  18.020  0.00  0.00    +0.000 A 
BRANCH   8  11
ATOM     11  C   UNL     1       1.994   3.356  19.751  0.00  0.00    +0.000 C 
ATOM     12  C   UNL     1       0.808   4.119  20.380  0.00  0.00    +0.000 C 
ATOM     13  C   UNL     1       1.399   2.225  18.883  0.00  0.00    +0.000 C 
ATOM     14  C   UNL     1       2.821   2.693  20.872  0.00  0.00    +0.000 C 
ENDBRANCH   8  11
BRANCH   5  16
ATOM     15  C   UNL     1       6.762   7.017  17.348  0.00  0.00    +0.000 C 
ATOM     16  O   UNL     1       5.364   7.180  17.088  0.00  0.00    +0.000 OA
ENDBRANCH   5  16
ENDBRANCH   1  10
BRANCH   2  17
ATOM     17  C   UNL     1       1.364   9.960  18.102  0.00  0.00    +0.000 C 
ATOM     18  C   UNL     1      -0.149   9.901  17.850  0.00  0.00    +0.000 C 
ATOM     19  C   UNL     1      -0.986  10.070  19.085  0.00  0.00    +0.000 C 
ATOM     20  C   UNL     1      -0.500  10.535  20.242  0.00  0.00    +0.000 C 
ATOM     21  C   UNL     1       0.916  10.987  20.419  0.00  0.00    +0.000 C 
ATOM     22  C   UNL     1       1.712  11.108  19.102  0.00  0.00    +0.000 C 
BRANCH  22  23
ATOM     23  C   UNL     1       1.537  12.479  18.465  0.00  0.00    +0.000 C 
ATOM     24  O   UNL     1       0.698  13.303  18.807  0.00  0.00    +0.000 OA
BRANCH  23  25
ATOM     25  O   UNL     1       2.342  12.701  17.402  0.00  0.00    +0.000 OA
ATOM     26  H   UNL     1       1.874  12.860  16.561  0.00  0.00    +0.000 HD
ENDBRANCH  23  25
ENDBRANCH  22  23
ENDBRANCH   2  17
TORSDOF 6
ENDMDL
MODEL 5
REMARK VINA RESULT:      -6.7      4.206      6.175
REMARK  Name = 
REMARK  10 active torsions:
REMARK  status: ('A' for Active; 'I' for Inactive)
REMARK    1  A    between atoms: C_1  and  O_2
REMARK    2  A    between atoms: O_2  and  C_3
REMARK    3  A    between atoms: C_6  and  C_7
REMARK    4  A    between atoms: C_7  and  C_8
REMARK    5  A    between atoms: C_7  and  C_9
REMARK    6  A    between atoms: C_7  and  C_10
REMARK    7  A    between atoms: C_12  and  N_13
REMARK    8  A    between atoms: C_14  and  C_16
REMARK    9  A    between atoms: C_21  and  C_22
REMARK   10  A    between atoms: C_22  and  O_24
REMARK                            x       y       z     vdW  Elec       q    Type
REMARK                         _______ _______ _______ _____ _____    ______ ____
ROOT
ATOM      1  N   UNL     1       2.539   6.763  19.755  0.00  0.00    +0.000 N 
ATOM      2  C   UNL     1       2.030   7.994  19.353  0.00  0.00    +0.000 C 
ATOM      3  O   UNL     1       1.654   8.227  18.200  0.00  0.00    +0.000 OA
ATOM      4  H   UNL     1       2.474   6.493  20.731  0.00  0.00    +0.000 HD
ENDROOT
BRANCH   1  10
ATOM      5  C   UNL     1       2.245   4.494  18.839  0.00  0.00    +0.000 A 
ATOM      6  C   UNL     1       2.666   3.488  17.957  0.00  0.00    +0.000 A 
ATOM      7  C   UNL     1       3.716   3.707  17.063  0.00  0.00    +0.000 A 
ATOM      8  C   UNL     1       4.407   4.923  17.045  0.00  0.00    +0.000 A 
ATOM      9  C   UNL     1       4.022   5.891  17.989  0.00  0.00    +0.000 A 
ATOM     10  C   UNL     1       2.933   5.720  18.862  0.00  0.00    +0.000 A 
BRANCH   8  11
ATOM     11  C   UNL     1       5.510   5.185  16.007  0.00  0.00    +0.000 C 
ATOM     12  C   UNL     1       5.320   6.597  15.410  0.00  0.00    +0.000 C 
ATOM     13  C   UNL     1       6.939   5.128  16.594  0.00  0.00    +0.000 C 
ATOM     14  C   UNL     1       5.433   4.142  14.875  0.00  0.00    +0.000 C 
ENDBRANCH   8  11
BRANCH   5  16
ATOM     15  C   UNL     1       0.943   3.014  20.143  0.00  0.00    +0.000 C 
ATOM     16  O   UNL     1       1.165   4.351  19.681  0.00  0.00    +0.000 OA
ENDBRANCH   5  16
ENDBRANCH   1  10
BRANCH   2  17
ATOM     17  C   UNL     1       1.851   9.072  20.436  0.00  0.00    +0.000 C 
ATOM     18  C   UNL     1       1.178  10.351  19.917  0.00  0.00    +0.000 C 
ATOM     19  C   UNL     1      -0.317  10.264  19.817  0.00  0.00    +0.000 C 
ATOM     20  C   UNL     1      -1.036   9.300  20.405  0.00  0.00    +0.000 C 
ATOM     21  C   UNL     1      -0.436   8.235  21.269  0.00  0.00    +0.000 C 
ATOM     22  C   UNL     1       1.045   8.474  21.632  0.00  0.00    +0.000 C 
BRANCH  22  23
ATOM     23  C   UNL     1       1.185   9.326  22.885  0.00  0.00    +0.000 C 
ATOM     24  O   UNL     1       0.270   9.948  23.409  0.00  0.00    +0.000 OA
BRANCH  23  25
ATOM     25  O   UNL     1       2.451   9.422  23.350  0.00  0.00    +0.000 OA
ATOM     26  H   UNL     1       2.543   9.906  24.191  0.00  0.00    +0.000 HD
ENDBRANCH  23  25
ENDBRANCH  22  23
ENDBRANCH   2  17
TORSDOF 6
ENDMDL
MODEL 6
REMARK VINA RESULT:      -6.6      4.535      6.701
REMARK  Name = 
REMARK  10 active torsions:
REMARK  status: ('A' for Active; 'I' for Inactive)
REMARK    1  A    between atoms: C_1  and  O_2
REMARK    2  A    between atoms: O_2  and  C_3
REMARK    3  A    between atoms: C_6  and  C_7
REMARK    4  A    between atoms: C_7  and  C_8
REMARK    5  A    between atoms: C_7  and  C_9
REMARK    6  A    between atoms: C_7  and  C_10
REMARK    7  A    between atoms: C_12  and  N_13
REMARK    8  A    between atoms: C_14  and  C_16
REMARK    9  A    between atoms: C_21  and  C_22
REMARK   10  A    between atoms: C_22  and  O_24
REMARK                            x       y       z     vdW  Elec       q    Type
REMARK                         _______ _______ _______ _____ _____    ______ ____
ROOT
ATOM      1  N   UNL     1       2.277   6.828  20.294  0.00  0.00    +0.000 N 
ATOM      2  C   UNL     1       1.884   8.100  19.893  0.00  0.00    +0.000 C 
ATOM      3  O   UNL     1       1.695   8.410  18.713  0.00  0.00    +0.000 OA
ATOM      4  H   UNL     1       2.055   6.511  21.232  0.00  0.00    +0.000 HD
ENDROOT
BRANCH   1  10
ATOM      5  C   UNL     1       2.154   4.544  19.374  0.00  0.00    +0.000 A 
ATOM      6  C   UNL     1       2.660   3.569  18.502  0.00  0.00    +0.000 A 
ATOM      7  C   UNL     1       3.710   3.859  17.629  0.00  0.00    +0.000 A 
ATOM      8  C   UNL     1       4.318   5.118  17.624  0.00  0.00    +0.000 A 
ATOM      9  C   UNL     1       3.850   6.058  18.558  0.00  0.00    +0.000 A 
ATOM     10  C   UNL     1       2.758   5.814  19.410  0.00  0.00    +0.000 A 
BRANCH   8  11
ATOM     11  C   UNL     1       5.422   5.454  16.608  0.00  0.00    +0.000 C 
ATOM     12  C   UNL     1       4.996   6.692  15.787  0.00  0.00    +0.000 C 
ATOM     13  C   UNL     1       6.783   5.787  17.260  0.00  0.00    +0.000 C 
ATOM     14  C   UNL     1       5.645   4.265  15.652  0.00  0.00    +0.000 C 
ENDBRANCH   8  11
BRANCH   5  16
ATOM     15  C   UNL     1       1.162   3.153  21.007  0.00  0.00    +0.000 C 
ATOM     16  O   UNL     1       1.070   4.328  20.196  0.00  0.00    +0.000 OA
ENDBRANCH   5  16
ENDBRANCH   1  10
BRANCH   2  17
ATOM     17  C   UNL     1       1.588   9.129  20.998  0.00  0.00    +0.000 C 
ATOM     18  C   UNL     1       1.535  10.576  20.485  0.00  0.00    +0.000 C 
ATOM     19  C   UNL     1       0.231  10.954  19.843  0.00  0.00    +0.000 C 
ATOM     20  C   UNL     1      -0.887  10.229  19.971  0.00  0.00    +0.000 C 
ATOM     21  C   UNL     1      -0.976   8.992  20.809  0.00  0.00    +0.000 C 
ATOM     22  C   UNL     1       0.252   8.750  21.713  0.00  0.00    +0.000 C 
BRANCH  22  23
ATOM     23  C   UNL     1       0.111   9.458  23.052  0.00  0.00    +0.000 C 
ATOM     24  O   UNL     1       1.024   9.621  23.852  0.00  0.00    +0.000 OA
BRANCH  23  25
ATOM     25  O   UNL     1      -1.154   9.833  23.349  0.00  0.00    +0.000 OA
ATOM     26  H   UNL     1      -1.770   9.828  22.593  0.00  0.00    +0.000 HD
ENDBRANCH  23  25
ENDBRANCH  22  23
ENDBRANCH   2  17
TORSDOF 6
ENDMDL
MODEL 7
REMARK VINA RESULT:      -6.6      3.858      6.839
REMARK  Name = 
REMARK  10 active torsions:
REMARK  status: ('A' for Active; 'I' for Inactive)
REMARK    1  A    between atoms: C_1  and  O_2
REMARK    2  A    between atoms: O_2  and  C_3
REMARK    3  A    between atoms: C_6  and  C_7
REMARK    4  A    between atoms: C_7  and  C_8
REMARK    5  A    between atoms: C_7  and  C_9
REMARK    6  A    between atoms: C_7  and  C_10
REMARK    7  A    between atoms: C_12  and  N_13
REMARK    8  A    between atoms: C_14  and  C_16
REMARK    9  A    between atoms: C_21  and  C_22
REMARK   10  A    between atoms: C_22  and  O_24
REMARK                            x       y       z     vdW  Elec       q    Type
REMARK                         _______ _______ _______ _____ _____    ______ ____
ROOT
ATOM      1  N   UNL     1       2.685   5.931  19.198  0.00  0.00    +0.000 N 
ATOM      2  C   UNL     1       2.129   5.220  20.257  0.00  0.00    +0.000 C 
ATOM      3  O   UNL     1       1.171   5.629  20.919  0.00  0.00    +0.000 OA
ATOM      4  H   UNL     1       3.179   5.431  18.467  0.00  0.00    +0.000 HD
ENDROOT
BRANCH   1  10
ATOM      5  C   UNL     1       2.947   7.924  17.772  0.00  0.00    +0.000 A 
ATOM      6  C   UNL     1       2.663   9.276  17.529  0.00  0.00    +0.000 A 
ATOM      7  C   UNL     1       1.808   9.995  18.367  0.00  0.00    +0.000 A 
ATOM      8  C   UNL     1       1.238   9.400  19.497  0.00  0.00    +0.000 A 
ATOM      9  C   UNL     1       1.594   8.068  19.768  0.00  0.00    +0.000 A 
ATOM     10  C   UNL     1       2.408   7.303  18.913  0.00  0.00    +0.000 A 
BRANCH   8  11
ATOM     11  C   UNL     1       0.237  10.173  20.371  0.00  0.00    +0.000 C 
ATOM     12  C   UNL     1      -0.188   9.286  21.563  0.00  0.00    +0.000 C 
ATOM     13  C   UNL     1       0.810  11.482  20.959  0.00  0.00    +0.000 C 
ATOM     14  C   UNL     1      -1.012  10.544  19.546  0.00  0.00    +0.000 C 
ENDBRANCH   8  11
BRANCH   5  16
ATOM     15  C   UNL     1       5.111   7.115  17.270  0.00  0.00    +0.000 C 
ATOM     16  O   UNL     1       3.721   7.156  16.931  0.00  0.00    +0.000 OA
ENDBRANCH   5  16
ENDBRANCH   1  10
BRANCH   2  17
ATOM     17  C   UNL     1       2.692   3.815  20.537  0.00  0.00    +0.000 C 
ATOM     18  C   UNL     1       1.638   2.829  21.058  0.00  0.00    +0.000 C 
ATOM     19  C   UNL     1       0.779   2.222  19.987  0.00  0.00    +0.000 C 
ATOM     20  C   UNL     1       1.082   2.279  18.685  0.00  0.00    +0.000 C 
ATOM     21  C   UNL     1       2.335   2.905  18.156  0.00  0.00    +0.000 C 
ATOM     22  C   UNL     1       3.371   3.263  19.243  0.00  0.00    +0.000 C 
BRANCH  22  23
ATOM     23  C   UNL     1       4.291   2.091  19.548  0.00  0.00    +0.000 C 
ATOM     24  O   UNL     1       5.065   2.042  20.496  0.00  0.00    +0.000 OA
BRANCH  23  25
ATOM     25  O   UNL     1       4.260   1.107  18.621  0.00  0.00    +0.000 OA
ATOM     26  H   UNL     1       3.506   1.150  18.004  0.00  0.00    +0.000 HD
ENDBRANCH  23  25
ENDBRANCH  22  23
ENDBRANCH   2  17
TORSDOF 6
ENDMDL
MODEL 8
REMARK VINA RESULT:      -6.5      4.647      6.821
REMARK  Name = 
REMARK  10 active torsions:
REMARK  status: ('A' for Active; 'I' for Inactive)
REMARK    1  A    between atoms: C_1  and  O_2
REMARK    2  A    between atoms: O_2  and  C_3
REMARK    3  A    between atoms: C_6  and  C_7
REMARK    4  A    between atoms: C_7  and  C_8
REMARK    5  A    between atoms: C_7  and  C_9
REMARK    6  A    between atoms: C_7  and  C_10
REMARK    7  A    between atoms: C_12  and  N_13
REMARK    8  A    between atoms: C_14  and  C_16
REMARK    9  A    between atoms: C_21  and  C_22
REMARK   10  A    between atoms: C_22  and  O_24
REMARK                            x       y       z     vdW  Elec       q    Type
REMARK                         _______ _______ _______ _____ _____    ______ ____
ROOT
ATOM      1  N   UNL     1       2.150   6.891  20.437  0.00  0.00    +0.000 N 
ATOM      2  C   UNL     1       1.810   8.169  20.005  0.00  0.00    +0.000 C 
ATOM      3  O   UNL     1       1.713   8.478  18.814  0.00  0.00    +0.000 OA
ATOM      4  H   UNL     1       1.854   6.581  21.357  0.00  0.00    +0.000 HD
ENDROOT
BRANCH   1  10
ATOM      5  C   UNL     1       2.153   4.562  19.631  0.00  0.00    +0.000 A 
ATOM      6  C   UNL     1       2.702   3.577  18.796  0.00  0.00    +0.000 A 
ATOM      7  C   UNL     1       3.716   3.887  17.887  0.00  0.00    +0.000 A 
ATOM      8  C   UNL     1       4.244   5.180  17.809  0.00  0.00    +0.000 A 
ATOM      9  C   UNL     1       3.736   6.134  18.707  0.00  0.00    +0.000 A 
ATOM     10  C   UNL     1       2.677   5.866  19.593  0.00  0.00    +0.000 A 
BRANCH   8  11
ATOM     11  C   UNL     1       5.306   5.533  16.755  0.00  0.00    +0.000 C 
ATOM     12  C   UNL     1       6.656   5.791  17.459  0.00  0.00    +0.000 C 
ATOM     13  C   UNL     1       5.541   4.413  15.715  0.00  0.00    +0.000 C 
ATOM     14  C   UNL     1       4.887   6.800  15.983  0.00  0.00    +0.000 C 
ENDBRANCH   8  11
BRANCH   5  16
ATOM     15  C   UNL     1       1.133   3.041  21.126  0.00  0.00    +0.000 C 
ATOM     16  O   UNL     1       1.099   4.320  20.485  0.00  0.00    +0.000 OA
ENDBRANCH   5  16
ENDBRANCH   1  10
BRANCH   2  17
ATOM     17  C   UNL     1       1.452   9.207  21.084  0.00  0.00    +0.000 C 
ATOM     18  C   UNL     1       1.541  10.657  20.588  0.00  0.00    +0.000 C 
ATOM     19  C   UNL     1       0.342  11.116  19.809  0.00  0.00    +0.000 C 
ATOM     20  C   UNL     1      -0.823  10.458  19.801  0.00  0.00    +0.000 C 
ATOM     21  C   UNL     1      -1.078   9.222  20.607  0.00  0.00    +0.000 C 
ATOM     22  C   UNL     1       0.024   8.902  21.640  0.00  0.00    +0.000 C 
BRANCH  22  23
ATOM     23  C   UNL     1      -0.225   9.608  22.964  0.00  0.00    +0.000 C 
ATOM     24  O   UNL     1      -1.216  10.281  23.218  0.00  0.00    +0.000 OA
BRANCH  23  25
ATOM     25  O   UNL     1       0.797   9.510  23.844  0.00  0.00    +0.000 OA
ATOM     26  H   UNL     1       1.476   8.849  23.611  0.00  0.00    +0.000 HD
ENDBRANCH  23  25
ENDBRANCH  22  23
ENDBRANCH   2  17
TORSDOF 6
ENDMDL
MODEL 9
REMARK VINA RESULT:      -6.5      3.871      6.911
REMARK  Name = 
REMARK  10 active torsions:
REMARK  status: ('A' for Active; 'I' for Inactive)
REMARK    1  A    between atoms: C_1  and  O_2
REMARK    2  A    between atoms: O_2  and  C_3
REMARK    3  A    between atoms: C_6  and  C_7
REMARK    4  A    between atoms: C_7  and  C_8
REMARK    5  A    between atoms: C_7  and  C_9
REMARK    6  A    between atoms: C_7  and  C_10
REMARK    7  A    between atoms: C_12  and  N_13
REMARK    8  A    between atoms: C_14  and  C_16
REMARK    9  A    between atoms: C_21  and  C_22
REMARK   10  A    between atoms: C_22  and  O_24
REMARK                            x       y       z     vdW  Elec       q    Type
REMARK                         _______ _______ _______ _____ _____    ______ ____
ROOT
ATOM      1  N   UNL     1       2.243   5.822  19.775  0.00  0.00    +0.000 N 
ATOM      2  C   UNL     1       3.469   5.178  19.906  0.00  0.00    +0.000 C 
ATOM      3  O   UNL     1       4.551   5.770  19.875  0.00  0.00    +0.000 OA
ATOM      4  H   UNL     1       1.412   5.398  20.175  0.00  0.00    +0.000 HD
ENDROOT
BRANCH   1  10
ATOM      5  C   UNL     1       2.580   7.586  18.087  0.00  0.00    +0.000 A 
ATOM      6  C   UNL     1       2.414   8.921  17.691  0.00  0.00    +0.000 A 
ATOM      7  C   UNL     1       1.710   9.826  18.488  0.00  0.00    +0.000 A 
ATOM      8  C   UNL     1       1.182   9.440  19.725  0.00  0.00    +0.000 A 
ATOM      9  C   UNL     1       1.426   8.120  20.139  0.00  0.00    +0.000 A 
ATOM     10  C   UNL     1       2.081   7.171  19.334  0.00  0.00    +0.000 A 
BRANCH   8  11
ATOM     11  C   UNL     1       0.343  10.419  20.561  0.00  0.00    +0.000 C 
ATOM     12  C   UNL     1      -0.983  10.711  19.823  0.00  0.00    +0.000 C 
ATOM     13  C   UNL     1      -0.025   9.879  21.961  0.00  0.00    +0.000 C 
ATOM     14  C   UNL     1       1.111  11.741  20.763  0.00  0.00    +0.000 C 
ENDBRANCH   8  11
BRANCH   5  16
ATOM     15  C   UNL     1       4.496   7.014  16.826  0.00  0.00    +0.000 C 
ATOM     16  O   UNL     1       3.198   6.641  17.299  0.00  0.00    +0.000 OA
ENDBRANCH   5  16
ENDBRANCH   1  10
BRANCH   2  17
ATOM     17  C   UNL     1       3.446   3.667  20.195  0.00  0.00    +0.000 C 
ATOM     18  C   UNL     1       2.030   3.075  20.230  0.00  0.00    +0.000 C 
ATOM     19  C   UNL     1       1.451   2.781  18.876  0.00  0.00    +0.000 C 
ATOM     20  C   UNL     1       2.186   2.737  17.759  0.00  0.00    +0.000 C 
ATOM     21  C   UNL     1       3.671   2.923  17.741  0.00  0.00    +0.000 C 
ATOM     22  C   UNL     1       4.326   2.925  19.139  0.00  0.00    +0.000 C 
BRANCH  22  23
ATOM     23  C   UNL     1       4.682   1.518  19.594  0.00  0.00    +0.000 C 
ATOM     24  O   UNL     1       5.261   1.250  20.639  0.00  0.00    +0.000 OA
BRANCH  23  25
ATOM     25  O   UNL     1       4.382   0.553  18.695  0.00  0.00    +0.000 OA
ATOM     26  H   UNL     1       4.407   0.841  17.763  0.00  0.00    +0.000 HD
ENDBRANCH  23  25
ENDBRANCH  22  23
ENDBRANCH   2  17
TORSDOF 6
ENDMDL
