MODEL 1
REMARK VINA RESULT:      -8.2      0.000      0.000
REMARK  Name = 
REMARK  10 active torsions:
REMARK  status: ('A' for Active; 'I' for Inactive)
REMARK    1  A    between atoms: C_1  and  C_2
REMARK    2  A    between atoms: C_2  and  C_3
REMARK    3  A    between atoms: C_2  and  C_4
REMARK    4  A    between atoms: C_4  and  C_5
REMARK    5  A    between atoms: C_8  and  C_9
REMARK    6  A    between atoms: C_9  and  N_10
REMARK    7  A    between atoms: N_13  and  C_14
REMARK    8  A    between atoms: C_14  and  C_15
REMARK    9  A    between atoms: C_15  and  O_16
REMARK   10  A    between atoms: O_16  and  C_17
REMARK                            x       y       z     vdW  Elec       q    Type
REMARK                         _______ _______ _______ _____ _____    ______ ____
ROOT
ATOM      1  N   UNL     1       5.039   4.877  17.303  0.00  0.00    +0.000 NA
ATOM      2  C   UNL     1       4.849   6.262  17.751  0.00  0.00    +0.000 C 
ATOM      3  C   UNL     1       3.335   6.574  17.797  0.00  0.00    +0.000 C 
ATOM      4  N   UNL     1       2.534   5.651  18.638  0.00  0.00    +0.000 NA
ATOM      5  C   UNL     1       2.875   4.258  18.266  0.00  0.00    +0.000 C 
ATOM      6  C   UNL     1       4.394   3.951  18.242  0.00  0.00    +0.000 C 
ENDROOT
BRANCH   1   7
ATOM      7  C   UNL     1       6.400   4.522  16.899  0.00  0.00    +0.000 C 
BRANCH   7  11
ATOM      8  C   UNL     1       6.902   4.368  13.386  0.00  0.00    +0.000 A 
ATOM      9  N   UNL     1       7.779   5.339  13.672  0.00  0.00    +0.000 NA
ATOM     10  O   UNL     1       7.649   5.480  15.054  0.00  0.00    +0.000 OA
ATOM     11  C   UNL     1       6.702   4.575  15.447  0.00  0.00    +0.000 A 
ATOM     12  N   UNL     1       6.201   3.877  14.454  0.00  0.00    +0.000 NA
BRANCH   8  13
ATOM     13  C   UNL     1       6.780   3.764  12.037  0.00  0.00    +0.000 C 
BRANCH  13  15
ATOM     14  C   UNL     1       4.385   3.195  11.372  0.00  0.00    +0.000 C 
ATOM     15  C   UNL     1       5.695   2.673  11.974  0.00  0.00    +0.000 C 
ATOM     16  C   UNL     1       6.198   1.481  11.162  0.00  0.00    +0.000 C 
ENDBRANCH  13  15
ENDBRANCH   8  13
ENDBRANCH   7  11
ENDBRANCH   1   7
BRANCH   4  17
ATOM     17  C   UNL     1       2.719   5.868  20.086  0.00  0.00    +0.000 C 
BRANCH  17  18
ATOM     18  C   UNL     1       1.632   6.770  20.686  0.00  0.00    +0.000 C 
BRANCH  18  19
ATOM     19  O   UNL     1       1.710   8.082  20.113  0.00  0.00    +0.000 OA
BRANCH  19  20
ATOM     20  C   UNL     1       0.922   8.997  20.754  0.00  0.00    +0.000 A 
ATOM     21  C   UNL     1       0.291  10.078  20.126  0.00  0.00    +0.000 A 
ATOM     22  C   UNL     1      -0.502  10.961  20.863  0.00  0.00    +0.000 A 
ATOM     23  C   UNL     1      -0.680  10.752  22.228  0.00  0.00    +0.000 A 
ATOM     24 CL   UNL     1      -1.654  11.848  23.135  0.00  0.00    +0.000 Cl
ATOM     25  C   UNL     1      -0.080   9.666  22.859  0.00  0.00    +0.000 A 
ATOM     26  C   UNL     1       0.714   8.783  22.123  0.00  0.00    +0.000 A 
ENDBRANCH  19  20
ENDBRANCH  18  19
ENDBRANCH  17  18
ENDBRANCH   4  17
TORSDOF 8
ENDMDL
MODEL 2
REMARK VINA RESULT:      -8.0      1.373      1.710
REMARK  Name = 
REMARK  10 active torsions:
REMARK  status: ('A' for Active; 'I' for Inactive)
REMARK    1  A    between atoms: C_1  and  C_2
REMARK    2  A    between atoms: C_2  and  C_3
REMARK    3  A    between atoms: C_2  and  C_4
REMARK    4  A    between atoms: C_4  and  C_5
REMARK    5  A    between atoms: C_8  and  C_9
REMARK    6  A    between atoms: C_9  and  N_10
REMARK    7  A    between atoms: N_13  and  C_14
REMARK    8  A    between atoms: C_14  and  C_15
REMARK    9  A    between atoms: C_15  and  O_16
REMARK   10  A    between atoms: O_16  and  C_17
REMARK                            x       y       z     vdW  Elec       q    Type
REMARK                         _______ _______ _______ _____ _____    ______ ____
ROOT
ATOM      1  N   UNL     1       5.132   4.228  17.511  0.00  0.00    +0.000 NA
ATOM      2  C   UNL     1       4.290   5.421  17.665  0.00  0.00    +0.000 C 
ATOM      3  C   UNL     1       2.810   4.984  17.767  0.00  0.00    +0.000 C 
ATOM      4  N   UNL     1       2.520   4.010  18.848  0.00  0.00    +0.000 NA
ATOM      5  C   UNL     1       3.497   2.899  18.756  0.00  0.00    +0.000 C 
ATOM      6  C   UNL     1       4.978   3.348  18.675  0.00  0.00    +0.000 C 
ENDROOT
BRANCH   1   7
ATOM      7  C   UNL     1       6.509   4.476  17.083  0.00  0.00    +0.000 C 
BRANCH   7  11
ATOM      8  C   UNL     1       6.875   4.451  13.549  0.00  0.00    +0.000 A 
ATOM      9  N   UNL     1       7.684   5.482  13.828  0.00  0.00    +0.000 NA
ATOM     10  O   UNL     1       7.601   5.577  15.218  0.00  0.00    +0.000 OA
ATOM     11  C   UNL     1       6.746   4.590  15.622  0.00  0.00    +0.000 A 
ATOM     12  N   UNL     1       6.260   3.879  14.630  0.00  0.00    +0.000 NA
BRANCH   8  13
ATOM     13  C   UNL     1       6.745   3.873  12.189  0.00  0.00    +0.000 C 
BRANCH  13  15
ATOM     14  C   UNL     1       4.359   3.357  11.453  0.00  0.00    +0.000 C 
ATOM     15  C   UNL     1       5.635   2.810  12.104  0.00  0.00    +0.000 C 
ATOM     16  C   UNL     1       6.134   1.595  11.322  0.00  0.00    +0.000 C 
ENDBRANCH  13  15
ENDBRANCH   8  13
ENDBRANCH   7  11
ENDBRANCH   1   7
BRANCH   4  17
ATOM     17  C   UNL     1       2.533   4.611  20.197  0.00  0.00    +0.000 C 
BRANCH  17  18
ATOM     18  C   UNL     1       1.439   5.671  20.376  0.00  0.00    +0.000 C 
BRANCH  18  19
ATOM     19  O   UNL     1       1.984   6.838  21.003  0.00  0.00    +0.000 OA
BRANCH  19  20
ATOM     20  C   UNL     1       1.603   8.003  20.395  0.00  0.00    +0.000 A 
ATOM     21  C   UNL     1       1.838   8.308  19.049  0.00  0.00    +0.000 A 
ATOM     22  C   UNL     1       1.407   9.524  18.513  0.00  0.00    +0.000 A 
ATOM     23  C   UNL     1       0.723  10.428  19.319  0.00  0.00    +0.000 A 
ATOM     24 CL   UNL     1       0.199  11.931  18.655  0.00  0.00    +0.000 Cl
ATOM     25  C   UNL     1       0.460  10.127  20.652  0.00  0.00    +0.000 A 
ATOM     26  C   UNL     1       0.891   8.911  21.190  0.00  0.00    +0.000 A 
ENDBRANCH  19  20
ENDBRANCH  18  19
ENDBRANCH  17  18
ENDBRANCH   4  17
TORSDOF 8
ENDMDL
MODEL 3
REMARK VINA RESULT:      -8.0      0.719      1.198
REMARK  Name = 
REMARK  10 active torsions:
REMARK  status: ('A' for Active; 'I' for Inactive)
REMARK    1  A    between atoms: C_1  and  C_2
REMARK    2  A    between atoms: C_2  and  C_3
REMARK    3  A    between atoms: C_2  and  C_4
REMARK    4  A    between atoms: C_4  and  C_5
REMARK    5  A    between atoms: C_8  and  C_9
REMARK    6  A    between atoms: C_9  and  N_10
REMARK    7  A    between atoms: N_13  and  C_14
REMARK    8  A    between atoms: C_14  and  C_15
REMARK    9  A    between atoms: C_15  and  O_16
REMARK   10  A    between atoms: O_16  and  C_17
REMARK                            x       y       z     vdW  Elec       q    Type
REMARK                         _______ _______ _______ _____ _____    ______ ____
ROOT
ATOM      1  N   UNL     1       4.663   5.242  17.282  0.00  0.00    +0.000 NA
ATOM      2  C   UNL     1       4.689   6.611  17.813  0.00  0.00    +0.000 C 
ATOM      3  C   UNL     1       3.268   7.212  17.728  0.00  0.00    +0.000 C 
ATOM      4  N   UNL     1       2.214   6.420  18.408  0.00  0.00    +0.000 NA
ATOM      5  C   UNL     1       2.325   5.010  17.967  0.00  0.00    +0.000 C 
ATOM      6  C   UNL     1       3.750   4.411  18.075  0.00  0.00    +0.000 C 
ENDROOT
BRANCH   1   7
ATOM      7  C   UNL     1       5.970   4.650  16.993  0.00  0.00    +0.000 C 
BRANCH   7  11
ATOM      8  C   UNL     1       6.778   4.362  13.546  0.00  0.00    +0.000 A 
ATOM      9  N   UNL     1       7.668   5.304  13.884  0.00  0.00    +0.000 NA
ATOM     10  O   UNL     1       7.421   5.494  15.244  0.00  0.00    +0.000 OA
ATOM     11  C   UNL     1       6.403   4.643  15.574  0.00  0.00    +0.000 A 
ATOM     12  N   UNL     1       5.962   3.936  14.559  0.00  0.00    +0.000 NA
BRANCH   8  13
ATOM     13  C   UNL     1       6.750   3.721  12.209  0.00  0.00    +0.000 C 
BRANCH  13  15
ATOM     14  C   UNL     1       4.385   3.489  11.285  0.00  0.00    +0.000 C 
ATOM     15  C   UNL     1       5.535   2.794  12.024  0.00  0.00    +0.000 C 
ATOM     16  C   UNL     1       5.949   1.534  11.265  0.00  0.00    +0.000 C 
ENDBRANCH  13  15
ENDBRANCH   8  13
ENDBRANCH   7  11
ENDBRANCH   1   7
BRANCH   4  17
ATOM     17  C   UNL     1       2.268   6.515  19.880  0.00  0.00    +0.000 C 
BRANCH  17  18
ATOM     18  C   UNL     1       1.898   7.914  20.390  0.00  0.00    +0.000 C 
BRANCH  18  19
ATOM     19  O   UNL     1       0.938   7.813  21.450  0.00  0.00    +0.000 OA
BRANCH  19  20
ATOM     20  C   UNL     1       0.244   8.973  21.660  0.00  0.00    +0.000 A 
ATOM     21  C   UNL     1      -0.224   9.402  22.908  0.00  0.00    +0.000 A 
ATOM     22  C   UNL     1      -0.921  10.607  23.027  0.00  0.00    +0.000 A 
ATOM     23  C   UNL     1      -1.133  11.394  21.900  0.00  0.00    +0.000 A 
ATOM     24 CL   UNL     1      -1.999  12.877  22.050  0.00  0.00    +0.000 Cl
ATOM     25  C   UNL     1      -0.650  10.993  20.658  0.00  0.00    +0.000 A 
ATOM     26  C   UNL     1       0.046   9.787  20.537  0.00  0.00    +0.000 A 
ENDBRANCH  19  20
ENDBRANCH  18  19
ENDBRANCH  17  18
ENDBRANCH   4  17
TORSDOF 8
ENDMDL
MODEL 4
REMARK VINA RESULT:      -7.7      0.797      1.417
REMARK  Name = 
REMARK  10 active torsions:
REMARK  status: ('A' for Active; 'I' for Inactive)
REMARK    1  A    between atoms: C_1  and  C_2
REMARK    2  A    between atoms: C_2  and  C_3
REMARK    3  A    between atoms: C_2  and  C_4
REMARK    4  A    between atoms: C_4  and  C_5
REMARK    5  A    between atoms: C_8  and  C_9
REMARK    6  A    between atoms: C_9  and  N_10
REMARK    7  A    between atoms: N_13  and  C_14
REMARK    8  A    between atoms: C_14  and  C_15
REMARK    9  A    between atoms: C_15  and  O_16
REMARK   10  A    between atoms: O_16  and  C_17
REMARK                            x       y       z     vdW  Elec       q    Type
REMARK                         _______ _______ _______ _____ _____    ______ ____
ROOT
ATOM      1  N   UNL     1       5.104   4.469  17.878  0.00  0.00    +0.000 NA
ATOM      2  C   UNL     1       4.044   4.789  16.914  0.00  0.00    +0.000 C 
ATOM      3  C   UNL     1       2.704   4.945  17.671  0.00  0.00    +0.000 C 
ATOM      4  N   UNL     1       2.719   5.946  18.765  0.00  0.00    +0.000 NA
ATOM      5  C   UNL     1       3.897   5.687  19.626  0.00  0.00    +0.000 C 
ATOM      6  C   UNL     1       5.238   5.553  18.859  0.00  0.00    +0.000 C 
ENDROOT
BRANCH   1   7
ATOM      7  C   UNL     1       6.356   3.978  17.303  0.00  0.00    +0.000 C 
BRANCH   7  11
ATOM      8  C   UNL     1       6.751   4.408  13.798  0.00  0.00    +0.000 A 
ATOM      9  N   UNL     1       7.514   5.426  14.214  0.00  0.00    +0.000 NA
ATOM     10  O   UNL     1       7.417   5.344  15.603  0.00  0.00    +0.000 OA
ATOM     11  C   UNL     1       6.600   4.282  15.870  0.00  0.00    +0.000 A 
ATOM     12  N   UNL     1       6.151   3.682  14.792  0.00  0.00    +0.000 NA
BRANCH   8  13
ATOM     13  C   UNL     1       6.655   3.999  12.376  0.00  0.00    +0.000 C 
BRANCH  13  15
ATOM     14  C   UNL     1       4.358   3.336  11.489  0.00  0.00    +0.000 C 
ATOM     15  C   UNL     1       5.650   2.852  12.158  0.00  0.00    +0.000 C 
ATOM     16  C   UNL     1       6.289   1.752  11.312  0.00  0.00    +0.000 C 
ENDBRANCH  13  15
ENDBRANCH   8  13
ENDBRANCH   7  11
ENDBRANCH   1   7
BRANCH   4  17
ATOM     17  C   UNL     1       2.716   7.341  18.284  0.00  0.00    +0.000 C 
BRANCH  17  18
ATOM     18  C   UNL     1       1.656   8.200  18.984  0.00  0.00    +0.000 C 
BRANCH  18  19
ATOM     19  O   UNL     1       1.830   8.134  20.405  0.00  0.00    +0.000 OA
BRANCH  19  20
ATOM     20  C   UNL     1       0.996   8.975  21.090  0.00  0.00    +0.000 A 
ATOM     21  C   UNL     1       0.666   8.836  22.443  0.00  0.00    +0.000 A 
ATOM     22  C   UNL     1      -0.192   9.750  23.060  0.00  0.00    +0.000 A 
ATOM     23  C   UNL     1      -0.706  10.815  22.327  0.00  0.00    +0.000 A 
ATOM     24 CL   UNL     1      -1.770  11.937  23.091  0.00  0.00    +0.000 Cl
ATOM     25  C   UNL     1      -0.364  10.980  20.988  0.00  0.00    +0.000 A 
ATOM     26  C   UNL     1       0.493  10.067  20.370  0.00  0.00    +0.000 A 
ENDBRANCH  19  20
ENDBRANCH  18  19
ENDBRANCH  17  18
ENDBRANCH   4  17
TORSDOF 8
ENDMDL
MODEL 5
REMARK VINA RESULT:      -7.2      1.810      2.285
REMARK  Name = 
REMARK  10 active torsions:
REMARK  status: ('A' for Active; 'I' for Inactive)
REMARK    1  A    between atoms: C_1  and  C_2
REMARK    2  A    between atoms: C_2  and  C_3
REMARK    3  A    between atoms: C_2  and  C_4
REMARK    4  A    between atoms: C_4  and  C_5
REMARK    5  A    between atoms: C_8  and  C_9
REMARK    6  A    between atoms: C_9  and  N_10
REMARK    7  A    between atoms: N_13  and  C_14
REMARK    8  A    between atoms: C_14  and  C_15
REMARK    9  A    between atoms: C_15  and  O_16
REMARK   10  A    between atoms: O_16  and  C_17
REMARK                            x       y       z     vdW  Elec       q    Type
REMARK                         _______ _______ _______ _____ _____    ______ ____
ROOT
ATOM      1  N   UNL     1       5.454   4.553  17.707  0.00  0.00    +0.000 NA
ATOM      2  C   UNL     1       4.285   4.481  16.822  0.00  0.00    +0.000 C 
ATOM      3  C   UNL     1       3.000   4.538  17.678  0.00  0.00    +0.000 C 
ATOM      4  N   UNL     1       2.895   5.721  18.568  0.00  0.00    +0.000 NA
ATOM      5  C   UNL     1       4.160   5.853  19.328  0.00  0.00    +0.000 C 
ATOM      6  C   UNL     1       5.442   5.815  18.457  0.00  0.00    +0.000 C 
ENDROOT
BRANCH   1   7
ATOM      7  C   UNL     1       6.734   4.192  17.097  0.00  0.00    +0.000 C 
BRANCH   7  11
ATOM      8  C   UNL     1       6.849   4.437  13.554  0.00  0.00    +0.000 A 
ATOM      9  N   UNL     1       7.675   5.448  13.854  0.00  0.00    +0.000 NA
ATOM     10  O   UNL     1       7.691   5.438  15.249  0.00  0.00    +0.000 OA
ATOM     11  C   UNL     1       6.867   4.417  15.636  0.00  0.00    +0.000 A 
ATOM     12  N   UNL     1       6.313   3.781  14.629  0.00  0.00    +0.000 NA
BRANCH   8  13
ATOM     13  C   UNL     1       6.624   3.964  12.168  0.00  0.00    +0.000 C 
BRANCH  13  15
ATOM     14  C   UNL     1       4.274   3.348  11.392  0.00  0.00    +0.000 C 
ATOM     15  C   UNL     1       5.551   2.862  12.087  0.00  0.00    +0.000 C 
ATOM     16  C   UNL     1       6.107   1.643  11.352  0.00  0.00    +0.000 C 
ENDBRANCH  13  15
ENDBRANCH   8  13
ENDBRANCH   7  11
ENDBRANCH   1   7
BRANCH   4  17
ATOM     17  C   UNL     1       2.582   6.970  17.847  0.00  0.00    +0.000 C 
BRANCH  17  18
ATOM     18  C   UNL     1       2.178   8.107  18.794  0.00  0.00    +0.000 C 
BRANCH  18  19
ATOM     19  O   UNL     1       1.189   8.937  18.171  0.00  0.00    +0.000 OA
BRANCH  19  20
ATOM     20  C   UNL     1       1.275  10.250  18.546  0.00  0.00    +0.000 A 
ATOM     21  C   UNL     1       2.213  11.158  18.041  0.00  0.00    +0.000 A 
ATOM     22  C   UNL     1       2.222  12.485  18.480  0.00  0.00    +0.000 A 
ATOM     23  C   UNL     1       1.279  12.908  19.411  0.00  0.00    +0.000 A 
ATOM     24 CL   UNL     1       1.297  14.544  19.955  0.00  0.00    +0.000 Cl
ATOM     25  C   UNL     1       0.324  12.022  19.901  0.00  0.00    +0.000 A 
ATOM     26  C   UNL     1       0.314  10.695  19.463  0.00  0.00    +0.000 A 
ENDBRANCH  19  20
ENDBRANCH  18  19
ENDBRANCH  17  18
ENDBRANCH   4  17
TORSDOF 8
ENDMDL
MODEL 6
REMARK VINA RESULT:      -7.0      1.604      2.007
REMARK  Name = 
REMARK  10 active torsions:
REMARK  status: ('A' for Active; 'I' for Inactive)
REMARK    1  A    between atoms: C_1  and  C_2
REMARK    2  A    between atoms: C_2  and  C_3
REMARK    3  A    between atoms: C_2  and  C_4
REMARK    4  A    between atoms: C_4  and  C_5
REMARK    5  A    between atoms: C_8  and  C_9
REMARK    6  A    between atoms: C_9  and  N_10
REMARK    7  A    between atoms: N_13  and  C_14
REMARK    8  A    between atoms: C_14  and  C_15
REMARK    9  A    between atoms: C_15  and  O_16
REMARK   10  A    between atoms: O_16  and  C_17
REMARK                            x       y       z     vdW  Elec       q    Type
REMARK                         _______ _______ _______ _____ _____    ______ ____
ROOT
ATOM      1  N   UNL     1       5.075   4.617  17.777  0.00  0.00    +0.000 NA
ATOM      2  C   UNL     1       4.023   4.999  16.827  0.00  0.00    +0.000 C 
ATOM      3  C   UNL     1       2.723   5.300  17.609  0.00  0.00    +0.000 C 
ATOM      4  N   UNL     1       2.857   6.332  18.666  0.00  0.00    +0.000 NA
ATOM      5  C   UNL     1       4.030   5.997  19.507  0.00  0.00    +0.000 C 
ATOM      6  C   UNL     1       5.332   5.716  18.714  0.00  0.00    +0.000 C 
ENDROOT
BRANCH   1   7
ATOM      7  C   UNL     1       6.263   3.995  17.190  0.00  0.00    +0.000 C 
BRANCH   7  11
ATOM      8  C   UNL     1       6.705   4.358  13.684  0.00  0.00    +0.000 A 
ATOM      9  N   UNL     1       7.452   5.393  14.090  0.00  0.00    +0.000 NA
ATOM     10  O   UNL     1       7.335   5.338  15.479  0.00  0.00    +0.000 OA
ATOM     11  C   UNL     1       6.525   4.272  15.756  0.00  0.00    +0.000 A 
ATOM     12  N   UNL     1       6.098   3.646  14.683  0.00  0.00    +0.000 NA
BRANCH   8  13
ATOM     13  C   UNL     1       6.635   3.920  12.269  0.00  0.00    +0.000 C 
BRANCH  13  15
ATOM     14  C   UNL     1       4.395   3.233  11.263  0.00  0.00    +0.000 C 
ATOM     15  C   UNL     1       5.626   2.777  12.054  0.00  0.00    +0.000 C 
ATOM     16  C   UNL     1       6.302   1.612  11.332  0.00  0.00    +0.000 C 
ENDBRANCH  13  15
ENDBRANCH   8  13
ENDBRANCH   7  11
ENDBRANCH   1   7
BRANCH   4  17
ATOM     17  C   UNL     1       2.966   7.705  18.134  0.00  0.00    +0.000 C 
BRANCH  17  18
ATOM     18  C   UNL     1       1.597   8.366  17.932  0.00  0.00    +0.000 C 
BRANCH  18  19
ATOM     19  O   UNL     1       1.730   9.792  17.964  0.00  0.00    +0.000 OA
BRANCH  19  20
ATOM     20  C   UNL     1       0.742  10.409  18.681  0.00  0.00    +0.000 A 
ATOM     21  C   UNL     1       0.954  11.136  19.859  0.00  0.00    +0.000 A 
ATOM     22  C   UNL     1      -0.119  11.737  20.522  0.00  0.00    +0.000 A 
ATOM     23  C   UNL     1      -1.402  11.628  19.996  0.00  0.00    +0.000 A 
ATOM     24 CL   UNL     1      -2.724  12.367  20.821  0.00  0.00    +0.000 Cl
ATOM     25  C   UNL     1      -1.623  10.932  18.812  0.00  0.00    +0.000 A 
ATOM     26  C   UNL     1      -0.551  10.329  18.148  0.00  0.00    +0.000 A 
ENDBRANCH  19  20
ENDBRANCH  18  19
ENDBRANCH  17  18
ENDBRANCH   4  17
TORSDOF 8
ENDMDL
MODEL 7
REMARK VINA RESULT:      -6.7      3.135      4.403
REMARK  Name = 
REMARK  10 active torsions:
REMARK  status: ('A' for Active; 'I' for Inactive)
REMARK    1  A    between atoms: C_1  and  C_2
REMARK    2  A    between atoms: C_2  and  C_3
REMARK    3  A    between atoms: C_2  and  C_4
REMARK    4  A    between atoms: C_4  and  C_5
REMARK    5  A    between atoms: C_8  and  C_9
REMARK    6  A    between atoms: C_9  and  N_10
REMARK    7  A    between atoms: N_13  and  C_14
REMARK    8  A    between atoms: C_14  and  C_15
REMARK    9  A    between atoms: C_15  and  O_16
REMARK   10  A    between atoms: O_16  and  C_17
REMARK                            x       y       z     vdW  Elec       q    Type
REMARK                         _______ _______ _______ _____ _____    ______ ____
ROOT
ATOM      1  N   UNL     1       3.364   2.481  18.402  0.00  0.00    +0.000 NA
ATOM      2  C   UNL     1       2.053   2.866  17.866  0.00  0.00    +0.000 C 
ATOM      3  C   UNL     1       0.954   2.440  18.867  0.00  0.00    +0.000 C 
ATOM      4  N   UNL     1       1.122   2.974  20.241  0.00  0.00    +0.000 NA
ATOM      5  C   UNL     1       2.511   2.708  20.684  0.00  0.00    +0.000 C 
ATOM      6  C   UNL     1       3.604   3.157  19.682  0.00  0.00    +0.000 C 
ENDROOT
BRANCH   1   7
ATOM      7  C   UNL     1       4.474   2.519  17.448  0.00  0.00    +0.000 C 
BRANCH   7  11
ATOM      8  C   UNL     1       5.703   5.803  16.880  0.00  0.00    +0.000 A 
ATOM      9  N   UNL     1       5.504   5.439  15.607  0.00  0.00    +0.000 NA
ATOM     10  O   UNL     1       5.018   4.137  15.726  0.00  0.00    +0.000 OA
ATOM     11  C   UNL     1       4.981   3.860  17.064  0.00  0.00    +0.000 A 
ATOM     12  N   UNL     1       5.408   4.848  17.815  0.00  0.00    +0.000 NA
BRANCH   8  13
ATOM     13  C   UNL     1       6.090   7.179  17.274  0.00  0.00    +0.000 C 
BRANCH  13  15
ATOM     14  C   UNL     1       8.016   8.770  17.787  0.00  0.00    +0.000 C 
ATOM     15  C   UNL     1       7.602   7.316  17.535  0.00  0.00    +0.000 C 
ATOM     16  C   UNL     1       8.007   6.449  18.727  0.00  0.00    +0.000 C 
ENDBRANCH  13  15
ENDBRANCH   8  13
ENDBRANCH   7  11
ENDBRANCH   1   7
BRANCH   4  17
ATOM     17  C   UNL     1       0.800   4.410  20.355  0.00  0.00    +0.000 C 
BRANCH  17  18
ATOM     18  C   UNL     1       2.010   5.248  20.789  0.00  0.00    +0.000 C 
BRANCH  18  19
ATOM     19  O   UNL     1       2.621   5.858  19.645  0.00  0.00    +0.000 OA
BRANCH  19  20
ATOM     20  C   UNL     1       2.177   7.131  19.412  0.00  0.00    +0.000 A 
ATOM     21  C   UNL     1       2.268   7.789  18.179  0.00  0.00    +0.000 A 
ATOM     22  C   UNL     1       1.782   9.090  18.034  0.00  0.00    +0.000 A 
ATOM     23  C   UNL     1       1.187   9.728  19.118  0.00  0.00    +0.000 A 
ATOM     24 CL   UNL     1       0.594  11.337  18.936  0.00  0.00    +0.000 Cl
ATOM     25  C   UNL     1       1.066   9.076  20.342  0.00  0.00    +0.000 A 
ATOM     26  C   UNL     1       1.552   7.774  20.488  0.00  0.00    +0.000 A 
ENDBRANCH  19  20
ENDBRANCH  18  19
ENDBRANCH  17  18
ENDBRANCH   4  17
TORSDOF 8
ENDMDL
MODEL 8
REMARK VINA RESULT:      -6.7      5.167      7.870
REMARK  Name = 
REMARK  10 active torsions:
REMARK  status: ('A' for Active; 'I' for Inactive)
REMARK    1  A    between atoms: C_1  and  C_2
REMARK    2  A    between atoms: C_2  and  C_3
REMARK    3  A    between atoms: C_2  and  C_4
REMARK    4  A    between atoms: C_4  and  C_5
REMARK    5  A    between atoms: C_8  and  C_9
REMARK    6  A    between atoms: C_9  and  N_10
REMARK    7  A    between atoms: N_13  and  C_14
REMARK    8  A    between atoms: C_14  and  C_15
REMARK    9  A    between atoms: C_15  and  O_16
REMARK   10  A    between atoms: O_16  and  C_17
REMARK                            x       y       z     vdW  Elec       q    Type
REMARK                         _______ _______ _______ _____ _____    ______ ____
ROOT
ATOM      1  N   UNL     1       5.701   4.716  16.923  0.00  0.00    +0.000 NA
ATOM      2  C   UNL     1       7.149   4.796  16.694  0.00  0.00    +0.000 C 
ATOM      3  C   UNL     1       7.480   6.147  16.020  0.00  0.00    +0.000 C 
ATOM      4  N   UNL     1       7.012   7.344  16.760  0.00  0.00    +0.000 NA
ATOM      5  C   UNL     1       5.586   7.153  17.114  0.00  0.00    +0.000 C 
ATOM      6  C   UNL     1       5.269   5.804  17.808  0.00  0.00    +0.000 C 
ENDROOT
BRANCH   1   7
ATOM      7  C   UNL     1       5.184   3.387  17.255  0.00  0.00    +0.000 C 
BRANCH   7  11
ATOM      8  C   UNL     1       1.861   3.016  18.453  0.00  0.00    +0.000 A 
ATOM      9  N   UNL     1       1.585   3.538  17.252  0.00  0.00    +0.000 NA
ATOM     10  O   UNL     1       2.850   3.730  16.695  0.00  0.00    +0.000 OA
ATOM     11  C   UNL     1       3.751   3.301  17.629  0.00  0.00    +0.000 A 
ATOM     12  N   UNL     1       3.192   2.867  18.735  0.00  0.00    +0.000 NA
BRANCH   8  13
ATOM     13  C   UNL     1       0.813   2.508  19.372  0.00  0.00    +0.000 C 
BRANCH  13  15
ATOM     14  C   UNL     1       1.784   2.506  21.730  0.00  0.00    +0.000 C 
ATOM     15  C   UNL     1       0.842   3.207  20.744  0.00  0.00    +0.000 C 
ATOM     16  C   UNL     1       1.261   4.667  20.578  0.00  0.00    +0.000 C 
ENDBRANCH  13  15
ENDBRANCH   8  13
ENDBRANCH   7  11
ENDBRANCH   1   7
BRANCH   4  17
ATOM     17  C   UNL     1       7.816   7.641  17.962  0.00  0.00    +0.000 C 
BRANCH  17  18
ATOM     18  C   UNL     1       8.163   9.131  18.081  0.00  0.00    +0.000 C 
BRANCH  18  19
ATOM     19  O   UNL     1       9.393   9.293  18.799  0.00  0.00    +0.000 OA
BRANCH  19  20
ATOM     20  C   UNL     1       9.623  10.585  19.187  0.00  0.00    +0.000 A 
ATOM     21  C   UNL     1      10.135  11.584  18.351  0.00  0.00    +0.000 A 
ATOM     22  C   UNL     1      10.332  12.880  18.835  0.00  0.00    +0.000 A 
ATOM     23  C   UNL     1       9.999  13.181  20.152  0.00  0.00    +0.000 A 
ATOM     24 CL   UNL     1      10.251  14.779  20.747  0.00  0.00    +0.000 Cl
ATOM     25  C   UNL     1       9.465  12.204  20.986  0.00  0.00    +0.000 A 
ATOM     26  C   UNL     1       9.267  10.907  20.503  0.00  0.00    +0.000 A 
ENDBRANCH  19  20
ENDBRANCH  18  19
ENDBRANCH  17  18
ENDBRANCH   4  17
TORSDOF 8
ENDMDL
MODEL 9
REMARK VINA RESULT:      -6.7      2.022      2.429
REMARK  Name = 
REMARK  10 active torsions:
REMARK  status: ('A' for Active; 'I' for Inactive)
REMARK    1  A    between atoms: C_1  and  C_2
REMARK    2  A    between atoms: C_2  and  C_3
REMARK    3  A    between atoms: C_2  and  C_4
REMARK    4  A    between atoms: C_4  and  C_5
REMARK    5  A    between atoms: C_8  and  C_9
REMARK    6  A    between atoms: C_9  and  N_10
REMARK    7  A    between atoms: N_13  and  C_14
REMARK    8  A    between atoms: C_14  and  C_15
REMARK    9  A    between atoms: C_15  and  O_16
REMARK   10  A    between atoms: O_16  and  C_17
REMARK                            x       y       z     vdW  Elec       q    Type
REMARK                         _______ _______ _______ _____ _____    ______ ____
ROOT
ATOM      1  N   UNL     1       4.365   4.362  18.135  0.00  0.00    +0.000 NA
ATOM      2  C   UNL     1       3.496   4.996  17.135  0.00  0.00    +0.000 C 
ATOM      3  C   UNL     1       2.179   5.432  17.817  0.00  0.00    +0.000 C 
ATOM      4  N   UNL     1       2.349   6.327  18.988  0.00  0.00    +0.000 NA
ATOM      5  C   UNL     1       3.355   5.729  19.896  0.00  0.00    +0.000 C 
ATOM      6  C   UNL     1       4.680   5.314  19.206  0.00  0.00    +0.000 C 
ENDROOT
BRANCH   1   7
ATOM      7  C   UNL     1       5.502   3.611  17.600  0.00  0.00    +0.000 C 
BRANCH   7  11
ATOM      8  C   UNL     1       6.686   4.458  14.359  0.00  0.00    +0.000 A 
ATOM      9  N   UNL     1       7.353   5.380  15.065  0.00  0.00    +0.000 NA
ATOM     10  O   UNL     1       6.943   5.129  16.375  0.00  0.00    +0.000 OA
ATOM     11  C   UNL     1       6.068   4.081  16.311  0.00  0.00    +0.000 A 
ATOM     12  N   UNL     1       5.865   3.642  15.090  0.00  0.00    +0.000 NA
BRANCH   8  13
ATOM     13  C   UNL     1       6.907   4.236  12.910  0.00  0.00    +0.000 C 
BRANCH  13  15
ATOM     14  C   UNL     1       4.758   3.504  11.748  0.00  0.00    +0.000 C 
ATOM     15  C   UNL     1       6.088   3.052  12.363  0.00  0.00    +0.000 C 
ATOM     16  C   UNL     1       6.905   2.289  11.321  0.00  0.00    +0.000 C 
ENDBRANCH  13  15
ENDBRANCH   8  13
ENDBRANCH   7  11
ENDBRANCH   1   7
BRANCH   4  17
ATOM     17  C   UNL     1       2.725   7.706  18.622  0.00  0.00    +0.000 C 
BRANCH  17  18
ATOM     18  C   UNL     1       1.608   8.437  17.866  0.00  0.00    +0.000 C 
BRANCH  18  19
ATOM     19  O   UNL     1       1.462   9.770  18.374  0.00  0.00    +0.000 OA
BRANCH  19  20
ATOM     20  C   UNL     1       0.163  10.199  18.394  0.00  0.00    +0.000 A 
ATOM     21  C   UNL     1      -0.841   9.726  17.541  0.00  0.00    +0.000 A 
ATOM     22  C   UNL     1      -2.144  10.221  17.639  0.00  0.00    +0.000 A 
ATOM     23  C   UNL     1      -2.447  11.177  18.603  0.00  0.00    +0.000 A 
ATOM     24 CL   UNL     1      -4.054  11.790  18.715  0.00  0.00    +0.000 Cl
ATOM     25  C   UNL     1      -1.464  11.636  19.474  0.00  0.00    +0.000 A 
ATOM     26  C   UNL     1      -0.160  11.142  19.377  0.00  0.00    +0.000 A 
ENDBRANCH  19  20
ENDBRANCH  18  19
ENDBRANCH  17  18
ENDBRANCH   4  17
TORSDOF 8
ENDMDL
