MODEL 1
REMARK VINA RESULT:      -9.6      0.000      0.000
REMARK  Name = 
REMARK  5 active torsions:
REMARK  status: ('A' for Active; 'I' for Inactive)
REMARK    1  A    between atoms: C_1  and  N_2
REMARK    2  A    between atoms: C_4  and  C_5
REMARK    3  A    between atoms: N_7  and  C_8
REMARK    4  A    between atoms: C_8  and  C_9
REMARK    5  A    between atoms: N_11  and  C_12
REMARK                            x       y       z     vdW  Elec       q    Type
REMARK                         _______ _______ _______ _____ _____    ______ ____
ROOT
ATOM      1  C   UNL     1       5.090   6.063  18.200  0.00  0.00    +0.000 A 
ATOM      2  C   UNL     1       4.052   6.853  18.506  0.00  0.00    +0.000 A 
ATOM      3  N   UNL     1       2.945   6.556  19.307  0.00  0.00    +0.000 N 
ATOM      4  C   UNL     1       2.891   5.219  19.857  0.00  0.00    +0.000 A 
ATOM      5  C   UNL     1       1.896   4.786  20.751  0.00  0.00    +0.000 A 
ATOM      6  C   UNL     1       1.874   3.478  21.238  0.00  0.00    +0.000 A 
ATOM      7  F   UNL     1       0.883   3.103  22.058  0.00  0.00    +0.000 F 
ATOM      8  C   UNL     1       2.858   2.565  20.900  0.00  0.00    +0.000 A 
ATOM      9  C   UNL     1       3.886   2.969  20.057  0.00  0.00    +0.000 A 
ATOM     10  C   UNL     1       3.903   4.280  19.543  0.00  0.00    +0.000 A 
ATOM     11  C   UNL     1       5.051   4.674  18.693  0.00  0.00    +0.000 A 
ATOM     12  O   UNL     1       5.943   3.877  18.419  0.00  0.00    +0.000 OA
ENDROOT
BRANCH   3  13
ATOM     13  C   UNL     1       2.020   7.623  19.617  0.00  0.00    +0.000 A 
ATOM     14  C   UNL     1       1.491   7.794  20.909  0.00  0.00    +0.000 A 
ATOM     15  C   UNL     1       0.677   8.890  21.231  0.00  0.00    +0.000 A 
ATOM     16  C   UNL     1       0.303   9.800  20.248  0.00  0.00    +0.000 A 
ATOM     17  C   UNL     1       0.741   9.614  18.942  0.00  0.00    +0.000 A 
ATOM     18  C   UNL     1       1.597   8.553  18.641  0.00  0.00    +0.000 A 
ATOM     19  F   UNL     1       2.036   8.470  17.375  0.00  0.00    +0.000 F 
ENDBRANCH   3  13
BRANCH   1  20
ATOM     20  C   UNL     1       6.253   6.488  17.358  0.00  0.00    +0.000 C 
BRANCH  20  23
ATOM     21  C   UNL     1       6.977   4.951  15.565  0.00  0.00    +0.000 C 
ATOM     22  O   UNL     1       7.914   4.518  16.232  0.00  0.00    +0.000 OA
ATOM     23  N   UNL     1       6.118   5.918  16.035  0.00  0.00    +0.000 N 
ATOM     24  H   UNL     1       5.308   6.181  15.489  0.00  0.00    +0.000 HD
BRANCH  21  28
ATOM     25  C   UNL     1       5.087   2.807  11.455  0.00  0.00    +0.000 C 
ATOM     26  N   UNL     1       5.899   3.537  12.398  0.00  0.00    +0.000 N 
ATOM     27  C   UNL     1       5.694   3.664  13.742  0.00  0.00    +0.000 A 
ATOM     28  C   UNL     1       6.715   4.469  14.220  0.00  0.00    +0.000 A 
ATOM     29  C   UNL     1       7.479   4.756  13.063  0.00  0.00    +0.000 A 
ATOM     30  N   UNL     1       6.987   4.189  11.957  0.00  0.00    +0.000 NA
ENDBRANCH  21  28
ENDBRANCH  20  23
ENDBRANCH   1  20
TORSDOF 4
ENDMDL
MODEL 2
REMARK VINA RESULT:      -9.6      3.666      7.660
REMARK  Name = 
REMARK  5 active torsions:
REMARK  status: ('A' for Active; 'I' for Inactive)
REMARK    1  A    between atoms: C_1  and  N_2
REMARK    2  A    between atoms: C_4  and  C_5
REMARK    3  A    between atoms: N_7  and  C_8
REMARK    4  A    between atoms: C_8  and  C_9
REMARK    5  A    between atoms: N_11  and  C_12
REMARK                            x       y       z     vdW  Elec       q    Type
REMARK                         _______ _______ _______ _____ _____    ______ ____
ROOT
ATOM      1  C   UNL     1       2.723   8.156  18.333  0.00  0.00    +0.000 A 
ATOM      2  C   UNL     1       3.682   7.451  17.717  0.00  0.00    +0.000 A 
ATOM      3  N   UNL     1       4.077   6.133  17.960  0.00  0.00    +0.000 N 
ATOM      4  C   UNL     1       3.389   5.442  19.028  0.00  0.00    +0.000 A 
ATOM      5  C   UNL     1       3.602   4.089  19.344  0.00  0.00    +0.000 A 
ATOM      6  C   UNL     1       2.929   3.472  20.399  0.00  0.00    +0.000 A 
ATOM      7  F   UNL     1       3.195   2.190  20.684  0.00  0.00    +0.000 F 
ATOM      8  C   UNL     1       1.986   4.153  21.150  0.00  0.00    +0.000 A 
ATOM      9  C   UNL     1       1.711   5.479  20.839  0.00  0.00    +0.000 A 
ATOM     10  C   UNL     1       2.403   6.116  19.790  0.00  0.00    +0.000 A 
ATOM     11  C   UNL     1       2.032   7.513  19.464  0.00  0.00    +0.000 A 
ATOM     12  O   UNL     1       1.172   8.109  20.107  0.00  0.00    +0.000 OA
ENDROOT
BRANCH   3  13
ATOM     13  C   UNL     1       5.040   5.533  17.063  0.00  0.00    +0.000 A 
ATOM     14  C   UNL     1       4.709   5.194  15.738  0.00  0.00    +0.000 A 
ATOM     15  C   UNL     1       5.672   4.709  14.841  0.00  0.00    +0.000 A 
ATOM     16  C   UNL     1       6.974   4.471  15.269  0.00  0.00    +0.000 A 
ATOM     17  C   UNL     1       7.313   4.716  16.594  0.00  0.00    +0.000 A 
ATOM     18  C   UNL     1       6.365   5.253  17.467  0.00  0.00    +0.000 A 
ATOM     19  F   UNL     1       6.777   5.527  18.714  0.00  0.00    +0.000 F 
ENDBRANCH   3  13
BRANCH   1  20
ATOM     20  C   UNL     1       2.347   9.561  17.974  0.00  0.00    +0.000 C 
BRANCH  20  23
ATOM     21  C   UNL     1       0.140  10.603  18.351  0.00  0.00    +0.000 C 
ATOM     22  O   UNL     1       0.605  11.460  19.099  0.00  0.00    +0.000 OA
ATOM     23  N   UNL     1       0.918   9.633  17.761  0.00  0.00    +0.000 N 
ATOM     24  H   UNL     1       0.511   9.004  17.082  0.00  0.00    +0.000 HD
BRANCH  21  28
ATOM     25  C   UNL     1      -4.804  11.346  18.092  0.00  0.00    +0.000 C 
ATOM     26  N   UNL     1      -3.455  10.867  17.907  0.00  0.00    +0.000 N 
ATOM     27  C   UNL     1      -2.333  11.281  18.567  0.00  0.00    +0.000 A 
ATOM     28  C   UNL     1      -1.279  10.554  18.041  0.00  0.00    +0.000 A 
ATOM     29  C   UNL     1      -1.898   9.726  17.073  0.00  0.00    +0.000 A 
ATOM     30  N   UNL     1      -3.219   9.912  16.993  0.00  0.00    +0.000 NA
ENDBRANCH  21  28
ENDBRANCH  20  23
ENDBRANCH   1  20
TORSDOF 4
ENDMDL
MODEL 3
REMARK VINA RESULT:      -9.3      3.676      7.653
REMARK  Name = 
REMARK  5 active torsions:
REMARK  status: ('A' for Active; 'I' for Inactive)
REMARK    1  A    between atoms: C_1  and  N_2
REMARK    2  A    between atoms: C_4  and  C_5
REMARK    3  A    between atoms: N_7  and  C_8
REMARK    4  A    between atoms: C_8  and  C_9
REMARK    5  A    between atoms: N_11  and  C_12
REMARK                            x       y       z     vdW  Elec       q    Type
REMARK                         _______ _______ _______ _____ _____    ______ ____
ROOT
ATOM      1  C   UNL     1       2.637   8.210  18.371  0.00  0.00    +0.000 A 
ATOM      2  C   UNL     1       3.585   7.516  17.727  0.00  0.00    +0.000 A 
ATOM      3  N   UNL     1       4.005   6.204  17.960  0.00  0.00    +0.000 N 
ATOM      4  C   UNL     1       3.358   5.506  19.049  0.00  0.00    +0.000 A 
ATOM      5  C   UNL     1       3.599   4.155  19.360  0.00  0.00    +0.000 A 
ATOM      6  C   UNL     1       2.965   3.532  20.436  0.00  0.00    +0.000 A 
ATOM      7  F   UNL     1       3.257   2.254  20.714  0.00  0.00    +0.000 F 
ATOM      8  C   UNL     1       2.037   4.202  21.214  0.00  0.00    +0.000 A 
ATOM      9  C   UNL     1       1.736   5.524  20.910  0.00  0.00    +0.000 A 
ATOM     10  C   UNL     1       2.388   6.167  19.840  0.00  0.00    +0.000 A 
ATOM     11  C   UNL     1       1.988   7.559  19.524  0.00  0.00    +0.000 A 
ATOM     12  O   UNL     1       1.141   8.145  20.191  0.00  0.00    +0.000 OA
ENDROOT
BRANCH   3  13
ATOM     13  C   UNL     1       4.947   5.614  17.035  0.00  0.00    +0.000 A 
ATOM     14  C   UNL     1       6.244   6.133  16.866  0.00  0.00    +0.000 A 
ATOM     15  C   UNL     1       7.189   5.498  16.047  0.00  0.00    +0.000 A 
ATOM     16  C   UNL     1       6.836   4.372  15.310  0.00  0.00    +0.000 A 
ATOM     17  C   UNL     1       5.538   3.882  15.389  0.00  0.00    +0.000 A 
ATOM     18  C   UNL     1       4.619   4.486  16.250  0.00  0.00    +0.000 A 
ATOM     19  F   UNL     1       3.404   3.923  16.329  0.00  0.00    +0.000 F 
ENDBRANCH   3  13
BRANCH   1  20
ATOM     20  C   UNL     1       2.231   9.609  18.022  0.00  0.00    +0.000 C 
BRANCH  20  23
ATOM     21  C   UNL     1       0.016  10.663  18.307  0.00  0.00    +0.000 C 
ATOM     22  O   UNL     1       0.473  11.584  18.978  0.00  0.00    +0.000 OA
ATOM     23  N   UNL     1       0.802   9.651  17.803  0.00  0.00    +0.000 N 
ATOM     24  H   UNL     1       0.400   8.963  17.181  0.00  0.00    +0.000 HD
BRANCH  21  28
ATOM     25  C   UNL     1      -4.954  11.232  18.110  0.00  0.00    +0.000 C 
ATOM     26  N   UNL     1      -3.589  10.814  17.894  0.00  0.00    +0.000 N 
ATOM     27  C   UNL     1      -2.479  11.236  18.570  0.00  0.00    +0.000 A 
ATOM     28  C   UNL     1      -1.402  10.576  18.001  0.00  0.00    +0.000 A 
ATOM     29  C   UNL     1      -1.996   9.777  16.995  0.00  0.00    +0.000 A 
ATOM     30  N   UNL     1      -3.324   9.917  16.931  0.00  0.00    +0.000 NA
ENDBRANCH  21  28
ENDBRANCH  20  23
ENDBRANCH   1  20
TORSDOF 4
ENDMDL
MODEL 4
REMARK VINA RESULT:      -9.2      2.927      4.679
REMARK  Name = 
REMARK  5 active torsions:
REMARK  status: ('A' for Active; 'I' for Inactive)
REMARK    1  A    between atoms: C_1  and  N_2
REMARK    2  A    between atoms: C_4  and  C_5
REMARK    3  A    between atoms: N_7  and  C_8
REMARK    4  A    between atoms: C_8  and  C_9
REMARK    5  A    between atoms: N_11  and  C_12
REMARK                            x       y       z     vdW  Elec       q    Type
REMARK                         _______ _______ _______ _____ _____    ______ ____
ROOT
ATOM      1  C   UNL     1       5.368   5.497  16.840  0.00  0.00    +0.000 A 
ATOM      2  C   UNL     1       4.498   6.417  17.279  0.00  0.00    +0.000 A 
ATOM      3  N   UNL     1       3.248   6.212  17.870  0.00  0.00    +0.000 N 
ATOM      4  C   UNL     1       2.818   4.837  18.004  0.00  0.00    +0.000 A 
ATOM      5  C   UNL     1       1.632   4.453  18.654  0.00  0.00    +0.000 A 
ATOM      6  C   UNL     1       1.248   3.113  18.738  0.00  0.00    +0.000 A 
ATOM      7  F   UNL     1       0.090   2.802  19.334  0.00  0.00    +0.000 F 
ATOM      8  C   UNL     1       2.044   2.102  18.228  0.00  0.00    +0.000 A 
ATOM      9  C   UNL     1       3.248   2.437  17.621  0.00  0.00    +0.000 A 
ATOM     10  C   UNL     1       3.631   3.788  17.511  0.00  0.00    +0.000 A 
ATOM     11  C   UNL     1       4.950   4.085  16.905  0.00  0.00    +0.000 A 
ATOM     12  O   UNL     1       5.672   3.188  16.482  0.00  0.00    +0.000 OA
ENDROOT
BRANCH   3  13
ATOM     13  C   UNL     1       2.548   7.360  18.403  0.00  0.00    +0.000 A 
ATOM     14  C   UNL     1       2.165   8.439  17.587  0.00  0.00    +0.000 A 
ATOM     15  C   UNL     1       1.396   9.501  18.085  0.00  0.00    +0.000 A 
ATOM     16  C   UNL     1       1.060   9.552  19.435  0.00  0.00    +0.000 A 
ATOM     17  C   UNL     1       1.495   8.544  20.286  0.00  0.00    +0.000 A 
ATOM     18  C   UNL     1       2.211   7.461  19.771  0.00  0.00    +0.000 A 
ATOM     19  F   UNL     1       2.542   6.489  20.636  0.00  0.00    +0.000 F 
ENDBRANCH   3  13
BRANCH   1  20
ATOM     20  C   UNL     1       6.707   5.817  16.250  0.00  0.00    +0.000 C 
BRANCH  20  23
ATOM     21  C   UNL     1       7.834   7.311  17.862  0.00  0.00    +0.000 C 
ATOM     22  O   UNL     1       8.149   6.379  18.598  0.00  0.00    +0.000 OA
ATOM     23  N   UNL     1       7.124   7.128  16.696  0.00  0.00    +0.000 N 
ATOM     24  H   UNL     1       6.964   7.910  16.076  0.00  0.00    +0.000 HD
BRANCH  21  28
ATOM     25  C   UNL     1       9.726  11.507  19.830  0.00  0.00    +0.000 C 
ATOM     26  N   UNL     1       9.014  10.542  19.027  0.00  0.00    +0.000 N 
ATOM     27  C   UNL     1       8.982   9.187  19.198  0.00  0.00    +0.000 A 
ATOM     28  C   UNL     1       8.189   8.683  18.180  0.00  0.00    +0.000 A 
ATOM     29  C   UNL     1       7.794   9.839  17.465  0.00  0.00    +0.000 A 
ATOM     30  N   UNL     1       8.291  10.968  17.980  0.00  0.00    +0.000 NA
ENDBRANCH  21  28
ENDBRANCH  20  23
ENDBRANCH   1  20
TORSDOF 4
ENDMDL
MODEL 5
REMARK VINA RESULT:      -9.1      3.276      8.125
REMARK  Name = 
REMARK  5 active torsions:
REMARK  status: ('A' for Active; 'I' for Inactive)
REMARK    1  A    between atoms: C_1  and  N_2
REMARK    2  A    between atoms: C_4  and  C_5
REMARK    3  A    between atoms: N_7  and  C_8
REMARK    4  A    between atoms: C_8  and  C_9
REMARK    5  A    between atoms: N_11  and  C_12
REMARK                            x       y       z     vdW  Elec       q    Type
REMARK                         _______ _______ _______ _____ _____    ______ ____
ROOT
ATOM      1  C   UNL     1       2.717   7.288  18.441  0.00  0.00    +0.000 A 
ATOM      2  C   UNL     1       3.685   6.801  17.653  0.00  0.00    +0.000 A 
ATOM      3  N   UNL     1       4.327   5.563  17.738  0.00  0.00    +0.000 N 
ATOM      4  C   UNL     1       3.922   4.702  18.828  0.00  0.00    +0.000 A 
ATOM      5  C   UNL     1       4.404   3.393  19.005  0.00  0.00    +0.000 A 
ATOM      6  C   UNL     1       3.999   2.608  20.086  0.00  0.00    +0.000 A 
ATOM      7  F   UNL     1       4.515   1.380  20.232  0.00  0.00    +0.000 F 
ATOM      8  C   UNL     1       3.069   3.067  21.003  0.00  0.00    +0.000 A 
ATOM      9  C   UNL     1       2.533   4.339  20.836  0.00  0.00    +0.000 A 
ATOM     10  C   UNL     1       2.954   5.145  19.761  0.00  0.00    +0.000 A 
ATOM     11  C   UNL     1       2.310   6.470  19.597  0.00  0.00    +0.000 A 
ATOM     12  O   UNL     1       1.461   6.866  20.390  0.00  0.00    +0.000 OA
ENDROOT
BRANCH   3  13
ATOM     13  C   UNL     1       5.242   5.194  16.681  0.00  0.00    +0.000 A 
ATOM     14  C   UNL     1       4.803   4.540  15.514  0.00  0.00    +0.000 A 
ATOM     15  C   UNL     1       5.674   4.278  14.447  0.00  0.00    +0.000 A 
ATOM     16  C   UNL     1       7.027   4.589  14.551  0.00  0.00    +0.000 A 
ATOM     17  C   UNL     1       7.509   5.159  15.723  0.00  0.00    +0.000 A 
ATOM     18  C   UNL     1       6.626   5.469  16.759  0.00  0.00    +0.000 A 
ATOM     19  F   UNL     1       7.146   6.079  17.835  0.00  0.00    +0.000 F 
ENDBRANCH   3  13
BRANCH   1  20
ATOM     20  C   UNL     1       2.062   8.621  18.246  0.00  0.00    +0.000 C 
BRANCH  20  23
ATOM     21  C   UNL     1       0.707  10.195  19.582  0.00  0.00    +0.000 C 
ATOM     22  O   UNL     1       0.569  10.971  18.639  0.00  0.00    +0.000 OA
ATOM     23  N   UNL     1       1.425   9.026  19.480  0.00  0.00    +0.000 N 
ATOM     24  H   UNL     1       1.439   8.374  20.253  0.00  0.00    +0.000 HD
BRANCH  21  28
ATOM     25  C   UNL     1      -2.071  11.838  23.409  0.00  0.00    +0.000 C 
ATOM     26  N   UNL     1      -1.093  11.174  22.581  0.00  0.00    +0.000 N 
ATOM     27  C   UNL     1      -0.920  11.314  21.233  0.00  0.00    +0.000 A 
ATOM     28  C   UNL     1       0.119  10.468  20.883  0.00  0.00    +0.000 A 
ATOM     29  C   UNL     1       0.496   9.878  22.114  0.00  0.00    +0.000 A 
ATOM     30  N   UNL     1      -0.236  10.308  23.145  0.00  0.00    +0.000 NA
ENDBRANCH  21  28
ENDBRANCH  20  23
ENDBRANCH   1  20
TORSDOF 4
ENDMDL
MODEL 6
REMARK VINA RESULT:      -9.0      4.027      7.713
REMARK  Name = 
REMARK  5 active torsions:
REMARK  status: ('A' for Active; 'I' for Inactive)
REMARK    1  A    between atoms: C_1  and  N_2
REMARK    2  A    between atoms: C_4  and  C_5
REMARK    3  A    between atoms: N_7  and  C_8
REMARK    4  A    between atoms: C_8  and  C_9
REMARK    5  A    between atoms: N_11  and  C_12
REMARK                            x       y       z     vdW  Elec       q    Type
REMARK                         _______ _______ _______ _____ _____    ______ ____
ROOT
ATOM      1  C   UNL     1       1.978   8.194  18.873  0.00  0.00    +0.000 A 
ATOM      2  C   UNL     1       1.767   6.971  19.379  0.00  0.00    +0.000 A 
ATOM      3  N   UNL     1       2.407   5.775  19.045  0.00  0.00    +0.000 N 
ATOM      4  C   UNL     1       3.406   5.850  18.001  0.00  0.00    +0.000 A 
ATOM      5  C   UNL     1       4.202   4.761  17.606  0.00  0.00    +0.000 A 
ATOM      6  C   UNL     1       5.138   4.878  16.578  0.00  0.00    +0.000 A 
ATOM      7  F   UNL     1       5.846   3.800  16.213  0.00  0.00    +0.000 F 
ATOM      8  C   UNL     1       5.357   6.084  15.935  0.00  0.00    +0.000 A 
ATOM      9  C   UNL     1       4.624   7.197  16.329  0.00  0.00    +0.000 A 
ATOM     10  C   UNL     1       3.661   7.081  17.350  0.00  0.00    +0.000 A 
ATOM     11  C   UNL     1       2.948   8.311  17.769  0.00  0.00    +0.000 A 
ATOM     12  O   UNL     1       3.164   9.389  17.224  0.00  0.00    +0.000 OA
ENDROOT
BRANCH   3  13
ATOM     13  C   UNL     1       2.114   4.600  19.835  0.00  0.00    +0.000 A 
ATOM     14  C   UNL     1       2.565   4.467  21.161  0.00  0.00    +0.000 A 
ATOM     15  C   UNL     1       2.192   3.375  21.958  0.00  0.00    +0.000 A 
ATOM     16  C   UNL     1       1.426   2.344  21.423  0.00  0.00    +0.000 A 
ATOM     17  C   UNL     1       1.034   2.403  20.091  0.00  0.00    +0.000 A 
ATOM     18  C   UNL     1       1.361   3.521  19.321  0.00  0.00    +0.000 A 
ATOM     19  F   UNL     1       0.895   3.545  18.062  0.00  0.00    +0.000 F 
ENDBRANCH   3  13
BRANCH   1  20
ATOM     20  C   UNL     1       1.262   9.429  19.326  0.00  0.00    +0.000 C 
BRANCH  20  23
ATOM     21  C   UNL     1      -0.973  10.345  18.814  0.00  0.00    +0.000 C 
ATOM     22  O   UNL     1      -1.167  10.688  19.978  0.00  0.00    +0.000 OA
ATOM     23  N   UNL     1       0.183   9.719  18.407  0.00  0.00    +0.000 N 
ATOM     24  H   UNL     1       0.338   9.536  17.425  0.00  0.00    +0.000 HD
BRANCH  21  28
ATOM     25  C   UNL     1      -3.782  10.262  14.670  0.00  0.00    +0.000 C 
ATOM     26  N   UNL     1      -3.220  10.553  15.967  0.00  0.00    +0.000 N 
ATOM     27  C   UNL     1      -2.098  10.007  16.523  0.00  0.00    +0.000 A 
ATOM     28  C   UNL     1      -1.968  10.576  17.779  0.00  0.00    +0.000 A 
ATOM     29  C   UNL     1      -3.072  11.458  17.859  0.00  0.00    +0.000 A 
ATOM     30  N   UNL     1      -3.831  11.448  16.760  0.00  0.00    +0.000 NA
ENDBRANCH  21  28
ENDBRANCH  20  23
ENDBRANCH   1  20
TORSDOF 4
ENDMDL
MODEL 7
REMARK VINA RESULT:      -9.0      2.476      4.199
REMARK  Name = 
REMARK  5 active torsions:
REMARK  status: ('A' for Active; 'I' for Inactive)
REMARK    1  A    between atoms: C_1  and  N_2
REMARK    2  A    between atoms: C_4  and  C_5
REMARK    3  A    between atoms: N_7  and  C_8
REMARK    4  A    between atoms: C_8  and  C_9
REMARK    5  A    between atoms: N_11  and  C_12
REMARK                            x       y       z     vdW  Elec       q    Type
REMARK                         _______ _______ _______ _____ _____    ______ ____
ROOT
ATOM      1  C   UNL     1       4.564   5.906  17.133  0.00  0.00    +0.000 A 
ATOM      2  C   UNL     1       3.740   6.758  17.756  0.00  0.00    +0.000 A 
ATOM      3  N   UNL     1       2.750   6.470  18.700  0.00  0.00    +0.000 N 
ATOM      4  C   UNL     1       2.567   5.074  19.033  0.00  0.00    +0.000 A 
ATOM      5  C   UNL     1       1.678   4.622  20.024  0.00  0.00    +0.000 A 
ATOM      6  C   UNL     1       1.520   3.261  20.294  0.00  0.00    +0.000 A 
ATOM      7  F   UNL     1       0.633   2.878  21.222  0.00  0.00    +0.000 F 
ATOM      8  C   UNL     1       2.266   2.302  19.631  0.00  0.00    +0.000 A 
ATOM      9  C   UNL     1       3.190   2.713  18.677  0.00  0.00    +0.000 A 
ATOM     10  C   UNL     1       3.339   4.082  18.382  0.00  0.00    +0.000 A 
ATOM     11  C   UNL     1       4.378   4.468  17.399  0.00  0.00    +0.000 A 
ATOM     12  O   UNL     1       5.064   3.622  16.833  0.00  0.00    +0.000 OA
ENDROOT
BRANCH   3  13
ATOM     13  C   UNL     1       2.083   7.577  19.349  0.00  0.00    +0.000 A 
ATOM     14  C   UNL     1       1.788   7.562  20.724  0.00  0.00    +0.000 A 
ATOM     15  C   UNL     1       1.235   8.677  21.370  0.00  0.00    +0.000 A 
ATOM     16  C   UNL     1       0.886   9.809  20.641  0.00  0.00    +0.000 A 
ATOM     17  C   UNL     1       1.086   9.825  19.265  0.00  0.00    +0.000 A 
ATOM     18  C   UNL     1       1.689   8.733  18.639  0.00  0.00    +0.000 A 
ATOM     19  F   UNL     1       1.914   8.841  17.320  0.00  0.00    +0.000 F 
ENDBRANCH   3  13
BRANCH   1  20
ATOM     20  C   UNL     1       5.623   6.318  16.157  0.00  0.00    +0.000 C 
BRANCH  20  23
ATOM     21  C   UNL     1       7.439   7.310  17.504  0.00  0.00    +0.000 C 
ATOM     22  O   UNL     1       7.870   6.211  17.844  0.00  0.00    +0.000 OA
ATOM     23  N   UNL     1       6.343   7.456  16.686  0.00  0.00    +0.000 N 
ATOM     24  H   UNL     1       6.077   8.375  16.359  0.00  0.00    +0.000 HD
BRANCH  21  28
ATOM     25  C   UNL     1       8.971  12.036  18.122  0.00  0.00    +0.000 C 
ATOM     26  N   UNL     1       8.747  10.616  18.248  0.00  0.00    +0.000 N 
ATOM     27  C   UNL     1       8.003   9.820  17.424  0.00  0.00    +0.000 A 
ATOM     28  C   UNL     1       8.064   8.543  17.955  0.00  0.00    +0.000 A 
ATOM     29  C   UNL     1       8.885   8.697  19.098  0.00  0.00    +0.000 A 
ATOM     30  N   UNL     1       9.304   9.954  19.275  0.00  0.00    +0.000 NA
ENDBRANCH  21  28
ENDBRANCH  20  23
ENDBRANCH   1  20
TORSDOF 4
ENDMDL
MODEL 8
REMARK VINA RESULT:      -8.9      0.907      1.270
REMARK  Name = 
REMARK  5 active torsions:
REMARK  status: ('A' for Active; 'I' for Inactive)
REMARK    1  A    between atoms: C_1  and  N_2
REMARK    2  A    between atoms: C_4  and  C_5
REMARK    3  A    between atoms: N_7  and  C_8
REMARK    4  A    between atoms: C_8  and  C_9
REMARK    5  A    between atoms: N_11  and  C_12
REMARK                            x       y       z     vdW  Elec       q    Type
REMARK                         _______ _______ _______ _____ _____    ______ ____
ROOT
ATOM      1  C   UNL     1       5.157   6.286  17.918  0.00  0.00    +0.000 A 
ATOM      2  C   UNL     1       4.098   7.087  18.101  0.00  0.00    +0.000 A 
ATOM      3  N   UNL     1       2.943   6.836  18.846  0.00  0.00    +0.000 N 
ATOM      4  C   UNL     1       2.857   5.539  19.481  0.00  0.00    +0.000 A 
ATOM      5  C   UNL     1       1.807   5.159  20.336  0.00  0.00    +0.000 A 
ATOM      6  C   UNL     1       1.757   3.887  20.908  0.00  0.00    +0.000 A 
ATOM      7  F   UNL     1       0.716   3.560  21.685  0.00  0.00    +0.000 F 
ATOM      8  C   UNL     1       2.764   2.961  20.697  0.00  0.00    +0.000 A 
ATOM      9  C   UNL     1       3.844   3.315  19.897  0.00  0.00    +0.000 A 
ATOM     10  C   UNL     1       3.890   4.588  19.297  0.00  0.00    +0.000 A 
ATOM     11  C   UNL     1       5.091   4.933  18.500  0.00  0.00    +0.000 A 
ATOM     12  O   UNL     1       6.001   4.126  18.339  0.00  0.00    +0.000 OA
ENDROOT
BRANCH   3  13
ATOM     13  C   UNL     1       1.996   7.914  19.023  0.00  0.00    +0.000 A 
ATOM     14  C   UNL     1       1.460   8.617  17.928  0.00  0.00    +0.000 A 
ATOM     15  C   UNL     1       0.465   9.591  18.096  0.00  0.00    +0.000 A 
ATOM     16  C   UNL     1       0.039   9.947  19.372  0.00  0.00    +0.000 A 
ATOM     17  C   UNL     1       0.609   9.332  20.480  0.00  0.00    +0.000 A 
ATOM     18  C   UNL     1       1.558   8.323  20.302  0.00  0.00    +0.000 A 
ATOM     19  F   UNL     1       2.018   7.724  21.411  0.00  0.00    +0.000 F 
ENDBRANCH   3  13
BRANCH   1  20
ATOM     20  C   UNL     1       6.371   6.662  17.126  0.00  0.00    +0.000 C 
BRANCH  20  23
ATOM     21  C   UNL     1       7.087   4.992  15.453  0.00  0.00    +0.000 C 
ATOM     22  O   UNL     1       7.915   4.496  16.213  0.00  0.00    +0.000 OA
ATOM     23  N   UNL     1       6.293   6.057  15.814  0.00  0.00    +0.000 N 
ATOM     24  H   UNL     1       5.563   6.376  15.191  0.00  0.00    +0.000 HD
BRANCH  21  28
ATOM     25  C   UNL     1       5.532   2.599  11.339  0.00  0.00    +0.000 C 
ATOM     26  N   UNL     1       6.223   3.447  12.282  0.00  0.00    +0.000 N 
ATOM     27  C   UNL     1       6.015   3.526  13.629  0.00  0.00    +0.000 A 
ATOM     28  C   UNL     1       6.894   4.485  14.104  0.00  0.00    +0.000 A 
ATOM     29  C   UNL     1       7.585   4.906  12.943  0.00  0.00    +0.000 A 
ATOM     30  N   UNL     1       7.182   4.275  11.836  0.00  0.00    +0.000 NA
ENDBRANCH  21  28
ENDBRANCH  20  23
ENDBRANCH   1  20
TORSDOF 4
ENDMDL
MODEL 9
REMARK VINA RESULT:      -8.8      3.606      7.609
REMARK  Name = 
REMARK  5 active torsions:
REMARK  status: ('A' for Active; 'I' for Inactive)
REMARK    1  A    between atoms: C_1  and  N_2
REMARK    2  A    between atoms: C_4  and  C_5
REMARK    3  A    between atoms: N_7  and  C_8
REMARK    4  A    between atoms: C_8  and  C_9
REMARK    5  A    between atoms: N_11  and  C_12
REMARK                            x       y       z     vdW  Elec       q    Type
REMARK                         _______ _______ _______ _____ _____    ______ ____
ROOT
ATOM      1  C   UNL     1       2.652   8.113  18.281  0.00  0.00    +0.000 A 
ATOM      2  C   UNL     1       3.500   7.360  17.568  0.00  0.00    +0.000 A 
ATOM      3  N   UNL     1       3.854   6.024  17.776  0.00  0.00    +0.000 N 
ATOM      4  C   UNL     1       3.254   5.371  18.918  0.00  0.00    +0.000 A 
ATOM      5  C   UNL     1       3.434   4.009  19.218  0.00  0.00    +0.000 A 
ATOM      6  C   UNL     1       2.852   3.428  20.347  0.00  0.00    +0.000 A 
ATOM      7  F   UNL     1       3.084   2.135  20.610  0.00  0.00    +0.000 F 
ATOM      8  C   UNL     1       2.034   4.157  21.192  0.00  0.00    +0.000 A 
ATOM      9  C   UNL     1       1.792   5.495  20.903  0.00  0.00    +0.000 A 
ATOM     10  C   UNL     1       2.394   6.094  19.780  0.00  0.00    +0.000 A 
ATOM     11  C   UNL     1       2.059   7.507  19.487  0.00  0.00    +0.000 A 
ATOM     12  O   UNL     1       1.307   8.147  20.216  0.00  0.00    +0.000 OA
ENDROOT
BRANCH   3  13
ATOM     13  C   UNL     1       4.680   5.375  16.782  0.00  0.00    +0.000 A 
ATOM     14  C   UNL     1       5.099   4.039  16.924  0.00  0.00    +0.000 A 
ATOM     15  C   UNL     1       5.811   3.381  15.911  0.00  0.00    +0.000 A 
ATOM     16  C   UNL     1       6.196   4.066  14.764  0.00  0.00    +0.000 A 
ATOM     17  C   UNL     1       5.871   5.411  14.629  0.00  0.00    +0.000 A 
ATOM     18  C   UNL     1       5.112   6.044  15.616  0.00  0.00    +0.000 A 
ATOM     19  F   UNL     1       4.777   7.324  15.392  0.00  0.00    +0.000 F 
ENDBRANCH   3  13
BRANCH   1  20
ATOM     20  C   UNL     1       2.308   9.535  17.956  0.00  0.00    +0.000 C 
BRANCH  20  23
ATOM     21  C   UNL     1       0.129  10.615  18.384  0.00  0.00    +0.000 C 
ATOM     22  O   UNL     1       0.619  11.436  19.155  0.00  0.00    +0.000 OA
ATOM     23  N   UNL     1       0.880   9.647  17.757  0.00  0.00    +0.000 N 
ATOM     24  H   UNL     1       0.453   9.050  17.062  0.00  0.00    +0.000 HD
BRANCH  21  28
ATOM     25  C   UNL     1      -4.799  11.477  18.194  0.00  0.00    +0.000 C 
ATOM     26  N   UNL     1      -3.462  10.976  17.981  0.00  0.00    +0.000 N 
ATOM     27  C   UNL     1      -2.327  11.339  18.647  0.00  0.00    +0.000 A 
ATOM     28  C   UNL     1      -1.293  10.610  18.084  0.00  0.00    +0.000 A 
ATOM     29  C   UNL     1      -1.937   9.833  17.091  0.00  0.00    +0.000 A 
ATOM     30  N   UNL     1      -3.254  10.052  17.029  0.00  0.00    +0.000 NA
ENDBRANCH  21  28
ENDBRANCH  20  23
ENDBRANCH   1  20
TORSDOF 4
ENDMDL
