MODEL 1
REMARK VINA RESULT:      -7.8      0.000      0.000
REMARK  Name = 
REMARK  10 active torsions:
REMARK  status: ('A' for Active; 'I' for Inactive)
REMARK    1  A    between atoms: C_1  and  O_2
REMARK    2  A    between atoms: O_2  and  C_3
REMARK    3  A    between atoms: C_5  and  C_6
REMARK    4  A    between atoms: N_11  and  C_12
REMARK    5  A    between atoms: C_12  and  C_13
REMARK    6  A    between atoms: C_15  and  C_16
REMARK    7  A    between atoms: C_21  and  O_22
REMARK    8  A    between atoms: O_22  and  C_23
REMARK    9  A    between atoms: C_24  and  O_25
REMARK   10  A    between atoms: O_25  and  C_26
REMARK                            x       y       z     vdW  Elec       q    Type
REMARK                         _______ _______ _______ _____ _____    ______ ____
ROOT
ATOM      1  C   UNL     1       2.182   7.855  18.908  0.00  0.00    +0.000 A 
ATOM      2  C   UNL     1       1.892   7.695  20.248  0.00  0.00    +0.000 A 
ATOM      3  N   UNL     1       1.037   8.512  20.880  0.00  0.00    +0.000 NA
ATOM      4  N   UNL     1       0.461   9.509  20.159  0.00  0.00    +0.000 NA
ATOM      5  C   UNL     1       0.763   9.658  18.850  0.00  0.00    +0.000 A 
ATOM      6  N   UNL     1       0.190  10.669  18.087  0.00  0.00    +0.000 N 
ATOM      7  N   UNL     1       1.609   8.857  18.198  0.00  0.00    +0.000 NA
ATOM      8  H   UNL     1       0.292  10.391  17.119  0.00  0.00    +0.000 HD
ENDROOT
BRANCH   1  11
ATOM      9  C   UNL     1       5.101   6.438  16.911  0.00  0.00    +0.000 A 
ATOM     10  C   UNL     1       4.181   7.347  17.469  0.00  0.00    +0.000 A 
ATOM     11  C   UNL     1       3.023   6.922  18.128  0.00  0.00    +0.000 A 
ATOM     12  C   UNL     1       2.750   5.550  18.091  0.00  0.00    +0.000 A 
ATOM     13  C   UNL     1       3.595   4.625  17.449  0.00  0.00    +0.000 A 
ATOM     14  C   UNL     1       4.799   5.063  16.854  0.00  0.00    +0.000 A 
BRANCH   9  16
ATOM     15  C   UNL     1       7.331   7.104  17.361  0.00  0.00    +0.000 C 
ATOM     16  O   UNL     1       6.285   6.910  16.404  0.00  0.00    +0.000 OA
ENDBRANCH   9  16
BRANCH  13  17
ATOM     17  O   UNL     1       3.094   3.350  17.540  0.00  0.00    +0.000 OA
ATOM     18  C   UNL     1       1.811   3.135  18.108  0.00  0.00    +0.000 C 
ENDBRANCH  13  17
BRANCH  14  19
ATOM     19  O   UNL     1       5.566   4.094  16.271  0.00  0.00    +0.000 OA
ATOM     20  C   UNL     1       5.757   4.050  14.869  0.00  0.00    +0.000 C 
ENDBRANCH  14  19
ENDBRANCH   1  11
BRANCH   6  21
ATOM     21  C   UNL     1      -1.164  11.026  18.477  0.00  0.00    +0.000 C 
BRANCH  21  22
ATOM     22  C   UNL     1      -2.122  10.917  17.348  0.00  0.00    +0.000 A 
ATOM     23  C   UNL     1      -2.137  10.184  16.187  0.00  0.00    +0.000 A 
ATOM     24  C   UNL     1      -3.369  10.511  15.583  0.00  0.00    +0.000 A 
ATOM     25  C   UNL     1      -3.938   9.987  14.323  0.00  0.00    +0.000 C 
ATOM     26  N   UNL     1      -4.048  11.403  16.316  0.00  0.00    +0.000 NA
ATOM     27  O   UNL     1      -3.261  11.655  17.426  0.00  0.00    +0.000 OA
ENDBRANCH  21  22
ENDBRANCH   6  21
TORSDOF 6
ENDMDL
MODEL 2
REMARK VINA RESULT:      -7.4      4.899      8.228
REMARK  Name = 
REMARK  10 active torsions:
REMARK  status: ('A' for Active; 'I' for Inactive)
REMARK    1  A    between atoms: C_1  and  O_2
REMARK    2  A    between atoms: O_2  and  C_3
REMARK    3  A    between atoms: C_5  and  C_6
REMARK    4  A    between atoms: N_11  and  C_12
REMARK    5  A    between atoms: C_12  and  C_13
REMARK    6  A    between atoms: C_15  and  C_16
REMARK    7  A    between atoms: C_21  and  O_22
REMARK    8  A    between atoms: O_22  and  C_23
REMARK    9  A    between atoms: C_24  and  O_25
REMARK   10  A    between atoms: O_25  and  C_26
REMARK                            x       y       z     vdW  Elec       q    Type
REMARK                         _______ _______ _______ _____ _____    ______ ____
ROOT
ATOM      1  C   UNL     1       5.435   5.718  17.458  0.00  0.00    +0.000 A 
ATOM      2  C   UNL     1       6.223   5.018  16.566  0.00  0.00    +0.000 A 
ATOM      3  N   UNL     1       7.354   5.545  16.072  0.00  0.00    +0.000 NA
ATOM      4  N   UNL     1       7.703   6.793  16.477  0.00  0.00    +0.000 NA
ATOM      5  C   UNL     1       6.915   7.469  17.343  0.00  0.00    +0.000 A 
ATOM      6  N   UNL     1       7.246   8.748  17.775  0.00  0.00    +0.000 N 
ATOM      7  N   UNL     1       5.786   6.966  17.851  0.00  0.00    +0.000 NA
ATOM      8  H   UNL     1       6.725   8.907  18.629  0.00  0.00    +0.000 HD
ENDROOT
BRANCH   1  11
ATOM      9  C   UNL     1       2.889   3.210  18.778  0.00  0.00    +0.000 A 
ATOM     10  C   UNL     1       3.885   3.808  17.982  0.00  0.00    +0.000 A 
ATOM     11  C   UNL     1       4.243   5.153  18.125  0.00  0.00    +0.000 A 
ATOM     12  C   UNL     1       3.470   5.915  19.008  0.00  0.00    +0.000 A 
ATOM     13  C   UNL     1       2.397   5.371  19.741  0.00  0.00    +0.000 A 
ATOM     14  C   UNL     1       2.098   3.995  19.640  0.00  0.00    +0.000 A 
BRANCH   9  16
ATOM     15  C   UNL     1       3.835   1.079  18.349  0.00  0.00    +0.000 C 
ATOM     16  O   UNL     1       2.683   1.856  18.688  0.00  0.00    +0.000 OA
ENDBRANCH   9  16
BRANCH  13  17
ATOM     17  O   UNL     1       1.791   6.329  20.517  0.00  0.00    +0.000 OA
ATOM     18  C   UNL     1       1.878   7.697  20.145  0.00  0.00    +0.000 C 
ENDBRANCH  13  17
BRANCH  14  19
ATOM     19  O   UNL     1       1.053   3.552  20.401  0.00  0.00    +0.000 OA
ATOM     20  C   UNL     1       1.268   2.847  21.610  0.00  0.00    +0.000 C 
ENDBRANCH  14  19
ENDBRANCH   1  11
BRANCH   6  21
ATOM     21  C   UNL     1       8.673   9.000  17.877  0.00  0.00    +0.000 C 
BRANCH  21  22
ATOM     22  C   UNL     1       8.972  10.263  18.600  0.00  0.00    +0.000 A 
ATOM     23  C   UNL     1       9.498  10.543  19.837  0.00  0.00    +0.000 A 
ATOM     24  C   UNL     1       9.563  11.952  19.876  0.00  0.00    +0.000 A 
ATOM     25  C   UNL     1      10.084  12.813  20.959  0.00  0.00    +0.000 C 
ATOM     26  N   UNL     1       9.085  12.493  18.749  0.00  0.00    +0.000 NA
ATOM     27  O   UNL     1       8.715  11.427  17.947  0.00  0.00    +0.000 OA
ENDBRANCH  21  22
ENDBRANCH   6  21
TORSDOF 6
ENDMDL
MODEL 3
REMARK VINA RESULT:      -7.4      3.057      8.427
REMARK  Name = 
REMARK  10 active torsions:
REMARK  status: ('A' for Active; 'I' for Inactive)
REMARK    1  A    between atoms: C_1  and  O_2
REMARK    2  A    between atoms: O_2  and  C_3
REMARK    3  A    between atoms: C_5  and  C_6
REMARK    4  A    between atoms: N_11  and  C_12
REMARK    5  A    between atoms: C_12  and  C_13
REMARK    6  A    between atoms: C_15  and  C_16
REMARK    7  A    between atoms: C_21  and  O_22
REMARK    8  A    between atoms: O_22  and  C_23
REMARK    9  A    between atoms: C_24  and  O_25
REMARK   10  A    between atoms: O_25  and  C_26
REMARK                            x       y       z     vdW  Elec       q    Type
REMARK                         _______ _______ _______ _____ _____    ______ ____
ROOT
ATOM      1  C   UNL     1       2.056   7.517  19.477  0.00  0.00    +0.000 A 
ATOM      2  C   UNL     1       2.062   6.419  20.313  0.00  0.00    +0.000 A 
ATOM      3  N   UNL     1       2.838   5.354  20.061  0.00  0.00    +0.000 NA
ATOM      4  N   UNL     1       3.623   5.387  18.953  0.00  0.00    +0.000 NA
ATOM      5  C   UNL     1       3.598   6.467  18.139  0.00  0.00    +0.000 A 
ATOM      6  N   UNL     1       4.389   6.531  16.998  0.00  0.00    +0.000 N 
ATOM      7  N   UNL     1       2.836   7.540  18.369  0.00  0.00    +0.000 NA
ATOM      8  H   UNL     1       4.458   7.509  16.750  0.00  0.00    +0.000 HD
ENDROOT
BRANCH   1  11
ATOM      9  C   UNL     1      -0.160  10.580  19.010  0.00  0.00    +0.000 A 
ATOM     10  C   UNL     1       0.726   9.520  18.739  0.00  0.00    +0.000 A 
ATOM     11  C   UNL     1       1.314   8.764  19.759  0.00  0.00    +0.000 A 
ATOM     12  C   UNL     1       1.086   9.197  21.070  0.00  0.00    +0.000 A 
ATOM     13  C   UNL     1       0.289  10.320  21.370  0.00  0.00    +0.000 A 
ATOM     14  C   UNL     1      -0.358  11.025  20.332  0.00  0.00    +0.000 A 
BRANCH   9  16
ATOM     15  C   UNL     1      -1.849  10.417  17.354  0.00  0.00    +0.000 C 
ATOM     16  O   UNL     1      -0.814  11.190  17.968  0.00  0.00    +0.000 OA
ENDBRANCH   9  16
BRANCH  13  17
ATOM     17  O   UNL     1       0.240  10.543  22.724  0.00  0.00    +0.000 OA
ATOM     18  C   UNL     1      -0.185   9.507  23.596  0.00  0.00    +0.000 C 
ENDBRANCH  13  17
BRANCH  14  19
ATOM     19  O   UNL     1      -1.125  12.088  20.718  0.00  0.00    +0.000 OA
ATOM     20  C   UNL     1      -0.604  13.404  20.736  0.00  0.00    +0.000 C 
ENDBRANCH  14  19
ENDBRANCH   1  11
BRANCH   6  21
ATOM     21  C   UNL     1       5.663   5.840  17.108  0.00  0.00    +0.000 C 
BRANCH  21  22
ATOM     22  C   UNL     1       6.125   5.301  15.803  0.00  0.00    +0.000 A 
ATOM     23  C   UNL     1       5.599   4.398  14.912  0.00  0.00    +0.000 A 
ATOM     24  C   UNL     1       6.524   4.380  13.847  0.00  0.00    +0.000 A 
ATOM     25  C   UNL     1       6.451   3.611  12.586  0.00  0.00    +0.000 C 
ATOM     26  N   UNL     1       7.556   5.200  14.085  0.00  0.00    +0.000 NA
ATOM     27  O   UNL     1       7.301   5.779  15.316  0.00  0.00    +0.000 OA
ENDBRANCH  21  22
ENDBRANCH   6  21
TORSDOF 6
ENDMDL
MODEL 4
REMARK VINA RESULT:      -7.4      1.436      3.015
REMARK  Name = 
REMARK  10 active torsions:
REMARK  status: ('A' for Active; 'I' for Inactive)
REMARK    1  A    between atoms: C_1  and  O_2
REMARK    2  A    between atoms: O_2  and  C_3
REMARK    3  A    between atoms: C_5  and  C_6
REMARK    4  A    between atoms: N_11  and  C_12
REMARK    5  A    between atoms: C_12  and  C_13
REMARK    6  A    between atoms: C_15  and  C_16
REMARK    7  A    between atoms: C_21  and  O_22
REMARK    8  A    between atoms: O_22  and  C_23
REMARK    9  A    between atoms: C_24  and  O_25
REMARK   10  A    between atoms: O_25  and  C_26
REMARK                            x       y       z     vdW  Elec       q    Type
REMARK                         _______ _______ _______ _____ _____    ______ ____
ROOT
ATOM      1  C   UNL     1       1.429   8.391  20.220  0.00  0.00    +0.000 A 
ATOM      2  C   UNL     1       1.084   8.730  21.513  0.00  0.00    +0.000 A 
ATOM      3  N   UNL     1       0.315   9.798  21.773  0.00  0.00    +0.000 NA
ATOM      4  N   UNL     1      -0.117  10.541  20.721  0.00  0.00    +0.000 NA
ATOM      5  C   UNL     1       0.239  10.200  19.462  0.00  0.00    +0.000 A 
ATOM      6  N   UNL     1      -0.188  10.942  18.366  0.00  0.00    +0.000 N 
ATOM      7  N   UNL     1       1.001   9.141  19.177  0.00  0.00    +0.000 NA
ATOM      8  H   UNL     1      -0.091  10.340  17.557  0.00  0.00    +0.000 HD
ENDROOT
BRANCH   1  11
ATOM      9  C   UNL     1       2.637   4.778  20.199  0.00  0.00    +0.000 A 
ATOM     10  C   UNL     1       2.113   6.008  20.642  0.00  0.00    +0.000 A 
ATOM     11  C   UNL     1       2.174   7.166  19.860  0.00  0.00    +0.000 A 
ATOM     12  C   UNL     1       2.901   7.078  18.667  0.00  0.00    +0.000 A 
ATOM     13  C   UNL     1       3.528   5.889  18.246  0.00  0.00    +0.000 A 
ATOM     14  C   UNL     1       3.392   4.710  19.011  0.00  0.00    +0.000 A 
BRANCH   9  16
ATOM     15  C   UNL     1       1.166   2.997  20.733  0.00  0.00    +0.000 C 
ATOM     16  O   UNL     1       2.421   3.649  20.949  0.00  0.00    +0.000 OA
ENDBRANCH   9  16
BRANCH  13  17
ATOM     17  O   UNL     1       4.190   6.072  17.057  0.00  0.00    +0.000 OA
ATOM     18  C   UNL     1       5.542   6.506  17.062  0.00  0.00    +0.000 C 
ENDBRANCH  13  17
BRANCH  14  19
ATOM     19  O   UNL     1       4.018   3.600  18.517  0.00  0.00    +0.000 OA
ATOM     20  C   UNL     1       3.344   2.691  17.667  0.00  0.00    +0.000 C 
ENDBRANCH  14  19
ENDBRANCH   1  11
BRANCH   6  21
ATOM     21  C   UNL     1      -1.499  11.548  18.520  0.00  0.00    +0.000 C 
BRANCH  21  22
ATOM     22  C   UNL     1      -2.392  11.258  17.370  0.00  0.00    +0.000 A 
ATOM     23  C   UNL     1      -2.225  10.573  16.192  0.00  0.00    +0.000 A 
ATOM     24  C   UNL     1      -3.491  10.632  15.571  0.00  0.00    +0.000 A 
ATOM     25  C   UNL     1      -3.909  10.029  14.288  0.00  0.00    +0.000 C 
ATOM     26  N   UNL     1      -4.363  11.328  16.311  0.00  0.00    +0.000 NA
ATOM     27  O   UNL     1      -3.668  11.719  17.443  0.00  0.00    +0.000 OA
ENDBRANCH  21  22
ENDBRANCH   6  21
TORSDOF 6
ENDMDL
MODEL 5
REMARK VINA RESULT:      -7.3      3.541      8.289
REMARK  Name = 
REMARK  10 active torsions:
REMARK  status: ('A' for Active; 'I' for Inactive)
REMARK    1  A    between atoms: C_1  and  O_2
REMARK    2  A    between atoms: O_2  and  C_3
REMARK    3  A    between atoms: C_5  and  C_6
REMARK    4  A    between atoms: N_11  and  C_12
REMARK    5  A    between atoms: C_12  and  C_13
REMARK    6  A    between atoms: C_15  and  C_16
REMARK    7  A    between atoms: C_21  and  O_22
REMARK    8  A    between atoms: O_22  and  C_23
REMARK    9  A    between atoms: C_24  and  O_25
REMARK   10  A    between atoms: O_25  and  C_26
REMARK                            x       y       z     vdW  Elec       q    Type
REMARK                         _______ _______ _______ _____ _____    ______ ____
ROOT
ATOM      1  C   UNL     1       2.446   6.636  19.463  0.00  0.00    +0.000 A 
ATOM      2  C   UNL     1       2.484   5.536  20.297  0.00  0.00    +0.000 A 
ATOM      3  N   UNL     1       3.196   4.444  19.980  0.00  0.00    +0.000 NA
ATOM      4  N   UNL     1       3.884   4.452  18.809  0.00  0.00    +0.000 NA
ATOM      5  C   UNL     1       3.829   5.534  18.000  0.00  0.00    +0.000 A 
ATOM      6  N   UNL     1       4.522   5.571  16.795  0.00  0.00    +0.000 N 
ATOM      7  N   UNL     1       3.129   6.633  18.293  0.00  0.00    +0.000 NA
ATOM      8  H   UNL     1       4.605   6.548  16.541  0.00  0.00    +0.000 HD
ENDROOT
BRANCH   1  11
ATOM      9  C   UNL     1       1.078  10.181  19.189  0.00  0.00    +0.000 A 
ATOM     10  C   UNL     1       1.880   9.040  18.991  0.00  0.00    +0.000 A 
ATOM     11  C   UNL     1       1.777   7.908  19.807  0.00  0.00    +0.000 A 
ATOM     12  C   UNL     1       0.931   8.012  20.916  0.00  0.00    +0.000 A 
ATOM     13  C   UNL     1       0.194   9.178  21.204  0.00  0.00    +0.000 A 
ATOM     14  C   UNL     1       0.253  10.283  20.327  0.00  0.00    +0.000 A 
BRANCH   9  16
ATOM     15  C   UNL     1       2.081  12.230  18.544  0.00  0.00    +0.000 C 
ATOM     16  O   UNL     1       1.125  11.201  18.272  0.00  0.00    +0.000 OA
ENDBRANCH   9  16
BRANCH  13  17
ATOM     17  O   UNL     1      -0.540   9.029  22.354  0.00  0.00    +0.000 OA
ATOM     18  C   UNL     1      -0.042   9.540  23.581  0.00  0.00    +0.000 C 
ENDBRANCH  13  17
BRANCH  14  19
ATOM     19  O   UNL     1      -0.508  11.364  20.675  0.00  0.00    +0.000 OA
ATOM     20  C   UNL     1      -1.713  11.666  19.996  0.00  0.00    +0.000 C 
ENDBRANCH  14  19
ENDBRANCH   1  11
BRANCH   6  21
ATOM     21  C   UNL     1       5.775   4.835  16.796  0.00  0.00    +0.000 C 
BRANCH  21  22
ATOM     22  C   UNL     1       6.366   4.728  15.438  0.00  0.00    +0.000 A 
ATOM     23  C   UNL     1       6.068   3.968  14.334  0.00  0.00    +0.000 A 
ATOM     24  C   UNL     1       6.990   4.397  13.356  0.00  0.00    +0.000 A 
ATOM     25  C   UNL     1       7.111   3.947  11.953  0.00  0.00    +0.000 C 
ATOM     26  N   UNL     1       7.810   5.338  13.841  0.00  0.00    +0.000 NA
ATOM     27  O   UNL     1       7.413   5.545  15.151  0.00  0.00    +0.000 OA
ENDBRANCH  21  22
ENDBRANCH   6  21
TORSDOF 6
ENDMDL
MODEL 6
REMARK VINA RESULT:      -7.3      3.254      4.044
REMARK  Name = 
REMARK  10 active torsions:
REMARK  status: ('A' for Active; 'I' for Inactive)
REMARK    1  A    between atoms: C_1  and  O_2
REMARK    2  A    between atoms: O_2  and  C_3
REMARK    3  A    between atoms: C_5  and  C_6
REMARK    4  A    between atoms: N_11  and  C_12
REMARK    5  A    between atoms: C_12  and  C_13
REMARK    6  A    between atoms: C_15  and  C_16
REMARK    7  A    between atoms: C_21  and  O_22
REMARK    8  A    between atoms: O_22  and  C_23
REMARK    9  A    between atoms: C_24  and  O_25
REMARK   10  A    between atoms: O_25  and  C_26
REMARK                            x       y       z     vdW  Elec       q    Type
REMARK                         _______ _______ _______ _____ _____    ______ ____
ROOT
ATOM      1  C   UNL     1       2.435   7.468  18.700  0.00  0.00    +0.000 A 
ATOM      2  C   UNL     1       2.578   8.330  17.631  0.00  0.00    +0.000 A 
ATOM      3  N   UNL     1       2.046   9.561  17.652  0.00  0.00    +0.000 NA
ATOM      4  N   UNL     1       1.358   9.938  18.761  0.00  0.00    +0.000 NA
ATOM      5  C   UNL     1       1.220   9.077  19.795  0.00  0.00    +0.000 A 
ATOM      6  N   UNL     1       0.521   9.433  20.943  0.00  0.00    +0.000 N 
ATOM      7  N   UNL     1       1.741   7.848  19.799  0.00  0.00    +0.000 NA
ATOM      8  H   UNL     1       0.824   8.799  21.672  0.00  0.00    +0.000 HD
ENDROOT
BRANCH   1  11
ATOM      9  C   UNL     1       5.119   4.791  19.086  0.00  0.00    +0.000 A 
ATOM     10  C   UNL     1       4.484   6.013  18.787  0.00  0.00    +0.000 A 
ATOM     11  C   UNL     1       3.092   6.146  18.786  0.00  0.00    +0.000 A 
ATOM     12  C   UNL     1       2.351   4.973  18.966  0.00  0.00    +0.000 A 
ATOM     13  C   UNL     1       2.955   3.716  19.162  0.00  0.00    +0.000 A 
ATOM     14  C   UNL     1       4.362   3.613  19.235  0.00  0.00    +0.000 A 
BRANCH   9  16
ATOM     15  C   UNL     1       7.216   4.807  17.981  0.00  0.00    +0.000 C 
ATOM     16  O   UNL     1       6.485   4.759  19.210  0.00  0.00    +0.000 OA
ENDBRANCH   9  16
BRANCH  13  17
ATOM     17  O   UNL     1       2.011   2.728  19.293  0.00  0.00    +0.000 OA
ATOM     18  C   UNL     1       0.790   3.003  19.962  0.00  0.00    +0.000 C 
ENDBRANCH  13  17
BRANCH  14  19
ATOM     19  O   UNL     1       4.860   2.357  19.446  0.00  0.00    +0.000 OA
ATOM     20  C   UNL     1       4.846   1.766  20.733  0.00  0.00    +0.000 C 
ENDBRANCH  14  19
ENDBRANCH   1  11
BRANCH   6  21
ATOM     21  C   UNL     1       0.607  10.842  21.289  0.00  0.00    +0.000 C 
BRANCH  21  22
ATOM     22  C   UNL     1      -0.685  11.378  21.791  0.00  0.00    +0.000 A 
ATOM     23  C   UNL     1      -1.276  11.415  23.029  0.00  0.00    +0.000 A 
ATOM     24  C   UNL     1      -2.481  12.117  22.819  0.00  0.00    +0.000 A 
ATOM     25  C   UNL     1      -3.508  12.488  23.816  0.00  0.00    +0.000 C 
ATOM     26  N   UNL     1      -2.626  12.462  21.534  0.00  0.00    +0.000 NA
ATOM     27  O   UNL     1      -1.492  11.996  20.890  0.00  0.00    +0.000 OA
ENDBRANCH  21  22
ENDBRANCH   6  21
TORSDOF 6
ENDMDL
MODEL 7
REMARK VINA RESULT:      -7.3      1.886      3.442
REMARK  Name = 
REMARK  10 active torsions:
REMARK  status: ('A' for Active; 'I' for Inactive)
REMARK    1  A    between atoms: C_1  and  O_2
REMARK    2  A    between atoms: O_2  and  C_3
REMARK    3  A    between atoms: C_5  and  C_6
REMARK    4  A    between atoms: N_11  and  C_12
REMARK    5  A    between atoms: C_12  and  C_13
REMARK    6  A    between atoms: C_15  and  C_16
REMARK    7  A    between atoms: C_21  and  O_22
REMARK    8  A    between atoms: O_22  and  C_23
REMARK    9  A    between atoms: C_24  and  O_25
REMARK   10  A    between atoms: O_25  and  C_26
REMARK                            x       y       z     vdW  Elec       q    Type
REMARK                         _______ _______ _______ _____ _____    ______ ____
ROOT
ATOM      1  C   UNL     1       1.536   8.435  20.722  0.00  0.00    +0.000 A 
ATOM      2  C   UNL     1       1.428   8.695  22.074  0.00  0.00    +0.000 A 
ATOM      3  N   UNL     1       0.973   9.874  22.524  0.00  0.00    +0.000 NA
ATOM      4  N   UNL     1       0.620  10.811  21.606  0.00  0.00    +0.000 NA
ATOM      5  C   UNL     1       0.742  10.544  20.286  0.00  0.00    +0.000 A 
ATOM      6  N   UNL     1       0.389  11.483  19.324  0.00  0.00    +0.000 N 
ATOM      7  N   UNL     1       1.189   9.378  19.813  0.00  0.00    +0.000 NA
ATOM      8  H   UNL     1       0.247  10.971  18.462  0.00  0.00    +0.000 HD
ENDROOT
BRANCH   1  11
ATOM      9  C   UNL     1       1.630   4.684  20.061  0.00  0.00    +0.000 A 
ATOM     10  C   UNL     1       1.453   5.922  20.710  0.00  0.00    +0.000 A 
ATOM     11  C   UNL     1       1.919   7.121  20.162  0.00  0.00    +0.000 A 
ATOM     12  C   UNL     1       2.692   7.020  19.000  0.00  0.00    +0.000 A 
ATOM     13  C   UNL     1       2.978   5.786  18.384  0.00  0.00    +0.000 A 
ATOM     14  C   UNL     1       2.436   4.593  18.909  0.00  0.00    +0.000 A 
BRANCH   9  16
ATOM     15  C   UNL     1       1.746   2.905  21.624  0.00  0.00    +0.000 C 
ATOM     16  O   UNL     1       1.028   3.565  20.578  0.00  0.00    +0.000 OA
ENDBRANCH   9  16
BRANCH  13  17
ATOM     17  O   UNL     1       3.767   5.958  17.274  0.00  0.00    +0.000 OA
ATOM     18  C   UNL     1       5.126   6.343  17.426  0.00  0.00    +0.000 C 
ENDBRANCH  13  17
BRANCH  14  19
ATOM     19  O   UNL     1       2.751   3.446  18.236  0.00  0.00    +0.000 OA
ATOM     20  C   UNL     1       3.887   2.676  18.582  0.00  0.00    +0.000 C 
ENDBRANCH  14  19
ENDBRANCH   1  11
BRANCH   6  21
ATOM     21  C   UNL     1      -0.712  12.352  19.703  0.00  0.00    +0.000 C 
BRANCH  21  22
ATOM     22  C   UNL     1      -1.945  12.071  18.925  0.00  0.00    +0.000 A 
ATOM     23  C   UNL     1      -2.177  11.612  17.652  0.00  0.00    +0.000 A 
ATOM     24  C   UNL     1      -3.581  11.521  17.564  0.00  0.00    +0.000 A 
ATOM     25  C   UNL     1      -4.397  11.046  16.426  0.00  0.00    +0.000 C 
ATOM     26  N   UNL     1      -4.167  11.921  18.699  0.00  0.00    +0.000 NA
ATOM     27  O   UNL     1      -3.134  12.264  19.555  0.00  0.00    +0.000 OA
ENDBRANCH  21  22
ENDBRANCH   6  21
TORSDOF 6
ENDMDL
MODEL 8
REMARK VINA RESULT:      -7.2      2.999      4.590
REMARK  Name = 
REMARK  10 active torsions:
REMARK  status: ('A' for Active; 'I' for Inactive)
REMARK    1  A    between atoms: C_1  and  O_2
REMARK    2  A    between atoms: O_2  and  C_3
REMARK    3  A    between atoms: C_5  and  C_6
REMARK    4  A    between atoms: N_11  and  C_12
REMARK    5  A    between atoms: C_12  and  C_13
REMARK    6  A    between atoms: C_15  and  C_16
REMARK    7  A    between atoms: C_21  and  O_22
REMARK    8  A    between atoms: O_22  and  C_23
REMARK    9  A    between atoms: C_24  and  O_25
REMARK   10  A    between atoms: O_25  and  C_26
REMARK                            x       y       z     vdW  Elec       q    Type
REMARK                         _______ _______ _______ _____ _____    ______ ____
ROOT
ATOM      1  C   UNL     1       2.224   7.786  18.816  0.00  0.00    +0.000 A 
ATOM      2  C   UNL     1       2.519   8.663  17.791  0.00  0.00    +0.000 A 
ATOM      3  N   UNL     1       2.014   9.906  17.769  0.00  0.00    +0.000 NA
ATOM      4  N   UNL     1       1.201  10.279  18.790  0.00  0.00    +0.000 NA
ATOM      5  C   UNL     1       0.915   9.405  19.781  0.00  0.00    +0.000 A 
ATOM      6  N   UNL     1       0.086   9.758  20.840  0.00  0.00    +0.000 N 
ATOM      7  N   UNL     1       1.406   8.164  19.827  0.00  0.00    +0.000 NA
ATOM      8  H   UNL     1       0.280   9.105  21.588  0.00  0.00    +0.000 HD
ENDROOT
BRANCH   1  11
ATOM      9  C   UNL     1       2.984   4.286  20.114  0.00  0.00    +0.000 A 
ATOM     10  C   UNL     1       2.587   5.636  20.069  0.00  0.00    +0.000 A 
ATOM     11  C   UNL     1       2.837   6.448  18.958  0.00  0.00    +0.000 A 
ATOM     12  C   UNL     1       3.622   5.893  17.942  0.00  0.00    +0.000 A 
ATOM     13  C   UNL     1       4.126   4.579  18.004  0.00  0.00    +0.000 A 
ATOM     14  C   UNL     1       3.800   3.749  19.098  0.00  0.00    +0.000 A 
BRANCH   9  16
ATOM     15  C   UNL     1       1.268   2.957  21.068  0.00  0.00    +0.000 C 
ATOM     16  O   UNL     1       2.586   3.505  21.170  0.00  0.00    +0.000 OA
ENDBRANCH   9  16
BRANCH  13  17
ATOM     17  O   UNL     1       4.879   4.285  16.894  0.00  0.00    +0.000 OA
ATOM     18  C   UNL     1       5.943   5.145  16.515  0.00  0.00    +0.000 C 
ENDBRANCH  13  17
BRANCH  14  19
ATOM     19  O   UNL     1       4.317   2.484  19.066  0.00  0.00    +0.000 OA
ATOM     20  C   UNL     1       3.596   1.408  18.494  0.00  0.00    +0.000 C 
ENDBRANCH  14  19
ENDBRANCH   1  11
BRANCH   6  21
ATOM     21  C   UNL     1       0.157  11.158  21.221  0.00  0.00    +0.000 C 
BRANCH  21  22
ATOM     22  C   UNL     1      -1.107  11.639  21.836  0.00  0.00    +0.000 A 
ATOM     23  C   UNL     1      -1.574  11.683  23.127  0.00  0.00    +0.000 A 
ATOM     24  C   UNL     1      -2.832  12.312  23.021  0.00  0.00    +0.000 A 
ATOM     25  C   UNL     1      -3.775  12.658  24.106  0.00  0.00    +0.000 C 
ATOM     26  N   UNL     1      -3.122  12.609  21.748  0.00  0.00    +0.000 NA
ATOM     27  O   UNL     1      -2.033  12.185  21.005  0.00  0.00    +0.000 OA
ENDBRANCH  21  22
ENDBRANCH   6  21
TORSDOF 6
ENDMDL
MODEL 9
REMARK VINA RESULT:      -7.2      3.505      8.545
REMARK  Name = 
REMARK  10 active torsions:
REMARK  status: ('A' for Active; 'I' for Inactive)
REMARK    1  A    between atoms: C_1  and  O_2
REMARK    2  A    between atoms: O_2  and  C_3
REMARK    3  A    between atoms: C_5  and  C_6
REMARK    4  A    between atoms: N_11  and  C_12
REMARK    5  A    between atoms: C_12  and  C_13
REMARK    6  A    between atoms: C_15  and  C_16
REMARK    7  A    between atoms: C_21  and  O_22
REMARK    8  A    between atoms: O_22  and  C_23
REMARK    9  A    between atoms: C_24  and  O_25
REMARK   10  A    between atoms: O_25  and  C_26
REMARK                            x       y       z     vdW  Elec       q    Type
REMARK                         _______ _______ _______ _____ _____    ______ ____
ROOT
ATOM      1  C   UNL     1       2.074   7.697  19.355  0.00  0.00    +0.000 A 
ATOM      2  C   UNL     1       1.995   6.560  20.133  0.00  0.00    +0.000 A 
ATOM      3  N   UNL     1       2.737   5.475  19.861  0.00  0.00    +0.000 NA
ATOM      4  N   UNL     1       3.572   5.529  18.792  0.00  0.00    +0.000 NA
ATOM      5  C   UNL     1       3.630   6.647  18.034  0.00  0.00    +0.000 A 
ATOM      6  N   UNL     1       4.475   6.731  16.934  0.00  0.00    +0.000 N 
ATOM      7  N   UNL     1       2.905   7.740  18.285  0.00  0.00    +0.000 NA
ATOM      8  H   UNL     1       4.596   7.717  16.739  0.00  0.00    +0.000 HD
ENDROOT
BRANCH   1  11
ATOM      9  C   UNL     1       0.137  10.375  21.250  0.00  0.00    +0.000 A 
ATOM     10  C   UNL     1       0.624   9.119  20.838  0.00  0.00    +0.000 A 
ATOM     11  C   UNL     1       1.373   8.961  19.667  0.00  0.00    +0.000 A 
ATOM     12  C   UNL     1       1.504  10.089  18.850  0.00  0.00    +0.000 A 
ATOM     13  C   UNL     1       0.938  11.336  19.182  0.00  0.00    +0.000 A 
ATOM     14  C   UNL     1       0.249  11.496  20.404  0.00  0.00    +0.000 A 
BRANCH   9  16
ATOM     15  C   UNL     1      -0.135   9.470  23.424  0.00  0.00    +0.000 C 
ATOM     16  O   UNL     1      -0.468  10.488  22.477  0.00  0.00    +0.000 OA
ENDBRANCH   9  16
BRANCH  13  17
ATOM     17  O   UNL     1       1.194  12.270  18.209  0.00  0.00    +0.000 OA
ATOM     18  C   UNL     1       2.458  12.915  18.165  0.00  0.00    +0.000 C 
ENDBRANCH  13  17
BRANCH  14  19
ATOM     19  O   UNL     1      -0.250  12.744  20.651  0.00  0.00    +0.000 OA
ATOM     20  C   UNL     1       0.513  13.722  21.332  0.00  0.00    +0.000 C 
ENDBRANCH  14  19
ENDBRANCH   1  11
BRANCH   6  21
ATOM     21  C   UNL     1       5.712   5.980  17.064  0.00  0.00    +0.000 C 
BRANCH  21  22
ATOM     22  C   UNL     1       6.142   5.376  15.776  0.00  0.00    +0.000 A 
ATOM     23  C   UNL     1       5.569   4.468  14.920  0.00  0.00    +0.000 A 
ATOM     24  C   UNL     1       6.486   4.370  13.852  0.00  0.00    +0.000 A 
ATOM     25  C   UNL     1       6.370   3.562  12.619  0.00  0.00    +0.000 C 
ATOM     26  N   UNL     1       7.556   5.148  14.057  0.00  0.00    +0.000 NA
ATOM     27  O   UNL     1       7.336   5.780  15.269  0.00  0.00    +0.000 OA
ENDBRANCH  21  22
ENDBRANCH   6  21
TORSDOF 6
ENDMDL
