MODEL 1
REMARK VINA RESULT:      -7.0      0.000      0.000
REMARK  Name = 
REMARK  8 active torsions:
REMARK  status: ('A' for Active; 'I' for Inactive)
REMARK    1  A    between atoms: O_1  and  C_2
REMARK    2  A    between atoms: C_2  and  C_3
REMARK    3  A    between atoms: C_5  and  O_6
REMARK    4  A    between atoms: O_6  and  C_7
REMARK    5  A    between atoms: C_12  and  O_13
REMARK    6  A    between atoms: C_14  and  O_15
REMARK    7  A    between atoms: C_16  and  O_17
REMARK    8  A    between atoms: C_18  and  O_19
REMARK                            x       y       z     vdW  Elec       q    Type
REMARK                         _______ _______ _______ _____ _____    ______ ____
ROOT
ATOM      1  C   UNL     1       2.788   5.266  19.483  0.00  0.00    +0.000 C 
ATOM      2  O   UNL     1       4.217   5.288  19.433  0.00  0.00    +0.000 OA
ATOM      3  C   UNL     1       4.773   4.004  19.138  0.00  0.00    +0.000 C 
ATOM      4  C   UNL     1       4.459   3.036  20.307  0.00  0.00    +0.000 C 
ATOM      5  C   UNL     1       2.938   3.020  20.576  0.00  0.00    +0.000 C 
ATOM      6  C   UNL     1       2.351   4.438  20.694  0.00  0.00    +0.000 C 
ENDROOT
BRANCH   4   7
ATOM      7  O   UNL     1       4.912   1.699  20.049  0.00  0.00    +0.000 OA
ATOM      8  H   UNL     1       5.048   1.588  19.089  0.00  0.00    +0.000 HD
ENDBRANCH   4   7
BRANCH   5   9
ATOM      9  O   UNL     1       2.611   2.259  21.750  0.00  0.00    +0.000 OA
ATOM     10  H   UNL     1       3.418   1.806  22.051  0.00  0.00    +0.000 HD
ENDBRANCH   5   9
BRANCH   6  11
ATOM     11  O   UNL     1       0.925   4.413  20.787  0.00  0.00    +0.000 OA
ATOM     12  H   UNL     1       0.607   3.539  20.500  0.00  0.00    +0.000 HD
ENDBRANCH   6  11
BRANCH   1  13
ATOM     13  C   UNL     1       2.274   6.707  19.558  0.00  0.00    +0.000 C 
BRANCH  13  14
ATOM     14  O   UNL     1       2.077   7.066  20.929  0.00  0.00    +0.000 OA
ATOM     15  H   UNL     1       2.885   7.523  21.219  0.00  0.00    +0.000 HD
ENDBRANCH  13  14
ENDBRANCH   1  13
BRANCH   3  16
ATOM     16  O   UNL     1       6.191   4.086  18.972  0.00  0.00    +0.000 OA
BRANCH  16  17
ATOM     17  C   UNL     1       6.708   5.242  18.442  0.00  0.00    +0.000 A 
ATOM     18  C   UNL     1       6.367   5.790  17.201  0.00  0.00    +0.000 A 
ATOM     19  C   UNL     1       6.937   6.992  16.769  0.00  0.00    +0.000 A 
ATOM     20  C   UNL     1       7.858   7.660  17.574  0.00  0.00    +0.000 A 
ATOM     21  C   UNL     1       8.217   7.125  18.807  0.00  0.00    +0.000 A 
ATOM     22  C   UNL     1       7.646   5.922  19.234  0.00  0.00    +0.000 A 
BRANCH  22  23
ATOM     23  O   UNL     1       8.003   5.396  20.447  0.00  0.00    +0.000 OA
ATOM     24  H   UNL     1       8.506   4.581  20.301  0.00  0.00    +0.000 HD
ENDBRANCH  22  23
ENDBRANCH  16  17
ENDBRANCH   3  16
TORSDOF 8
ENDMDL
MODEL 2
REMARK VINA RESULT:      -6.9      1.575      2.293
REMARK  Name = 
REMARK  8 active torsions:
REMARK  status: ('A' for Active; 'I' for Inactive)
REMARK    1  A    between atoms: O_1  and  C_2
REMARK    2  A    between atoms: C_2  and  C_3
REMARK    3  A    between atoms: C_5  and  O_6
REMARK    4  A    between atoms: O_6  and  C_7
REMARK    5  A    between atoms: C_12  and  O_13
REMARK    6  A    between atoms: C_14  and  O_15
REMARK    7  A    between atoms: C_16  and  O_17
REMARK    8  A    between atoms: C_18  and  O_19
REMARK                            x       y       z     vdW  Elec       q    Type
REMARK                         _______ _______ _______ _____ _____    ______ ____
ROOT
ATOM      1  C   UNL     1       2.582   3.882  20.312  0.00  0.00    +0.000 C 
ATOM      2  O   UNL     1       4.011   3.853  20.265  0.00  0.00    +0.000 OA
ATOM      3  C   UNL     1       4.521   4.172  18.968  0.00  0.00    +0.000 C 
ATOM      4  C   UNL     1       4.095   3.065  17.971  0.00  0.00    +0.000 C 
ATOM      5  C   UNL     1       2.562   2.880  18.019  0.00  0.00    +0.000 C 
ATOM      6  C   UNL     1       2.039   2.733  19.459  0.00  0.00    +0.000 C 
ENDROOT
BRANCH   4   7
ATOM      7  O   UNL     1       4.498   3.355  16.623  0.00  0.00    +0.000 OA
ATOM      8  H   UNL     1       4.896   2.555  16.231  0.00  0.00    +0.000 HD
ENDBRANCH   4   7
BRANCH   5   9
ATOM      9  O   UNL     1       2.134   1.759  17.229  0.00  0.00    +0.000 OA
ATOM     10  H   UNL     1       2.016   0.997  17.824  0.00  0.00    +0.000 HD
ENDBRANCH   5   9
BRANCH   6  11
ATOM     11  O   UNL     1       0.610   2.718  19.501  0.00  0.00    +0.000 OA
ATOM     12  H   UNL     1       0.321   2.860  20.420  0.00  0.00    +0.000 HD
ENDBRANCH   6  11
BRANCH   1  13
ATOM     13  C   UNL     1       2.134   3.772  21.773  0.00  0.00    +0.000 C 
BRANCH  13  14
ATOM     14  O   UNL     1       1.888   2.398  22.089  0.00  0.00    +0.000 OA
ATOM     15  H   UNL     1       2.676   2.074  22.559  0.00  0.00    +0.000 HD
ENDBRANCH  13  14
ENDBRANCH   1  13
BRANCH   3  16
ATOM     16  O   UNL     1       5.948   4.258  18.986  0.00  0.00    +0.000 OA
BRANCH  16  17
ATOM     17  C   UNL     1       6.526   5.408  18.510  0.00  0.00    +0.000 A 
ATOM     18  C   UNL     1       6.109   6.120  17.381  0.00  0.00    +0.000 A 
ATOM     19  C   UNL     1       6.756   7.300  17.000  0.00  0.00    +0.000 A 
ATOM     20  C   UNL     1       7.831   7.781  17.744  0.00  0.00    +0.000 A 
ATOM     21  C   UNL     1       8.267   7.081  18.865  0.00  0.00    +0.000 A 
ATOM     22  C   UNL     1       7.618   5.900  19.241  0.00  0.00    +0.000 A 
BRANCH  22  23
ATOM     23  O   UNL     1       8.051   5.212  20.343  0.00  0.00    +0.000 OA
ATOM     24  H   UNL     1       9.015   5.125  20.301  0.00  0.00    +0.000 HD
ENDBRANCH  22  23
ENDBRANCH  16  17
ENDBRANCH   3  16
TORSDOF 8
ENDMDL
MODEL 3
REMARK VINA RESULT:      -6.7      2.501      6.069
REMARK  Name = 
REMARK  8 active torsions:
REMARK  status: ('A' for Active; 'I' for Inactive)
REMARK    1  A    between atoms: O_1  and  C_2
REMARK    2  A    between atoms: C_2  and  C_3
REMARK    3  A    between atoms: C_5  and  O_6
REMARK    4  A    between atoms: O_6  and  C_7
REMARK    5  A    between atoms: C_12  and  O_13
REMARK    6  A    between atoms: C_14  and  O_15
REMARK    7  A    between atoms: C_16  and  O_17
REMARK    8  A    between atoms: C_18  and  O_19
REMARK                            x       y       z     vdW  Elec       q    Type
REMARK                         _______ _______ _______ _____ _____    ______ ____
ROOT
ATOM      1  C   UNL     1       5.428   4.475  15.267  0.00  0.00    +0.000 C 
ATOM      2  O   UNL     1       4.883   3.376  16.003  0.00  0.00    +0.000 OA
ATOM      3  C   UNL     1       4.632   3.707  17.371  0.00  0.00    +0.000 C 
ATOM      4  C   UNL     1       5.981   3.993  18.078  0.00  0.00    +0.000 C 
ATOM      5  C   UNL     1       6.759   5.077  17.299  0.00  0.00    +0.000 C 
ATOM      6  C   UNL     1       6.835   4.769  15.793  0.00  0.00    +0.000 C 
ENDROOT
BRANCH   4   7
ATOM      7  O   UNL     1       5.809   4.416  19.439  0.00  0.00    +0.000 OA
ATOM      8  H   UNL     1       5.862   5.390  19.479  0.00  0.00    +0.000 HD
ENDBRANCH   4   7
BRANCH   5   9
ATOM      9  O   UNL     1       8.083   5.265  17.824  0.00  0.00    +0.000 OA
ATOM     10  H   UNL     1       8.089   4.955  18.747  0.00  0.00    +0.000 HD
ENDBRANCH   5   9
BRANCH   6  11
ATOM     11  O   UNL     1       7.420   5.850  15.063  0.00  0.00    +0.000 OA
ATOM     12  H   UNL     1       7.027   5.877  14.172  0.00  0.00    +0.000 HD
ENDBRANCH   6  11
BRANCH   1  13
ATOM     13  C   UNL     1       5.436   4.116  13.778  0.00  0.00    +0.000 C 
BRANCH  13  14
ATOM     14  O   UNL     1       6.577   3.299  13.496  0.00  0.00    +0.000 OA
ATOM     15  H   UNL     1       7.169   3.828  12.934  0.00  0.00    +0.000 HD
ENDBRANCH  13  14
ENDBRANCH   1  13
BRANCH   3  16
ATOM     16  O   UNL     1       3.973   2.632  18.045  0.00  0.00    +0.000 OA
BRANCH  16  17
ATOM     17  C   UNL     1       3.067   2.950  19.025  0.00  0.00    +0.000 A 
ATOM     18  C   UNL     1       1.836   3.582  18.819  0.00  0.00    +0.000 A 
ATOM     19  C   UNL     1       0.974   3.834  19.892  0.00  0.00    +0.000 A 
ATOM     20  C   UNL     1       1.334   3.459  21.184  0.00  0.00    +0.000 A 
ATOM     21  C   UNL     1       2.560   2.838  21.409  0.00  0.00    +0.000 A 
ATOM     22  C   UNL     1       3.419   2.590  20.335  0.00  0.00    +0.000 A 
BRANCH  22  23
ATOM     23  O   UNL     1       4.625   1.981  20.560  0.00  0.00    +0.000 OA
ATOM     24  H   UNL     1       5.286   2.362  19.963  0.00  0.00    +0.000 HD
ENDBRANCH  22  23
ENDBRANCH  16  17
ENDBRANCH   3  16
TORSDOF 8
ENDMDL
MODEL 4
REMARK VINA RESULT:      -6.7      3.582      5.011
REMARK  Name = 
REMARK  8 active torsions:
REMARK  status: ('A' for Active; 'I' for Inactive)
REMARK    1  A    between atoms: O_1  and  C_2
REMARK    2  A    between atoms: C_2  and  C_3
REMARK    3  A    between atoms: C_5  and  O_6
REMARK    4  A    between atoms: O_6  and  C_7
REMARK    5  A    between atoms: C_12  and  O_13
REMARK    6  A    between atoms: C_14  and  O_15
REMARK    7  A    between atoms: C_16  and  O_17
REMARK    8  A    between atoms: C_18  and  O_19
REMARK                            x       y       z     vdW  Elec       q    Type
REMARK                         _______ _______ _______ _____ _____    ______ ____
ROOT
ATOM      1  C   UNL     1       4.004   3.115  17.748  0.00  0.00    +0.000 C 
ATOM      2  O   UNL     1       4.064   4.003  16.629  0.00  0.00    +0.000 OA
ATOM      3  C   UNL     1       5.407   4.315  16.252  0.00  0.00    +0.000 C 
ATOM      4  C   UNL     1       6.081   5.114  17.396  0.00  0.00    +0.000 C 
ATOM      5  C   UNL     1       5.963   4.329  18.721  0.00  0.00    +0.000 C 
ATOM      6  C   UNL     1       4.525   3.848  18.986  0.00  0.00    +0.000 C 
ENDROOT
BRANCH   4   7
ATOM      7  O   UNL     1       7.464   5.394  17.130  0.00  0.00    +0.000 OA
ATOM      8  H   UNL     1       7.698   6.252  17.533  0.00  0.00    +0.000 HD
ENDBRANCH   4   7
BRANCH   5   9
ATOM      9  O   UNL     1       6.432   5.097  19.840  0.00  0.00    +0.000 OA
ATOM     10  H   UNL     1       5.782   5.013  20.559  0.00  0.00    +0.000 HD
ENDBRANCH   5   9
BRANCH   6  11
ATOM     11  O   UNL     1       4.458   2.994  20.131  0.00  0.00    +0.000 OA
ATOM     12  H   UNL     1       5.088   2.261  20.013  0.00  0.00    +0.000 HD
ENDBRANCH   6  11
BRANCH   1  13
ATOM     13  C   UNL     1       2.557   2.645  17.927  0.00  0.00    +0.000 C 
BRANCH  13  14
ATOM     14  O   UNL     1       2.553   1.359  18.556  0.00  0.00    +0.000 OA
ATOM     15  H   UNL     1       1.815   0.859  18.167  0.00  0.00    +0.000 HD
ENDBRANCH  13  14
ENDBRANCH   1  13
BRANCH   3  16
ATOM     16  O   UNL     1       5.435   5.100  15.057  0.00  0.00    +0.000 OA
BRANCH  16  17
ATOM     17  C   UNL     1       5.833   4.487  13.896  0.00  0.00    +0.000 A 
ATOM     18  C   UNL     1       5.052   3.617  13.128  0.00  0.00    +0.000 A 
ATOM     19  C   UNL     1       5.550   3.068  11.942  0.00  0.00    +0.000 A 
ATOM     20  C   UNL     1       6.837   3.380  11.511  0.00  0.00    +0.000 A 
ATOM     21  C   UNL     1       7.633   4.235  12.268  0.00  0.00    +0.000 A 
ATOM     22  C   UNL     1       7.132   4.781  13.454  0.00  0.00    +0.000 A 
BRANCH  22  23
ATOM     23  O   UNL     1       7.918   5.620  14.197  0.00  0.00    +0.000 OA
ATOM     24  H   UNL     1       7.596   5.625  15.111  0.00  0.00    +0.000 HD
ENDBRANCH  22  23
ENDBRANCH  16  17
ENDBRANCH   3  16
TORSDOF 8
ENDMDL
MODEL 5
REMARK VINA RESULT:      -6.6      2.118      5.892
REMARK  Name = 
REMARK  8 active torsions:
REMARK  status: ('A' for Active; 'I' for Inactive)
REMARK    1  A    between atoms: O_1  and  C_2
REMARK    2  A    between atoms: C_2  and  C_3
REMARK    3  A    between atoms: C_5  and  O_6
REMARK    4  A    between atoms: O_6  and  C_7
REMARK    5  A    between atoms: C_12  and  O_13
REMARK    6  A    between atoms: C_14  and  O_15
REMARK    7  A    between atoms: C_16  and  O_17
REMARK    8  A    between atoms: C_18  and  O_19
REMARK                            x       y       z     vdW  Elec       q    Type
REMARK                         _______ _______ _______ _____ _____    ______ ____
ROOT
ATOM      1  C   UNL     1       5.964   5.407  16.032  0.00  0.00    +0.000 C 
ATOM      2  O   UNL     1       5.445   4.171  16.531  0.00  0.00    +0.000 OA
ATOM      3  C   UNL     1       4.931   4.292  17.859  0.00  0.00    +0.000 C 
ATOM      4  C   UNL     1       6.096   4.623  18.826  0.00  0.00    +0.000 C 
ATOM      5  C   UNL     1       6.852   5.874  18.324  0.00  0.00    +0.000 C 
ATOM      6  C   UNL     1       7.216   5.774  16.832  0.00  0.00    +0.000 C 
ENDROOT
BRANCH   4   7
ATOM      7  O   UNL     1       5.648   4.845  20.172  0.00  0.00    +0.000 OA
ATOM      8  H   UNL     1       4.737   4.507  20.263  0.00  0.00    +0.000 HD
ENDBRANCH   4   7
BRANCH   5   9
ATOM      9  O   UNL     1       8.035   6.128  19.097  0.00  0.00    +0.000 OA
ATOM     10  H   UNL     1       8.139   5.404  19.740  0.00  0.00    +0.000 HD
ENDBRANCH   5   9
BRANCH   6  11
ATOM     11  O   UNL     1       7.774   6.996  16.343  0.00  0.00    +0.000 OA
ATOM     12  H   UNL     1       8.318   7.396  17.045  0.00  0.00    +0.000 HD
ENDBRANCH   6  11
BRANCH   1  13
ATOM     13  C   UNL     1       6.265   5.248  14.538  0.00  0.00    +0.000 C 
BRANCH  13  14
ATOM     14  O   UNL     1       7.682   5.276  14.337  0.00  0.00    +0.000 OA
ATOM     15  H   UNL     1       8.070   4.680  15.001  0.00  0.00    +0.000 HD
ENDBRANCH  13  14
ENDBRANCH   1  13
BRANCH   3  16
ATOM     16  O   UNL     1       4.308   3.076  18.280  0.00  0.00    +0.000 OA
BRANCH  16  17
ATOM     17  C   UNL     1       3.275   3.163  19.180  0.00  0.00    +0.000 A 
ATOM     18  C   UNL     1       2.043   3.781  18.943  0.00  0.00    +0.000 A 
ATOM     19  C   UNL     1       1.046   3.787  19.924  0.00  0.00    +0.000 A 
ATOM     20  C   UNL     1       1.271   3.177  21.156  0.00  0.00    +0.000 A 
ATOM     21  C   UNL     1       2.495   2.565  21.413  0.00  0.00    +0.000 A 
ATOM     22  C   UNL     1       3.489   2.563  20.430  0.00  0.00    +0.000 A 
BRANCH  22  23
ATOM     23  O   UNL     1       4.693   1.963  20.687  0.00  0.00    +0.000 OA
ATOM     24  H   UNL     1       4.649   1.037  20.405  0.00  0.00    +0.000 HD
ENDBRANCH  22  23
ENDBRANCH  16  17
ENDBRANCH   3  16
TORSDOF 8
ENDMDL
MODEL 6
REMARK VINA RESULT:      -6.6      2.757      6.282
REMARK  Name = 
REMARK  8 active torsions:
REMARK  status: ('A' for Active; 'I' for Inactive)
REMARK    1  A    between atoms: O_1  and  C_2
REMARK    2  A    between atoms: C_2  and  C_3
REMARK    3  A    between atoms: C_5  and  O_6
REMARK    4  A    between atoms: O_6  and  C_7
REMARK    5  A    between atoms: C_12  and  O_13
REMARK    6  A    between atoms: C_14  and  O_15
REMARK    7  A    between atoms: C_16  and  O_17
REMARK    8  A    between atoms: C_18  and  O_19
REMARK                            x       y       z     vdW  Elec       q    Type
REMARK                         _______ _______ _______ _____ _____    ______ ____
ROOT
ATOM      1  C   UNL     1       5.537   4.574  15.012  0.00  0.00    +0.000 C 
ATOM      2  O   UNL     1       4.715   3.643  15.720  0.00  0.00    +0.000 OA
ATOM      3  C   UNL     1       4.590   3.969  17.106  0.00  0.00    +0.000 C 
ATOM      4  C   UNL     1       5.975   3.831  17.786  0.00  0.00    +0.000 C 
ATOM      5  C   UNL     1       7.016   4.684  17.028  0.00  0.00    +0.000 C 
ATOM      6  C   UNL     1       6.978   4.435  15.509  0.00  0.00    +0.000 C 
ENDROOT
BRANCH   4   7
ATOM      7  O   UNL     1       5.951   4.225  19.167  0.00  0.00    +0.000 OA
ATOM      8  H   UNL     1       5.364   4.998  19.267  0.00  0.00    +0.000 HD
ENDBRANCH   4   7
BRANCH   5   9
ATOM      9  O   UNL     1       8.347   4.468  17.523  0.00  0.00    +0.000 OA
ATOM     10  H   UNL     1       8.283   3.963  18.353  0.00  0.00    +0.000 HD
ENDBRANCH   5   9
BRANCH   6  11
ATOM     11  O   UNL     1       7.833   5.339  14.806  0.00  0.00    +0.000 OA
ATOM     12  H   UNL     1       7.330   5.747  14.079  0.00  0.00    +0.000 HD
ENDBRANCH   6  11
BRANCH   1  13
ATOM     13  C   UNL     1       5.420   4.295  13.511  0.00  0.00    +0.000 C 
BRANCH  13  14
ATOM     14  O   UNL     1       6.365   3.285  13.144  0.00  0.00    +0.000 OA
ATOM     15  H   UNL     1       6.015   2.439  13.476  0.00  0.00    +0.000 HD
ENDBRANCH  13  14
ENDBRANCH   1  13
BRANCH   3  16
ATOM     16  O   UNL     1       3.664   3.095  17.756  0.00  0.00    +0.000 OA
BRANCH  16  17
ATOM     17  C   UNL     1       2.815   3.638  18.687  0.00  0.00    +0.000 A 
ATOM     18  C   UNL     1       2.801   4.978  19.089  0.00  0.00    +0.000 A 
ATOM     19  C   UNL     1       1.870   5.433  20.029  0.00  0.00    +0.000 A 
ATOM     20  C   UNL     1       0.943   4.552  20.581  0.00  0.00    +0.000 A 
ATOM     21  C   UNL     1       0.948   3.213  20.201  0.00  0.00    +0.000 A 
ATOM     22  C   UNL     1       1.882   2.762  19.262  0.00  0.00    +0.000 A 
BRANCH  22  23
ATOM     23  O   UNL     1       1.886   1.444  18.892  0.00  0.00    +0.000 OA
ATOM     24  H   UNL     1       2.748   1.059  19.108  0.00  0.00    +0.000 HD
ENDBRANCH  22  23
ENDBRANCH  16  17
ENDBRANCH   3  16
TORSDOF 8
ENDMDL
MODEL 7
REMARK VINA RESULT:      -6.6      2.947      5.004
REMARK  Name = 
REMARK  8 active torsions:
REMARK  status: ('A' for Active; 'I' for Inactive)
REMARK    1  A    between atoms: O_1  and  C_2
REMARK    2  A    between atoms: C_2  and  C_3
REMARK    3  A    between atoms: C_5  and  O_6
REMARK    4  A    between atoms: O_6  and  C_7
REMARK    5  A    between atoms: C_12  and  O_13
REMARK    6  A    between atoms: C_14  and  O_15
REMARK    7  A    between atoms: C_16  and  O_17
REMARK    8  A    between atoms: C_18  and  O_19
REMARK                            x       y       z     vdW  Elec       q    Type
REMARK                         _______ _______ _______ _____ _____    ______ ____
ROOT
ATOM      1  C   UNL     1       1.714   3.572  19.842  0.00  0.00    +0.000 C 
ATOM      2  O   UNL     1       2.283   4.848  20.144  0.00  0.00    +0.000 OA
ATOM      3  C   UNL     1       2.632   5.582  18.968  0.00  0.00    +0.000 C 
ATOM      4  C   UNL     1       3.768   4.836  18.224  0.00  0.00    +0.000 C 
ATOM      5  C   UNL     1       3.345   3.375  17.955  0.00  0.00    +0.000 C 
ATOM      6  C   UNL     1       2.794   2.687  19.217  0.00  0.00    +0.000 C 
ENDROOT
BRANCH   4   7
ATOM      7  O   UNL     1       4.119   5.466  16.982  0.00  0.00    +0.000 OA
ATOM      8  H   UNL     1       4.299   4.777  16.315  0.00  0.00    +0.000 HD
ENDBRANCH   4   7
BRANCH   5   9
ATOM      9  O   UNL     1       4.422   2.598  17.409  0.00  0.00    +0.000 OA
ATOM     10  H   UNL     1       4.530   1.801  17.957  0.00  0.00    +0.000 HD
ENDBRANCH   5   9
BRANCH   6  11
ATOM     11  O   UNL     1       2.264   1.392  18.923  0.00  0.00    +0.000 OA
ATOM     12  H   UNL     1       1.337   1.489  18.640  0.00  0.00    +0.000 HD
ENDBRANCH   6  11
BRANCH   1  13
ATOM     13  C   UNL     1       1.151   2.965  21.132  0.00  0.00    +0.000 C 
BRANCH  13  14
ATOM     14  O   UNL     1       2.232   2.474  21.932  0.00  0.00    +0.000 OA
ATOM     15  H   UNL     1       2.899   2.122  21.316  0.00  0.00    +0.000 HD
ENDBRANCH  13  14
ENDBRANCH   1  13
BRANCH   3  16
ATOM     16  O   UNL     1       3.079   6.899  19.299  0.00  0.00    +0.000 OA
BRANCH  16  17
ATOM     17  C   UNL     1       2.189   7.933  19.156  0.00  0.00    +0.000 A 
ATOM     18  C   UNL     1       1.890   8.587  17.956  0.00  0.00    +0.000 A 
ATOM     19  C   UNL     1       0.942   9.615  17.919  0.00  0.00    +0.000 A 
ATOM     20  C   UNL     1       0.282  10.002  19.082  0.00  0.00    +0.000 A 
ATOM     21  C   UNL     1       0.574   9.370  20.288  0.00  0.00    +0.000 A 
ATOM     22  C   UNL     1       1.524   8.345  20.321  0.00  0.00    +0.000 A 
BRANCH  22  23
ATOM     23  O   UNL     1       1.810   7.726  21.509  0.00  0.00    +0.000 OA
ATOM     24  H   UNL     1       2.407   8.291  22.022  0.00  0.00    +0.000 HD
ENDBRANCH  22  23
ENDBRANCH  16  17
ENDBRANCH   3  16
TORSDOF 8
ENDMDL
MODEL 8
REMARK VINA RESULT:      -6.6      3.487      4.788
REMARK  Name = 
REMARK  8 active torsions:
REMARK  status: ('A' for Active; 'I' for Inactive)
REMARK    1  A    between atoms: O_1  and  C_2
REMARK    2  A    between atoms: C_2  and  C_3
REMARK    3  A    between atoms: C_5  and  O_6
REMARK    4  A    between atoms: O_6  and  C_7
REMARK    5  A    between atoms: C_12  and  O_13
REMARK    6  A    between atoms: C_14  and  O_15
REMARK    7  A    between atoms: C_16  and  O_17
REMARK    8  A    between atoms: C_18  and  O_19
REMARK                            x       y       z     vdW  Elec       q    Type
REMARK                         _______ _______ _______ _____ _____    ______ ____
ROOT
ATOM      1  C   UNL     1       4.225   5.417  17.795  0.00  0.00    +0.000 C 
ATOM      2  O   UNL     1       5.003   5.906  16.699  0.00  0.00    +0.000 OA
ATOM      3  C   UNL     1       6.165   5.110  16.456  0.00  0.00    +0.000 C 
ATOM      4  C   UNL     1       7.121   5.226  17.670  0.00  0.00    +0.000 C 
ATOM      5  C   UNL     1       6.365   4.861  18.967  0.00  0.00    +0.000 C 
ATOM      6  C   UNL     1       5.023   5.606  19.087  0.00  0.00    +0.000 C 
ENDROOT
BRANCH   4   7
ATOM      7  O   UNL     1       8.278   4.386  17.541  0.00  0.00    +0.000 OA
ATOM      8  H   UNL     1       9.072   4.898  17.785  0.00  0.00    +0.000 HD
ENDBRANCH   4   7
BRANCH   5   9
ATOM      9  O   UNL     1       7.162   5.105  20.137  0.00  0.00    +0.000 OA
ATOM     10  H   UNL     1       6.615   4.919  20.920  0.00  0.00    +0.000 HD
ENDBRANCH   5   9
BRANCH   6  11
ATOM     11  O   UNL     1       4.264   5.146  20.208  0.00  0.00    +0.000 OA
ATOM     12  H   UNL     1       4.574   4.257  20.454  0.00  0.00    +0.000 HD
ENDBRANCH   6  11
BRANCH   1  13
ATOM     13  C   UNL     1       2.892   6.170  17.829  0.00  0.00    +0.000 C 
BRANCH  13  14
ATOM     14  O   UNL     1       1.878   5.311  18.360  0.00  0.00    +0.000 OA
ATOM     15  H   UNL     1       2.129   5.118  19.280  0.00  0.00    +0.000 HD
ENDBRANCH  13  14
ENDBRANCH   1  13
BRANCH   3  16
ATOM     16  O   UNL     1       6.851   5.549  15.281  0.00  0.00    +0.000 OA
BRANCH  16  17
ATOM     17  C   UNL     1       6.676   4.825  14.129  0.00  0.00    +0.000 A 
ATOM     18  C   UNL     1       5.637   3.919  13.889  0.00  0.00    +0.000 A 
ATOM     19  C   UNL     1       5.538   3.253  12.663  0.00  0.00    +0.000 A 
ATOM     20  C   UNL     1       6.479   3.483  11.662  0.00  0.00    +0.000 A 
ATOM     21  C   UNL     1       7.526   4.373  11.887  0.00  0.00    +0.000 A 
ATOM     22  C   UNL     1       7.622   5.035  13.114  0.00  0.00    +0.000 A 
BRANCH  22  23
ATOM     23  O   UNL     1       8.654   5.909  13.333  0.00  0.00    +0.000 OA
ATOM     24  H   UNL     1       9.105   5.663  14.155  0.00  0.00    +0.000 HD
ENDBRANCH  22  23
ENDBRANCH  16  17
ENDBRANCH   3  16
TORSDOF 8
ENDMDL
MODEL 9
REMARK VINA RESULT:      -6.6      2.515      6.285
REMARK  Name = 
REMARK  8 active torsions:
REMARK  status: ('A' for Active; 'I' for Inactive)
REMARK    1  A    between atoms: O_1  and  C_2
REMARK    2  A    between atoms: C_2  and  C_3
REMARK    3  A    between atoms: C_5  and  O_6
REMARK    4  A    between atoms: O_6  and  C_7
REMARK    5  A    between atoms: C_12  and  O_13
REMARK    6  A    between atoms: C_14  and  O_15
REMARK    7  A    between atoms: C_16  and  O_17
REMARK    8  A    between atoms: C_18  and  O_19
REMARK                            x       y       z     vdW  Elec       q    Type
REMARK                         _______ _______ _______ _____ _____    ______ ____
ROOT
ATOM      1  C   UNL     1       5.432   4.517  15.719  0.00  0.00    +0.000 C 
ATOM      2  O   UNL     1       5.057   3.512  16.665  0.00  0.00    +0.000 OA
ATOM      3  C   UNL     1       4.899   4.036  17.985  0.00  0.00    +0.000 C 
ATOM      4  C   UNL     1       6.273   4.535  18.500  0.00  0.00    +0.000 C 
ATOM      5  C   UNL     1       6.876   5.536  17.491  0.00  0.00    +0.000 C 
ATOM      6  C   UNL     1       6.847   4.999  16.049  0.00  0.00    +0.000 C 
ENDROOT
BRANCH   4   7
ATOM      7  O   UNL     1       6.183   5.155  19.792  0.00  0.00    +0.000 OA
ATOM      8  H   UNL     1       5.881   4.493  20.443  0.00  0.00    +0.000 HD
ENDBRANCH   4   7
BRANCH   5   9
ATOM      9  O   UNL     1       8.218   5.907  17.845  0.00  0.00    +0.000 OA
ATOM     10  H   UNL     1       8.727   5.092  17.999  0.00  0.00    +0.000 HD
ENDBRANCH   5   9
BRANCH   6  11
ATOM     11  O   UNL     1       7.264   5.991  15.108  0.00  0.00    +0.000 OA
ATOM     12  H   UNL     1       8.237   6.005  15.076  0.00  0.00    +0.000 HD
ENDBRANCH   6  11
BRANCH   1  13
ATOM     13  C   UNL     1       5.342   3.927  14.309  0.00  0.00    +0.000 C 
BRANCH  13  14
ATOM     14  O   UNL     1       6.642   3.496  13.894  0.00  0.00    +0.000 OA
ATOM     15  H   UNL     1       7.252   3.704  14.623  0.00  0.00    +0.000 HD
ENDBRANCH  13  14
ENDBRANCH   1  13
BRANCH   3  16
ATOM     16  O   UNL     1       4.403   3.035  18.877  0.00  0.00    +0.000 OA
BRANCH  16  17
ATOM     17  C   UNL     1       3.116   3.166  19.335  0.00  0.00    +0.000 A 
ATOM     18  C   UNL     1       2.716   3.949  20.423  0.00  0.00    +0.000 A 
ATOM     19  C   UNL     1       1.368   4.031  20.788  0.00  0.00    +0.000 A 
ATOM     20  C   UNL     1       0.403   3.330  20.069  0.00  0.00    +0.000 A 
ATOM     21  C   UNL     1       0.783   2.537  18.989  0.00  0.00    +0.000 A 
ATOM     22  C   UNL     1       2.132   2.456  18.630  0.00  0.00    +0.000 A 
BRANCH  22  23
ATOM     23  O   UNL     1       2.503   1.674  17.568  0.00  0.00    +0.000 OA
ATOM     24  H   UNL     1       3.470   1.665  17.508  0.00  0.00    +0.000 HD
ENDBRANCH  22  23
ENDBRANCH  16  17
ENDBRANCH   3  16
TORSDOF 8
ENDMDL
