MODEL 1
REMARK VINA RESULT:      -6.0      0.000      0.000
REMARK  Name = 
REMARK  2 active torsions:
REMARK  status: ('A' for Active; 'I' for Inactive)
REMARK    1  A    between atoms: C_2  and  C_5
REMARK    2  A    between atoms: N_3  and  O_4
REMARK                            x       y       z     vdW  Elec       q    Type
REMARK                         _______ _______ _______ _____ _____    ______ ____
ROOT
ATOM      1  C   UNL     1       3.333   3.845  19.598  0.00  0.00    +0.000 A 
ATOM      2  C   UNL     1       3.791   4.910  18.800  0.00  0.00    +0.000 A 
ATOM      3  C   UNL     1       3.284   6.201  18.968  0.00  0.00    +0.000 A 
ATOM      4  C   UNL     1       2.308   6.438  19.930  0.00  0.00    +0.000 A 
ATOM      5 CL   UNL     1       1.680   8.025  20.141  0.00  0.00    +0.000 Cl
ATOM      6  C   UNL     1       1.833   5.397  20.722  0.00  0.00    +0.000 A 
ATOM      7  C   UNL     1       2.342   4.101  20.562  0.00  0.00    +0.000 A 
ATOM      8 CL   UNL     1       1.643   2.880  21.570  0.00  0.00    +0.000 Cl
ENDROOT
BRANCH   1  10
ATOM      9  N   UNL     1       5.033   2.087  20.091  0.00  0.00    +0.000 N 
ATOM     10  C   UNL     1       3.947   2.497  19.359  0.00  0.00    +0.000 C 
ATOM     11  N   UNL     1       3.430   1.744  18.428  0.00  0.00    +0.000 NA
ATOM     12  H   UNL     1       5.178   1.086  19.981  0.00  0.00    +0.000 HD
ATOM     13  H   UNL     1       5.066   2.388  21.059  0.00  0.00    +0.000 HD
BRANCH  11  14
ATOM     14  O   UNL     1       4.111   0.517  18.339  0.00  0.00    +0.000 OA
ATOM     15  H   UNL     1       4.902   0.682  18.886  0.00  0.00    +0.000 HD
ENDBRANCH  11  14
ENDBRANCH   1  10
TORSDOF 2
ENDMDL
MODEL 2
REMARK VINA RESULT:      -5.9      3.359      4.274
REMARK  Name = 
REMARK  2 active torsions:
REMARK  status: ('A' for Active; 'I' for Inactive)
REMARK    1  A    between atoms: C_2  and  C_5
REMARK    2  A    between atoms: N_3  and  O_4
REMARK                            x       y       z     vdW  Elec       q    Type
REMARK                         _______ _______ _______ _____ _____    ______ ____
ROOT
ATOM      1  C   UNL     1       4.966   4.210  18.723  0.00  0.00    +0.000 A 
ATOM      2  C   UNL     1       4.591   3.069  19.456  0.00  0.00    +0.000 A 
ATOM      3  C   UNL     1       3.274   2.603  19.434  0.00  0.00    +0.000 A 
ATOM      4  C   UNL     1       2.318   3.278  18.683  0.00  0.00    +0.000 A 
ATOM      5 CL   UNL     1       0.695   2.710  18.651  0.00  0.00    +0.000 Cl
ATOM      6  C   UNL     1       2.665   4.415  17.958  0.00  0.00    +0.000 A 
ATOM      7  C   UNL     1       3.986   4.883  17.974  0.00  0.00    +0.000 A 
ATOM      8 CL   UNL     1       4.289   6.330  17.073  0.00  0.00    +0.000 Cl
ENDROOT
BRANCH   1  10
ATOM      9  N   UNL     1       7.280   4.281  17.794  0.00  0.00    +0.000 N 
ATOM     10  C   UNL     1       6.406   4.626  18.793  0.00  0.00    +0.000 C 
ATOM     11  N   UNL     1       6.798   5.305  19.836  0.00  0.00    +0.000 NA
ATOM     12  H   UNL     1       8.136   4.826  17.866  0.00  0.00    +0.000 HD
ATOM     13  H   UNL     1       6.905   4.258  16.851  0.00  0.00    +0.000 HD
BRANCH  11  14
ATOM     14  O   UNL     1       8.165   5.623  19.743  0.00  0.00    +0.000 OA
ATOM     15  H   UNL     1       8.377   5.887  20.658  0.00  0.00    +0.000 HD
ENDBRANCH  11  14
ENDBRANCH   1  10
TORSDOF 2
ENDMDL
MODEL 3
REMARK VINA RESULT:      -5.9      3.628      4.716
REMARK  Name = 
REMARK  2 active torsions:
REMARK  status: ('A' for Active; 'I' for Inactive)
REMARK    1  A    between atoms: C_2  and  C_5
REMARK    2  A    between atoms: N_3  and  O_4
REMARK                            x       y       z     vdW  Elec       q    Type
REMARK                         _______ _______ _______ _____ _____    ______ ____
ROOT
ATOM      1  C   UNL     1       4.253   5.140  17.115  0.00  0.00    +0.000 A 
ATOM      2  C   UNL     1       4.275   3.738  16.995  0.00  0.00    +0.000 A 
ATOM      3  C   UNL     1       3.228   2.958  17.493  0.00  0.00    +0.000 A 
ATOM      4  C   UNL     1       2.151   3.574  18.123  0.00  0.00    +0.000 A 
ATOM      5 CL   UNL     1       0.859   2.622  18.738  0.00  0.00    +0.000 Cl
ATOM      6  C   UNL     1       2.114   4.959  18.262  0.00  0.00    +0.000 A 
ATOM      7  C   UNL     1       3.160   5.745  17.759  0.00  0.00    +0.000 A 
ATOM      8 CL   UNL     1       3.028   7.449  18.031  0.00  0.00    +0.000 Cl
ENDROOT
BRANCH   1  10
ATOM      9  N   UNL     1       5.256   6.643  15.395  0.00  0.00    +0.000 N 
ATOM     10  C   UNL     1       5.412   5.894  16.535  0.00  0.00    +0.000 C 
ATOM     11  N   UNL     1       6.567   5.801  17.134  0.00  0.00    +0.000 NA
ATOM     12  H   UNL     1       6.049   7.267  15.269  0.00  0.00    +0.000 HD
ATOM     13  H   UNL     1       4.363   7.109  15.278  0.00  0.00    +0.000 HD
BRANCH  11  14
ATOM     14  O   UNL     1       7.540   6.572  16.473  0.00  0.00    +0.000 OA
ATOM     15  H   UNL     1       8.326   6.435  17.035  0.00  0.00    +0.000 HD
ENDBRANCH  11  14
ENDBRANCH   1  10
TORSDOF 2
ENDMDL
MODEL 4
REMARK VINA RESULT:      -5.9      1.152      1.338
REMARK  Name = 
REMARK  2 active torsions:
REMARK  status: ('A' for Active; 'I' for Inactive)
REMARK    1  A    between atoms: C_2  and  C_5
REMARK    2  A    between atoms: N_3  and  O_4
REMARK                            x       y       z     vdW  Elec       q    Type
REMARK                         _______ _______ _______ _____ _____    ______ ____
ROOT
ATOM      1  C   UNL     1       3.632   4.247  18.723  0.00  0.00    +0.000 A 
ATOM      2  C   UNL     1       4.208   4.974  17.665  0.00  0.00    +0.000 A 
ATOM      3  C   UNL     1       3.873   6.314  17.450  0.00  0.00    +0.000 A 
ATOM      4  C   UNL     1       2.953   6.936  18.287  0.00  0.00    +0.000 A 
ATOM      5 CL   UNL     1       2.536   8.584  18.028  0.00  0.00    +0.000 Cl
ATOM      6  C   UNL     1       2.364   6.231  19.333  0.00  0.00    +0.000 A 
ATOM      7  C   UNL     1       2.700   4.889  19.556  0.00  0.00    +0.000 A 
ATOM      8 CL   UNL     1       1.870   4.104  20.856  0.00  0.00    +0.000 Cl
ENDROOT
BRANCH   1  10
ATOM      9  N   UNL     1       5.031   2.486  19.803  0.00  0.00    +0.000 N 
ATOM     10  C   UNL     1       4.065   2.820  18.887  0.00  0.00    +0.000 C 
ATOM     11  N   UNL     1       3.511   1.918  18.124  0.00  0.00    +0.000 NA
ATOM     12  H   UNL     1       5.040   1.480  19.959  0.00  0.00    +0.000 HD
ATOM     13  H   UNL     1       5.041   3.020  20.665  0.00  0.00    +0.000 HD
BRANCH  11  14
ATOM     14  O   UNL     1       4.017   0.638  18.410  0.00  0.00    +0.000 OA
ATOM     15  H   UNL     1       4.231   0.299  17.521  0.00  0.00    +0.000 HD
ENDBRANCH  11  14
ENDBRANCH   1  10
TORSDOF 2
ENDMDL
MODEL 5
REMARK VINA RESULT:      -5.8      3.851      4.428
REMARK  Name = 
REMARK  2 active torsions:
REMARK  status: ('A' for Active; 'I' for Inactive)
REMARK    1  A    between atoms: C_2  and  C_5
REMARK    2  A    between atoms: N_3  and  O_4
REMARK                            x       y       z     vdW  Elec       q    Type
REMARK                         _______ _______ _______ _____ _____    ______ ____
ROOT
ATOM      1  C   UNL     1       5.448   4.634  17.287  0.00  0.00    +0.000 A 
ATOM      2  C   UNL     1       4.287   4.106  16.692  0.00  0.00    +0.000 A 
ATOM      3  C   UNL     1       3.113   3.941  17.432  0.00  0.00    +0.000 A 
ATOM      4  C   UNL     1       3.092   4.296  18.777  0.00  0.00    +0.000 A 
ATOM      5 CL   UNL     1       1.651   4.096  19.693  0.00  0.00    +0.000 Cl
ATOM      6  C   UNL     1       4.232   4.810  19.388  0.00  0.00    +0.000 A 
ATOM      7  C   UNL     1       5.410   4.982  18.648  0.00  0.00    +0.000 A 
ATOM      8 CL   UNL     1       6.775   5.586  19.525  0.00  0.00    +0.000 Cl
ENDROOT
BRANCH   1  10
ATOM      9  N   UNL     1       7.863   4.258  16.787  0.00  0.00    +0.000 N 
ATOM     10  C   UNL     1       6.655   4.791  16.411  0.00  0.00    +0.000 C 
ATOM     11  N   UNL     1       6.524   5.461  15.299  0.00  0.00    +0.000 NA
ATOM     12  H   UNL     1       8.505   4.242  15.998  0.00  0.00    +0.000 HD
ATOM     13  H   UNL     1       7.833   3.377  17.290  0.00  0.00    +0.000 HD
BRANCH  11  14
ATOM     14  O   UNL     1       7.740   5.507  14.594  0.00  0.00    +0.000 OA
ATOM     15  H   UNL     1       7.450   5.784  13.705  0.00  0.00    +0.000 HD
ENDBRANCH  11  14
ENDBRANCH   1  10
TORSDOF 2
ENDMDL
MODEL 6
REMARK VINA RESULT:      -5.8      0.741      1.226
REMARK  Name = 
REMARK  2 active torsions:
REMARK  status: ('A' for Active; 'I' for Inactive)
REMARK    1  A    between atoms: C_2  and  C_5
REMARK    2  A    between atoms: N_3  and  O_4
REMARK                            x       y       z     vdW  Elec       q    Type
REMARK                         _______ _______ _______ _____ _____    ______ ____
ROOT
ATOM      1  C   UNL     1       2.641   3.790  19.192  0.00  0.00    +0.000 A 
ATOM      2  C   UNL     1       3.023   4.890  18.401  0.00  0.00    +0.000 A 
ATOM      3  C   UNL     1       2.730   6.196  18.800  0.00  0.00    +0.000 A 
ATOM      4  C   UNL     1       2.045   6.415  19.991  0.00  0.00    +0.000 A 
ATOM      5 CL   UNL     1       1.681   8.020  20.488  0.00  0.00    +0.000 Cl
ATOM      6  C   UNL     1       1.648   5.341  20.783  0.00  0.00    +0.000 A 
ATOM      7  C   UNL     1       1.945   4.028  20.389  0.00  0.00    +0.000 A 
ATOM      8 CL   UNL     1       1.362   2.774  21.429  0.00  0.00    +0.000 Cl
ENDROOT
BRANCH   1  10
ATOM      9  N   UNL     1       2.203   1.763  17.805  0.00  0.00    +0.000 N 
ATOM     10  C   UNL     1       3.014   2.426  18.692  0.00  0.00    +0.000 C 
ATOM     11  N   UNL     1       4.115   1.888  19.139  0.00  0.00    +0.000 NA
ATOM     12  H   UNL     1       2.698   0.977  17.389  0.00  0.00    +0.000 HD
ATOM     13  H   UNL     1       1.720   2.333  17.120  0.00  0.00    +0.000 HD
BRANCH  11  14
ATOM     14  O   UNL     1       4.323   0.620  18.567  0.00  0.00    +0.000 OA
ATOM     15  H   UNL     1       3.413   0.337  18.360  0.00  0.00    +0.000 HD
ENDBRANCH  11  14
ENDBRANCH   1  10
TORSDOF 2
ENDMDL
MODEL 7
REMARK VINA RESULT:      -5.8      0.688      1.158
REMARK  Name = 
REMARK  2 active torsions:
REMARK  status: ('A' for Active; 'I' for Inactive)
REMARK    1  A    between atoms: C_2  and  C_5
REMARK    2  A    between atoms: N_3  and  O_4
REMARK                            x       y       z     vdW  Elec       q    Type
REMARK                         _______ _______ _______ _____ _____    ______ ____
ROOT
ATOM      1  C   UNL     1       3.476   3.816  19.623  0.00  0.00    +0.000 A 
ATOM      2  C   UNL     1       3.949   4.840  18.781  0.00  0.00    +0.000 A 
ATOM      3  C   UNL     1       3.423   6.132  18.858  0.00  0.00    +0.000 A 
ATOM      4  C   UNL     1       2.412   6.410  19.773  0.00  0.00    +0.000 A 
ATOM      5 CL   UNL     1       1.760   7.998  19.872  0.00  0.00    +0.000 Cl
ATOM      6  C   UNL     1       1.922   5.409  20.607  0.00  0.00    +0.000 A 
ATOM      7  C   UNL     1       2.451   4.113  20.537  0.00  0.00    +0.000 A 
ATOM      8 CL   UNL     1       1.732   2.942  21.590  0.00  0.00    +0.000 Cl
ENDROOT
BRANCH   1  10
ATOM      9  N   UNL     1       3.864   1.690  18.376  0.00  0.00    +0.000 N 
ATOM     10  C   UNL     1       4.113   2.465  19.481  0.00  0.00    +0.000 C 
ATOM     11  N   UNL     1       4.888   2.048  20.444  0.00  0.00    +0.000 NA
ATOM     12  H   UNL     1       4.537   0.930  18.316  0.00  0.00    +0.000 HD
ATOM     13  H   UNL     1       3.742   2.181  17.497  0.00  0.00    +0.000 HD
BRANCH  11  14
ATOM     14  O   UNL     1       5.410   0.775  20.152  0.00  0.00    +0.000 OA
ATOM     15  H   UNL     1       5.139   0.650  19.224  0.00  0.00    +0.000 HD
ENDBRANCH  11  14
ENDBRANCH   1  10
TORSDOF 2
ENDMDL
MODEL 8
REMARK VINA RESULT:      -5.7      4.294      4.983
REMARK  Name = 
REMARK  2 active torsions:
REMARK  status: ('A' for Active; 'I' for Inactive)
REMARK    1  A    between atoms: C_2  and  C_5
REMARK    2  A    between atoms: N_3  and  O_4
REMARK                            x       y       z     vdW  Elec       q    Type
REMARK                         _______ _______ _______ _____ _____    ______ ____
ROOT
ATOM      1  C   UNL     1       5.625   4.453  16.708  0.00  0.00    +0.000 A 
ATOM      2  C   UNL     1       4.269   4.108  16.564  0.00  0.00    +0.000 A 
ATOM      3  C   UNL     1       3.430   4.016  17.678  0.00  0.00    +0.000 A 
ATOM      4  C   UNL     1       3.943   4.262  18.948  0.00  0.00    +0.000 A 
ATOM      5 CL   UNL     1       2.916   4.150  20.323  0.00  0.00    +0.000 Cl
ATOM      6  C   UNL     1       5.284   4.595  19.113  0.00  0.00    +0.000 A 
ATOM      7  C   UNL     1       6.128   4.693  17.998  0.00  0.00    +0.000 A 
ATOM      8 CL   UNL     1       7.784   5.068  18.331  0.00  0.00    +0.000 Cl
ENDROOT
BRANCH   1  10
ATOM      9  N   UNL     1       6.363   3.566  14.496  0.00  0.00    +0.000 N 
ATOM     10  C   UNL     1       6.444   4.545  15.455  0.00  0.00    +0.000 C 
ATOM     11  N   UNL     1       7.243   5.567  15.317  0.00  0.00    +0.000 NA
ATOM     12  H   UNL     1       6.785   3.884  13.627  0.00  0.00    +0.000 HD
ATOM     13  H   UNL     1       5.453   3.138  14.362  0.00  0.00    +0.000 HD
BRANCH  11  14
ATOM     14  O   UNL     1       7.927   5.508  14.089  0.00  0.00    +0.000 OA
ATOM     15  H   UNL     1       8.619   4.844  14.272  0.00  0.00    +0.000 HD
ENDBRANCH  11  14
ENDBRANCH   1  10
TORSDOF 2
ENDMDL
MODEL 9
REMARK VINA RESULT:      -5.7      2.981      3.560
REMARK  Name = 
REMARK  2 active torsions:
REMARK  status: ('A' for Active; 'I' for Inactive)
REMARK    1  A    between atoms: C_2  and  C_5
REMARK    2  A    between atoms: N_3  and  O_4
REMARK                            x       y       z     vdW  Elec       q    Type
REMARK                         _______ _______ _______ _____ _____    ______ ____
ROOT
ATOM      1  C   UNL     1       2.650   4.128  19.219  0.00  0.00    +0.000 A 
ATOM      2  C   UNL     1       2.722   5.533  19.252  0.00  0.00    +0.000 A 
ATOM      3  C   UNL     1       3.444   6.237  18.286  0.00  0.00    +0.000 A 
ATOM      4  C   UNL     1       4.107   5.541  17.280  0.00  0.00    +0.000 A 
ATOM      5 CL   UNL     1       4.998   6.402  16.086  0.00  0.00    +0.000 Cl
ATOM      6  C   UNL     1       4.057   4.151  17.235  0.00  0.00    +0.000 A 
ATOM      7  C   UNL     1       3.330   3.441  18.200  0.00  0.00    +0.000 A 
ATOM      8 CL   UNL     1       3.378   1.716  18.069  0.00  0.00    +0.000 Cl
ENDROOT
BRANCH   1  10
ATOM      9  N   UNL     1       0.490   3.257  20.116  0.00  0.00    +0.000 N 
ATOM     10  C   UNL     1       1.837   3.460  20.288  0.00  0.00    +0.000 C 
ATOM     11  N   UNL     1       2.444   3.098  21.385  0.00  0.00    +0.000 NA
ATOM     12  H   UNL     1       0.139   2.597  20.805  0.00  0.00    +0.000 HD
ATOM     13  H   UNL     1       0.181   3.047  19.173  0.00  0.00    +0.000 HD
BRANCH  11  14
ATOM     14  O   UNL     1       1.547   2.480  22.275  0.00  0.00    +0.000 OA
ATOM     15  H   UNL     1       2.043   2.503  23.114  0.00  0.00    +0.000 HD
ENDBRANCH  11  14
ENDBRANCH   1  10
TORSDOF 2
ENDMDL
