MODEL 1
REMARK VINA RESULT:      -5.7      0.000      0.000
REMARK  Name = 
REMARK  14 active torsions:
REMARK  status: ('A' for Active; 'I' for Inactive)
REMARK    1  A    between atoms: C_1  and  O_2
REMARK    2  A    between atoms: O_2  and  C_3
REMARK    3  A    between atoms: C_3  and  C_5
REMARK    4  A    between atoms: C_5  and  C_6
REMARK    5  A    between atoms: C_6  and  O_8
REMARK    6  A    between atoms: O_8  and  C_9
REMARK    7  A    between atoms: C_10  and  C_11
REMARK    8  A    between atoms: C_10  and  N_18
REMARK    9  A    between atoms: C_12  and  C_13
REMARK   10  A    between atoms: C_14  and  N_15
REMARK   11  A    between atoms: N_15  and  C_16
REMARK   12  A    between atoms: N_15  and  C_17
REMARK   13  A    between atoms: N_18  and  C_19
REMARK   14  A    between atoms: N_18  and  C_20
REMARK                            x       y       z     vdW  Elec       q    Type
REMARK                         _______ _______ _______ _____ _____    ______ ____
ROOT
ATOM      1  C   UNL     1       4.211   4.411  19.541  0.00  0.00    +0.000 C 
ATOM      2  C   UNL     1       2.972   4.782  19.993  0.00  0.00    +0.000 C 
ENDROOT
BRANCH   2   3
ATOM      3  N   UNL     1       1.924   3.923  20.444  0.00  0.00    +0.000 N 
ATOM      4  C   UNL     1       0.678   3.641  19.725  0.00  0.00    +0.000 C 
ATOM      5  C   UNL     1       1.920   3.278  21.772  0.00  0.00    +0.000 C 
ENDBRANCH   2   3
BRANCH   1   6
ATOM      6  C   UNL     1       5.261   5.329  19.006  0.00  0.00    +0.000 C 
ATOM      7  O   UNL     1       5.101   5.977  17.976  0.00  0.00    +0.000 OA
BRANCH   6   9
ATOM      8  C   UNL     1       7.563   5.742  18.984  0.00  0.00    +0.000 C 
ATOM      9  O   UNL     1       6.407   5.354  19.735  0.00  0.00    +0.000 OA
ENDBRANCH   6   9
ENDBRANCH   1   6
BRANCH   1  10
ATOM     10  C   UNL     1       4.590   2.971  19.364  0.00  0.00    +0.000 C 
ATOM     11  O   UNL     1       5.040   2.237  20.227  0.00  0.00    +0.000 OA
BRANCH  10  12
ATOM     12  O   UNL     1       4.344   2.593  18.074  0.00  0.00    +0.000 OA
ATOM     13  C   UNL     1       3.209   1.740  17.894  0.00  0.00    +0.000 C 
ENDBRANCH  10  12
ENDBRANCH   1  10
BRANCH   2  14
ATOM     14  C   UNL     1       2.605   6.227  19.975  0.00  0.00    +0.000 C 
ATOM     15  C   UNL     1       1.764   6.815  20.846  0.00  0.00    +0.000 C 
BRANCH  15  16
ATOM     16  C   UNL     1       1.349   8.207  20.811  0.00  0.00    +0.000 C 
ATOM     17  C   UNL     1       0.298   8.639  21.527  0.00  0.00    +0.000 C 
BRANCH  17  18
ATOM     18  N   UNL     1      -0.286   9.892  21.654  0.00  0.00    +0.000 N 
ATOM     19  C   UNL     1      -0.781  10.459  22.904  0.00  0.00    +0.000 C 
ATOM     20  C   UNL     1      -0.543  10.735  20.481  0.00  0.00    +0.000 C 
ENDBRANCH  17  18
ENDBRANCH  15  16
ENDBRANCH   2  14
TORSDOF 8
ENDMDL
MODEL 2
REMARK VINA RESULT:      -5.7      2.420      3.073
REMARK  Name = 
REMARK  14 active torsions:
REMARK  status: ('A' for Active; 'I' for Inactive)
REMARK    1  A    between atoms: C_1  and  O_2
REMARK    2  A    between atoms: O_2  and  C_3
REMARK    3  A    between atoms: C_3  and  C_5
REMARK    4  A    between atoms: C_5  and  C_6
REMARK    5  A    between atoms: C_6  and  O_8
REMARK    6  A    between atoms: O_8  and  C_9
REMARK    7  A    between atoms: C_10  and  C_11
REMARK    8  A    between atoms: C_10  and  N_18
REMARK    9  A    between atoms: C_12  and  C_13
REMARK   10  A    between atoms: C_14  and  N_15
REMARK   11  A    between atoms: N_15  and  C_16
REMARK   12  A    between atoms: N_15  and  C_17
REMARK   13  A    between atoms: N_18  and  C_19
REMARK   14  A    between atoms: N_18  and  C_20
REMARK                            x       y       z     vdW  Elec       q    Type
REMARK                         _______ _______ _______ _____ _____    ______ ____
ROOT
ATOM      1  C   UNL     1       5.385   5.233  17.105  0.00  0.00    +0.000 C 
ATOM      2  C   UNL     1       4.337   4.752  17.844  0.00  0.00    +0.000 C 
ENDROOT
BRANCH   2   3
ATOM      3  N   UNL     1       4.135   3.407  18.282  0.00  0.00    +0.000 N 
ATOM      4  C   UNL     1       3.323   2.396  17.597  0.00  0.00    +0.000 C 
ATOM      5  C   UNL     1       4.647   2.887  19.566  0.00  0.00    +0.000 C 
ENDBRANCH   2   3
BRANCH   1   6
ATOM      6  C   UNL     1       5.531   6.632  16.599  0.00  0.00    +0.000 C 
ATOM      7  O   UNL     1       5.250   6.944  15.446  0.00  0.00    +0.000 OA
BRANCH   6   9
ATOM      8  C   UNL     1       7.439   7.739  17.376  0.00  0.00    +0.000 C 
ATOM      9  O   UNL     1       6.032   7.506  17.509  0.00  0.00    +0.000 OA
ENDBRANCH   6   9
ENDBRANCH   1   6
BRANCH   1  10
ATOM     10  C   UNL     1       6.446   4.329  16.553  0.00  0.00    +0.000 C 
ATOM     11  O   UNL     1       7.609   4.287  16.914  0.00  0.00    +0.000 OA
BRANCH  10  12
ATOM     12  O   UNL     1       5.907   3.540  15.577  0.00  0.00    +0.000 OA
ATOM     13  C   UNL     1       6.255   3.903  14.237  0.00  0.00    +0.000 C 
ENDBRANCH  10  12
ENDBRANCH   1  10
BRANCH   2  14
ATOM     14  C   UNL     1       3.228   5.680  18.207  0.00  0.00    +0.000 C 
ATOM     15  C   UNL     1       3.104   6.299  19.395  0.00  0.00    +0.000 C 
BRANCH  15  16
ATOM     16  C   UNL     1       2.003   7.161  19.789  0.00  0.00    +0.000 C 
ATOM     17  C   UNL     1       1.887   8.408  19.305  0.00  0.00    +0.000 C 
BRANCH  17  18
ATOM     18  N   UNL     1       0.948   9.407  19.528  0.00  0.00    +0.000 N 
ATOM     19  C   UNL     1       0.317   9.687  20.814  0.00  0.00    +0.000 C 
ATOM     20  C   UNL     1       0.431  10.226  18.427  0.00  0.00    +0.000 C 
ENDBRANCH  17  18
ENDBRANCH  15  16
ENDBRANCH   2  14
TORSDOF 8
ENDMDL
MODEL 3
REMARK VINA RESULT:      -5.7      2.359      3.778
REMARK  Name = 
REMARK  14 active torsions:
REMARK  status: ('A' for Active; 'I' for Inactive)
REMARK    1  A    between atoms: C_1  and  O_2
REMARK    2  A    between atoms: O_2  and  C_3
REMARK    3  A    between atoms: C_3  and  C_5
REMARK    4  A    between atoms: C_5  and  C_6
REMARK    5  A    between atoms: C_6  and  O_8
REMARK    6  A    between atoms: O_8  and  C_9
REMARK    7  A    between atoms: C_10  and  C_11
REMARK    8  A    between atoms: C_10  and  N_18
REMARK    9  A    between atoms: C_12  and  C_13
REMARK   10  A    between atoms: C_14  and  N_15
REMARK   11  A    between atoms: N_15  and  C_16
REMARK   12  A    between atoms: N_15  and  C_17
REMARK   13  A    between atoms: N_18  and  C_19
REMARK   14  A    between atoms: N_18  and  C_20
REMARK                            x       y       z     vdW  Elec       q    Type
REMARK                         _______ _______ _______ _____ _____    ______ ____
ROOT
ATOM      1  C   UNL     1       3.546   4.889  18.868  0.00  0.00    +0.000 C 
ATOM      2  C   UNL     1       3.955   6.040  18.247  0.00  0.00    +0.000 C 
ENDROOT
BRANCH   2   3
ATOM      3  N   UNL     1       5.093   6.208  17.402  0.00  0.00    +0.000 N 
ATOM      4  C   UNL     1       5.108   6.051  15.944  0.00  0.00    +0.000 C 
ATOM      5  C   UNL     1       6.453   6.466  17.916  0.00  0.00    +0.000 C 
ENDBRANCH   2   3
BRANCH   1   6
ATOM      6  C   UNL     1       2.391   4.761  19.807  0.00  0.00    +0.000 C 
ATOM      7  O   UNL     1       2.482   5.040  20.999  0.00  0.00    +0.000 OA
BRANCH   6   9
ATOM      8  C   UNL     1       0.780   3.065  19.825  0.00  0.00    +0.000 C 
ATOM      9  O   UNL     1       1.256   4.281  19.236  0.00  0.00    +0.000 OA
ENDBRANCH   6   9
ENDBRANCH   1   6
BRANCH   1  10
ATOM     10  C   UNL     1       4.353   3.627  18.806  0.00  0.00    +0.000 C 
ATOM     11  O   UNL     1       5.248   3.312  19.571  0.00  0.00    +0.000 OA
BRANCH  10  12
ATOM     12  O   UNL     1       3.926   2.867  17.754  0.00  0.00    +0.000 OA
ATOM     13  C   UNL     1       3.526   1.533  18.088  0.00  0.00    +0.000 C 
ENDBRANCH  10  12
ENDBRANCH   1  10
BRANCH   2  14
ATOM     14  C   UNL     1       3.196   7.299  18.499  0.00  0.00    +0.000 C 
ATOM     15  C   UNL     1       2.319   7.851  17.640  0.00  0.00    +0.000 C 
BRANCH  15  16
ATOM     16  C   UNL     1       1.614   9.105  17.841  0.00  0.00    +0.000 C 
ATOM     17  C   UNL     1       1.225   9.497  19.065  0.00  0.00    +0.000 C 
BRANCH  17  18
ATOM     18  N   UNL     1       0.546  10.626  19.506  0.00  0.00    +0.000 N 
ATOM     19  C   UNL     1       0.842  11.993  19.091  0.00  0.00    +0.000 C 
ATOM     20  C   UNL     1      -0.499  10.534  20.531  0.00  0.00    +0.000 C 
ENDBRANCH  17  18
ENDBRANCH  15  16
ENDBRANCH   2  14
TORSDOF 8
ENDMDL
MODEL 4
REMARK VINA RESULT:      -5.7      2.388      3.823
REMARK  Name = 
REMARK  14 active torsions:
REMARK  status: ('A' for Active; 'I' for Inactive)
REMARK    1  A    between atoms: C_1  and  O_2
REMARK    2  A    between atoms: O_2  and  C_3
REMARK    3  A    between atoms: C_3  and  C_5
REMARK    4  A    between atoms: C_5  and  C_6
REMARK    5  A    between atoms: C_6  and  O_8
REMARK    6  A    between atoms: O_8  and  C_9
REMARK    7  A    between atoms: C_10  and  C_11
REMARK    8  A    between atoms: C_10  and  N_18
REMARK    9  A    between atoms: C_12  and  C_13
REMARK   10  A    between atoms: C_14  and  N_15
REMARK   11  A    between atoms: N_15  and  C_16
REMARK   12  A    between atoms: N_15  and  C_17
REMARK   13  A    between atoms: N_18  and  C_19
REMARK   14  A    between atoms: N_18  and  C_20
REMARK                            x       y       z     vdW  Elec       q    Type
REMARK                         _______ _______ _______ _____ _____    ______ ____
ROOT
ATOM      1  C   UNL     1       3.574   4.841  18.833  0.00  0.00    +0.000 C 
ATOM      2  C   UNL     1       3.899   6.021  18.217  0.00  0.00    +0.000 C 
ENDROOT
BRANCH   2   3
ATOM      3  N   UNL     1       5.012   6.269  17.357  0.00  0.00    +0.000 N 
ATOM      4  C   UNL     1       6.229   6.999  17.720  0.00  0.00    +0.000 C 
ATOM      5  C   UNL     1       5.027   5.901  15.927  0.00  0.00    +0.000 C 
ENDBRANCH   2   3
BRANCH   1   6
ATOM      6  C   UNL     1       2.444   4.632  19.788  0.00  0.00    +0.000 C 
ATOM      7  O   UNL     1       2.562   4.823  20.995  0.00  0.00    +0.000 OA
BRANCH   6   9
ATOM      8  C   UNL     1       0.743   3.027  19.848  0.00  0.00    +0.000 C 
ATOM      9  O   UNL     1       1.300   4.183  19.210  0.00  0.00    +0.000 OA
ENDBRANCH   6   9
ENDBRANCH   1   6
BRANCH   1  10
ATOM     10  C   UNL     1       4.460   3.635  18.748  0.00  0.00    +0.000 C 
ATOM     11  O   UNL     1       5.458   3.431  19.418  0.00  0.00    +0.000 OA
BRANCH  10  12
ATOM     12  O   UNL     1       3.972   2.780  17.801  0.00  0.00    +0.000 OA
ATOM     13  C   UNL     1       3.612   1.479  18.281  0.00  0.00    +0.000 C 
ENDBRANCH  10  12
ENDBRANCH   1  10
BRANCH   2  14
ATOM     14  C   UNL     1       3.065   7.226  18.491  0.00  0.00    +0.000 C 
ATOM     15  C   UNL     1       2.677   8.118  17.561  0.00  0.00    +0.000 C 
BRANCH  15  16
ATOM     16  C   UNL     1       1.914   9.328  17.815  0.00  0.00    +0.000 C 
ATOM     17  C   UNL     1       1.261   9.509  18.974  0.00  0.00    +0.000 C 
BRANCH  17  18
ATOM     18  N   UNL     1       0.475  10.553  19.444  0.00  0.00    +0.000 N 
ATOM     19  C   UNL     1      -0.491  10.447  20.532  0.00  0.00    +0.000 C 
ATOM     20  C   UNL     1       0.492  11.869  18.796  0.00  0.00    +0.000 C 
ENDBRANCH  17  18
ENDBRANCH  15  16
ENDBRANCH   2  14
TORSDOF 8
ENDMDL
MODEL 5
REMARK VINA RESULT:      -5.6      2.017      2.323
REMARK  Name = 
REMARK  14 active torsions:
REMARK  status: ('A' for Active; 'I' for Inactive)
REMARK    1  A    between atoms: C_1  and  O_2
REMARK    2  A    between atoms: O_2  and  C_3
REMARK    3  A    between atoms: C_3  and  C_5
REMARK    4  A    between atoms: C_5  and  C_6
REMARK    5  A    between atoms: C_6  and  O_8
REMARK    6  A    between atoms: O_8  and  C_9
REMARK    7  A    between atoms: C_10  and  C_11
REMARK    8  A    between atoms: C_10  and  N_18
REMARK    9  A    between atoms: C_12  and  C_13
REMARK   10  A    between atoms: C_14  and  N_15
REMARK   11  A    between atoms: N_15  and  C_16
REMARK   12  A    between atoms: N_15  and  C_17
REMARK   13  A    between atoms: N_18  and  C_19
REMARK   14  A    between atoms: N_18  and  C_20
REMARK                            x       y       z     vdW  Elec       q    Type
REMARK                         _______ _______ _______ _____ _____    ______ ____
ROOT
ATOM      1  C   UNL     1       4.068   5.020  18.155  0.00  0.00    +0.000 C 
ATOM      2  C   UNL     1       2.841   5.416  18.616  0.00  0.00    +0.000 C 
ENDROOT
BRANCH   2   3
ATOM      3  N   UNL     1       2.006   4.730  19.551  0.00  0.00    +0.000 N 
ATOM      4  C   UNL     1       2.075   4.851  21.010  0.00  0.00    +0.000 C 
ATOM      5  C   UNL     1       1.016   3.709  19.154  0.00  0.00    +0.000 C 
ENDBRANCH   2   3
BRANCH   1   6
ATOM      6  C   UNL     1       4.885   5.723  17.120  0.00  0.00    +0.000 C 
ATOM      7  O   UNL     1       4.820   5.436  15.929  0.00  0.00    +0.000 OA
BRANCH   6   9
ATOM      8  C   UNL     1       7.106   6.421  17.351  0.00  0.00    +0.000 C 
ATOM      9  O   UNL     1       5.721   6.671  17.617  0.00  0.00    +0.000 OA
ENDBRANCH   6   9
ENDBRANCH   1   6
BRANCH   1  10
ATOM     10  C   UNL     1       4.662   3.694  18.525  0.00  0.00    +0.000 C 
ATOM     11  O   UNL     1       5.466   3.494  19.419  0.00  0.00    +0.000 OA
BRANCH  10  12
ATOM     12  O   UNL     1       4.156   2.726  17.704  0.00  0.00    +0.000 OA
ATOM     13  C   UNL     1       3.641   1.568  18.371  0.00  0.00    +0.000 C 
ENDBRANCH  10  12
ENDBRANCH   1  10
BRANCH   2  14
ATOM     14  C   UNL     1       2.236   6.663  18.067  0.00  0.00    +0.000 C 
ATOM     15  C   UNL     1       2.397   7.890  18.596  0.00  0.00    +0.000 C 
BRANCH  15  16
ATOM     16  C   UNL     1       1.771   9.109  18.110  0.00  0.00    +0.000 C 
ATOM     17  C   UNL     1       0.809   9.726  18.815  0.00  0.00    +0.000 C 
BRANCH  17  18
ATOM     18  N   UNL     1       0.069  10.874  18.567  0.00  0.00    +0.000 N 
ATOM     19  C   UNL     1       0.535  12.236  18.808  0.00  0.00    +0.000 C 
ATOM     20  C   UNL     1      -1.324  10.799  18.112  0.00  0.00    +0.000 C 
ENDBRANCH  17  18
ENDBRANCH  15  16
ENDBRANCH   2  14
TORSDOF 8
ENDMDL
MODEL 6
REMARK VINA RESULT:      -5.6      2.271      3.738
REMARK  Name = 
REMARK  14 active torsions:
REMARK  status: ('A' for Active; 'I' for Inactive)
REMARK    1  A    between atoms: C_1  and  O_2
REMARK    2  A    between atoms: O_2  and  C_3
REMARK    3  A    between atoms: C_3  and  C_5
REMARK    4  A    between atoms: C_5  and  C_6
REMARK    5  A    between atoms: C_6  and  O_8
REMARK    6  A    between atoms: O_8  and  C_9
REMARK    7  A    between atoms: C_10  and  C_11
REMARK    8  A    between atoms: C_10  and  N_18
REMARK    9  A    between atoms: C_12  and  C_13
REMARK   10  A    between atoms: C_14  and  N_15
REMARK   11  A    between atoms: N_15  and  C_16
REMARK   12  A    between atoms: N_15  and  C_17
REMARK   13  A    between atoms: N_18  and  C_19
REMARK   14  A    between atoms: N_18  and  C_20
REMARK                            x       y       z     vdW  Elec       q    Type
REMARK                         _______ _______ _______ _____ _____    ______ ____
ROOT
ATOM      1  C   UNL     1       3.086   4.014  18.720  0.00  0.00    +0.000 C 
ATOM      2  C   UNL     1       3.595   5.192  18.241  0.00  0.00    +0.000 C 
ENDROOT
BRANCH   2   3
ATOM      3  N   UNL     1       4.849   5.388  17.584  0.00  0.00    +0.000 N 
ATOM      4  C   UNL     1       5.131   5.097  16.176  0.00  0.00    +0.000 C 
ATOM      5  C   UNL     1       6.073   5.820  18.287  0.00  0.00    +0.000 C 
ENDBRANCH   2   3
BRANCH   1   6
ATOM      6  C   UNL     1       1.803   3.854  19.469  0.00  0.00    +0.000 C 
ATOM      7  O   UNL     1       0.742   3.603  18.905  0.00  0.00    +0.000 OA
BRANCH   6   9
ATOM      8  C   UNL     1       1.502   2.914  21.590  0.00  0.00    +0.000 C 
ATOM      9  O   UNL     1       1.911   4.043  20.809  0.00  0.00    +0.000 OA
ENDBRANCH   6   9
ENDBRANCH   1   6
BRANCH   1  10
ATOM     10  C   UNL     1       3.878   2.742  18.696  0.00  0.00    +0.000 C 
ATOM     11  O   UNL     1       3.699   1.801  17.943  0.00  0.00    +0.000 OA
BRANCH  10  12
ATOM     12  O   UNL     1       4.852   2.796  19.653  0.00  0.00    +0.000 OA
ATOM     13  C   UNL     1       4.831   1.728  20.607  0.00  0.00    +0.000 C 
ENDBRANCH  10  12
ENDBRANCH   1  10
BRANCH   2  14
ATOM     14  C   UNL     1       2.823   6.449  18.459  0.00  0.00    +0.000 C 
ATOM     15  C   UNL     1       2.924   7.553  17.696  0.00  0.00    +0.000 C 
BRANCH  15  16
ATOM     16  C   UNL     1       2.224   8.806  17.924  0.00  0.00    +0.000 C 
ATOM     17  C   UNL     1       1.522   9.016  19.049  0.00  0.00    +0.000 C 
BRANCH  17  18
ATOM     18  N   UNL     1       0.778  10.103  19.489  0.00  0.00    +0.000 N 
ATOM     19  C   UNL     1      -0.332  10.028  20.433  0.00  0.00    +0.000 C 
ATOM     20  C   UNL     1       1.001  11.448  18.947  0.00  0.00    +0.000 C 
ENDBRANCH  17  18
ENDBRANCH  15  16
ENDBRANCH   2  14
TORSDOF 8
ENDMDL
MODEL 7
REMARK VINA RESULT:      -5.6      2.104      3.542
REMARK  Name = 
REMARK  14 active torsions:
REMARK  status: ('A' for Active; 'I' for Inactive)
REMARK    1  A    between atoms: C_1  and  O_2
REMARK    2  A    between atoms: O_2  and  C_3
REMARK    3  A    between atoms: C_3  and  C_5
REMARK    4  A    between atoms: C_5  and  C_6
REMARK    5  A    between atoms: C_6  and  O_8
REMARK    6  A    between atoms: O_8  and  C_9
REMARK    7  A    between atoms: C_10  and  C_11
REMARK    8  A    between atoms: C_10  and  N_18
REMARK    9  A    between atoms: C_12  and  C_13
REMARK   10  A    between atoms: C_14  and  N_15
REMARK   11  A    between atoms: N_15  and  C_16
REMARK   12  A    between atoms: N_15  and  C_17
REMARK   13  A    between atoms: N_18  and  C_19
REMARK   14  A    between atoms: N_18  and  C_20
REMARK                            x       y       z     vdW  Elec       q    Type
REMARK                         _______ _______ _______ _____ _____    ______ ____
ROOT
ATOM      1  C   UNL     1       3.284   3.926  19.468  0.00  0.00    +0.000 C 
ATOM      2  C   UNL     1       3.858   5.055  18.947  0.00  0.00    +0.000 C 
ENDROOT
BRANCH   2   3
ATOM      3  N   UNL     1       5.157   5.175  18.365  0.00  0.00    +0.000 N 
ATOM      4  C   UNL     1       5.507   4.850  16.979  0.00  0.00    +0.000 C 
ATOM      5  C   UNL     1       6.358   5.551  19.136  0.00  0.00    +0.000 C 
ENDBRANCH   2   3
BRANCH   1   6
ATOM      6  C   UNL     1       1.951   3.849  20.138  0.00  0.00    +0.000 C 
ATOM      7  O   UNL     1       0.898   3.914  19.510  0.00  0.00    +0.000 OA
BRANCH   6   9
ATOM      8  C   UNL     1       1.493   2.501  21.994  0.00  0.00    +0.000 C 
ATOM      9  O   UNL     1       2.010   3.738  21.490  0.00  0.00    +0.000 OA
ENDBRANCH   6   9
ENDBRANCH   1   6
BRANCH   1  10
ATOM     10  C   UNL     1       4.039   2.636  19.584  0.00  0.00    +0.000 C 
ATOM     11  O   UNL     1       5.064   2.461  20.219  0.00  0.00    +0.000 OA
BRANCH  10  12
ATOM     12  O   UNL     1       3.395   1.668  18.868  0.00  0.00    +0.000 OA
ATOM     13  C   UNL     1       3.196   1.964  17.481  0.00  0.00    +0.000 C 
ENDBRANCH  10  12
ENDBRANCH   1  10
BRANCH   2  14
ATOM     14  C   UNL     1       3.110   6.343  19.028  0.00  0.00    +0.000 C 
ATOM     15  C   UNL     1       2.962   7.209  18.008  0.00  0.00    +0.000 C 
BRANCH  15  16
ATOM     16  C   UNL     1       2.287   8.493  18.080  0.00  0.00    +0.000 C 
ATOM     17  C   UNL     1       1.565   8.841  19.158  0.00  0.00    +0.000 C 
BRANCH  17  18
ATOM     18  N   UNL     1       0.837   9.985  19.458  0.00  0.00    +0.000 N 
ATOM     19  C   UNL     1       0.858  10.674  20.744  0.00  0.00    +0.000 C 
ATOM     20  C   UNL     1      -0.114  10.556  18.498  0.00  0.00    +0.000 C 
ENDBRANCH  17  18
ENDBRANCH  15  16
ENDBRANCH   2  14
TORSDOF 8
ENDMDL
MODEL 8
REMARK VINA RESULT:      -5.6      2.057      2.511
REMARK  Name = 
REMARK  14 active torsions:
REMARK  status: ('A' for Active; 'I' for Inactive)
REMARK    1  A    between atoms: C_1  and  O_2
REMARK    2  A    between atoms: O_2  and  C_3
REMARK    3  A    between atoms: C_3  and  C_5
REMARK    4  A    between atoms: C_5  and  C_6
REMARK    5  A    between atoms: C_6  and  O_8
REMARK    6  A    between atoms: O_8  and  C_9
REMARK    7  A    between atoms: C_10  and  C_11
REMARK    8  A    between atoms: C_10  and  N_18
REMARK    9  A    between atoms: C_12  and  C_13
REMARK   10  A    between atoms: C_14  and  N_15
REMARK   11  A    between atoms: N_15  and  C_16
REMARK   12  A    between atoms: N_15  and  C_17
REMARK   13  A    between atoms: N_18  and  C_19
REMARK   14  A    between atoms: N_18  and  C_20
REMARK                            x       y       z     vdW  Elec       q    Type
REMARK                         _______ _______ _______ _____ _____    ______ ____
ROOT
ATOM      1  C   UNL     1       4.336   5.309  18.304  0.00  0.00    +0.000 C 
ATOM      2  C   UNL     1       3.184   5.754  18.895  0.00  0.00    +0.000 C 
ENDROOT
BRANCH   2   3
ATOM      3  N   UNL     1       2.179   4.964  19.534  0.00  0.00    +0.000 N 
ATOM      4  C   UNL     1       1.943   4.883  20.978  0.00  0.00    +0.000 C 
ATOM      5  C   UNL     1       1.302   4.027  18.805  0.00  0.00    +0.000 C 
ENDBRANCH   2   3
BRANCH   1   6
ATOM      6  C   UNL     1       5.333   6.154  17.579  0.00  0.00    +0.000 C 
ATOM      7  O   UNL     1       5.138   6.561  16.437  0.00  0.00    +0.000 OA
BRANCH   6   9
ATOM      8  C   UNL     1       7.452   7.142  17.543  0.00  0.00    +0.000 C 
ATOM      9  O   UNL     1       6.473   6.397  18.275  0.00  0.00    +0.000 OA
ENDBRANCH   6   9
ENDBRANCH   1   6
BRANCH   1  10
ATOM     10  C   UNL     1       4.640   3.848  18.163  0.00  0.00    +0.000 C 
ATOM     11  O   UNL     1       4.459   3.172  17.165  0.00  0.00    +0.000 OA
BRANCH  10  12
ATOM     12  O   UNL     1       5.166   3.379  19.333  0.00  0.00    +0.000 OA
ATOM     13  C   UNL     1       4.448   2.297  19.935  0.00  0.00    +0.000 C 
ENDBRANCH  10  12
ENDBRANCH   1  10
BRANCH   2  14
ATOM     14  C   UNL     1       2.865   7.210  18.841  0.00  0.00    +0.000 C 
ATOM     15  C   UNL     1       2.125   7.797  17.882  0.00  0.00    +0.000 C 
BRANCH  15  16
ATOM     16  C   UNL     1       1.851   9.220  17.779  0.00  0.00    +0.000 C 
ATOM     17  C   UNL     1       1.203   9.877  18.755  0.00  0.00    +0.000 C 
BRANCH  17  18
ATOM     18  N   UNL     1       0.824  11.207  18.885  0.00  0.00    +0.000 N 
ATOM     19  C   UNL     1      -0.551  11.673  19.023  0.00  0.00    +0.000 C 
ATOM     20  C   UNL     1       1.809  12.291  18.798  0.00  0.00    +0.000 C 
ENDBRANCH  17  18
ENDBRANCH  15  16
ENDBRANCH   2  14
TORSDOF 8
ENDMDL
MODEL 9
REMARK VINA RESULT:      -5.6      2.404      2.931
REMARK  Name = 
REMARK  14 active torsions:
REMARK  status: ('A' for Active; 'I' for Inactive)
REMARK    1  A    between atoms: C_1  and  O_2
REMARK    2  A    between atoms: O_2  and  C_3
REMARK    3  A    between atoms: C_3  and  C_5
REMARK    4  A    between atoms: C_5  and  C_6
REMARK    5  A    between atoms: C_6  and  O_8
REMARK    6  A    between atoms: O_8  and  C_9
REMARK    7  A    between atoms: C_10  and  C_11
REMARK    8  A    between atoms: C_10  and  N_18
REMARK    9  A    between atoms: C_12  and  C_13
REMARK   10  A    between atoms: C_14  and  N_15
REMARK   11  A    between atoms: N_15  and  C_16
REMARK   12  A    between atoms: N_15  and  C_17
REMARK   13  A    between atoms: N_18  and  C_19
REMARK   14  A    between atoms: N_18  and  C_20
REMARK                            x       y       z     vdW  Elec       q    Type
REMARK                         _______ _______ _______ _____ _____    ______ ____
ROOT
ATOM      1  C   UNL     1       4.601   5.865  17.550  0.00  0.00    +0.000 C 
ATOM      2  C   UNL     1       3.303   6.068  17.938  0.00  0.00    +0.000 C 
ENDROOT
BRANCH   2   3
ATOM      3  N   UNL     1       2.457   5.153  18.636  0.00  0.00    +0.000 N 
ATOM      4  C   UNL     1       2.413   4.965  20.089  0.00  0.00    +0.000 C 
ATOM      5  C   UNL     1       1.574   4.186  17.954  0.00  0.00    +0.000 C 
ENDBRANCH   2   3
BRANCH   1   6
ATOM      6  C   UNL     1       5.438   6.814  16.755  0.00  0.00    +0.000 C 
ATOM      7  O   UNL     1       5.425   6.828  15.528  0.00  0.00    +0.000 OA
BRANCH   6   9
ATOM      8  C   UNL     1       7.619   7.281  17.458  0.00  0.00    +0.000 C 
ATOM      9  O   UNL     1       6.229   7.624  17.504  0.00  0.00    +0.000 OA
ENDBRANCH   6   9
ENDBRANCH   1   6
BRANCH   1  10
ATOM     10  C   UNL     1       5.285   4.544  17.736  0.00  0.00    +0.000 C 
ATOM     11  O   UNL     1       6.024   4.244  18.658  0.00  0.00    +0.000 OA
BRANCH  10  12
ATOM     12  O   UNL     1       4.947   3.709  16.709  0.00  0.00    +0.000 OA
ATOM     13  C   UNL     1       5.958   3.526  15.712  0.00  0.00    +0.000 C 
ENDBRANCH  10  12
ENDBRANCH   1  10
BRANCH   2  14
ATOM     14  C   UNL     1       2.633   7.346  17.561  0.00  0.00    +0.000 C 
ATOM     15  C   UNL     1       2.312   8.327  18.424  0.00  0.00    +0.000 C 
BRANCH  15  16
ATOM     16  C   UNL     1       1.609   9.553  18.087  0.00  0.00    +0.000 C 
ATOM     17  C   UNL     1       0.471   9.897  18.711  0.00  0.00    +0.000 C 
BRANCH  17  18
ATOM     18  N   UNL     1      -0.373  10.991  18.567  0.00  0.00    +0.000 N 
ATOM     19  C   UNL     1       0.025  12.382  18.756  0.00  0.00    +0.000 C 
ATOM     20  C   UNL     1      -1.803  10.818  18.293  0.00  0.00    +0.000 C 
ENDBRANCH  17  18
ENDBRANCH  15  16
ENDBRANCH   2  14
TORSDOF 8
ENDMDL
