MODEL 1
REMARK VINA RESULT:      -8.4      0.000      0.000
REMARK  Name = 
REMARK  10 active torsions:
REMARK  status: ('A' for Active; 'I' for Inactive)
REMARK    1  A    between atoms: C_1  and  O_2
REMARK    2  A    between atoms: O_2  and  C_3
REMARK    3  A    between atoms: C_6  and  C_7
REMARK    4  A    between atoms: C_7  and  C_8
REMARK    5  A    between atoms: C_8  and  N_9
REMARK    6  A    between atoms: C_10  and  C_12
REMARK    7  A    between atoms: C_12  and  N_13
REMARK    8  A    between atoms: C_14  and  C_16
REMARK    9  A    between atoms: C_26  and  O_27
REMARK   10  A    between atoms: O_27  and  C_28
REMARK                            x       y       z     vdW  Elec       q    Type
REMARK                         _______ _______ _______ _____ _____    ______ ____
ROOT
ATOM      1  N   UNL     1       8.364   7.856  18.641  0.00  0.00    +0.000 N 
ATOM      2  C   UNL     1       7.782   6.876  17.865  0.00  0.00    +0.000 C 
ATOM      3  O   UNL     1       7.374   7.069  16.724  0.00  0.00    +0.000 OA
ATOM      4  H   UNL     1       8.828   7.576  19.502  0.00  0.00    +0.000 HD
ENDROOT
BRANCH   1   5
ATOM      5  C   UNL     1       8.472   9.238  18.200  0.00  0.00    +0.000 C 
BRANCH   5   6
ATOM      6  C   UNL     1       9.138  10.126  19.252  0.00  0.00    +0.000 C 
BRANCH   6  10
ATOM      7  C   UNL     1      10.678  13.735  17.424  0.00  0.00    +0.000 A 
ATOM      8  C   UNL     1      11.457  12.567  17.478  0.00  0.00    +0.000 A 
ATOM      9  C   UNL     1      10.973  11.409  18.089  0.00  0.00    +0.000 A 
ATOM     10  C   UNL     1       9.714  11.401  18.686  0.00  0.00    +0.000 A 
ATOM     11  C   UNL     1       8.988  12.598  18.727  0.00  0.00    +0.000 A 
ATOM     12  C   UNL     1       9.455  13.771  18.108  0.00  0.00    +0.000 A 
BRANCH   7  14
ATOM     13  C   UNL     1      12.333  15.405  17.199  0.00  0.00    +0.000 C 
ATOM     14  O   UNL     1      11.109  14.836  16.731  0.00  0.00    +0.000 OA
ENDBRANCH   7  14
BRANCH  12  15
ATOM     15  O   UNL     1       8.576  14.813  18.255  0.00  0.00    +0.000 OA
ATOM     16  C   UNL     1       8.912  15.894  19.113  0.00  0.00    +0.000 C 
ENDBRANCH  12  15
ENDBRANCH   6  10
ENDBRANCH   5   6
ENDBRANCH   1   5
BRANCH   2  17
ATOM     17  C   UNL     1       7.756   5.485  18.509  0.00  0.00    +0.000 C 
BRANCH  17  18
ATOM     18  N   UNL     1       6.402   5.119  18.878  0.00  0.00    +0.000 N 
ATOM     19  C   UNL     1       5.583   4.467  17.983  0.00  0.00    +0.000 C 
ATOM     20  O   UNL     1       5.960   4.100  16.871  0.00  0.00    +0.000 OA
ATOM     21  H   UNL     1       5.982   5.640  19.639  0.00  0.00    +0.000 HD
BRANCH  19  22
ATOM     22  C   UNL     1       4.159   4.341  18.391  0.00  0.00    +0.000 A 
ATOM     23  C   UNL     1       3.145   4.016  17.459  0.00  0.00    +0.000 A 
ATOM     24  C   UNL     1       1.866   3.660  17.898  0.00  0.00    +0.000 A 
ATOM     25  C   UNL     1       1.663   3.605  19.259  0.00  0.00    +0.000 A 
ATOM     26  C   UNL     1       2.630   3.998  20.160  0.00  0.00    +0.000 A 
ATOM     27  C   UNL     1       3.875   4.417  19.760  0.00  0.00    +0.000 A 
ATOM     28  O   UNL     1       2.239   3.792  21.450  0.00  0.00    +0.000 OA
ATOM     29  C   UNL     1       1.118   2.918  21.212  0.00  0.00    +0.000 C 
ATOM     30  O   UNL     1       0.569   3.087  19.886  0.00  0.00    +0.000 OA
ENDBRANCH  19  22
ENDBRANCH  17  18
ENDBRANCH   2  17
TORSDOF 8
ENDMDL
MODEL 2
REMARK VINA RESULT:      -7.9      4.837      7.887
REMARK  Name = 
REMARK  10 active torsions:
REMARK  status: ('A' for Active; 'I' for Inactive)
REMARK    1  A    between atoms: C_1  and  O_2
REMARK    2  A    between atoms: O_2  and  C_3
REMARK    3  A    between atoms: C_6  and  C_7
REMARK    4  A    between atoms: C_7  and  C_8
REMARK    5  A    between atoms: C_8  and  N_9
REMARK    6  A    between atoms: C_10  and  C_12
REMARK    7  A    between atoms: C_12  and  N_13
REMARK    8  A    between atoms: C_14  and  C_16
REMARK    9  A    between atoms: C_26  and  O_27
REMARK   10  A    between atoms: O_27  and  C_28
REMARK                            x       y       z     vdW  Elec       q    Type
REMARK                         _______ _______ _______ _____ _____    ______ ____
ROOT
ATOM      1  N   UNL     1       2.743   2.458  19.244  0.00  0.00    +0.000 N 
ATOM      2  C   UNL     1       3.478   2.660  20.394  0.00  0.00    +0.000 C 
ATOM      3  O   UNL     1       4.691   2.486  20.464  0.00  0.00    +0.000 OA
ATOM      4  H   UNL     1       1.781   2.787  19.224  0.00  0.00    +0.000 HD
ENDROOT
BRANCH   1   5
ATOM      5  C   UNL     1       3.337   1.937  18.023  0.00  0.00    +0.000 C 
BRANCH   5   6
ATOM      6  C   UNL     1       3.149   2.891  16.843  0.00  0.00    +0.000 C 
BRANCH   6  10
ATOM      7  C   UNL     1       6.447   5.686  16.601  0.00  0.00    +0.000 A 
ATOM      8  C   UNL     1       5.495   5.784  17.630  0.00  0.00    +0.000 A 
ATOM      9  C   UNL     1       4.417   4.899  17.696  0.00  0.00    +0.000 A 
ATOM     10  C   UNL     1       4.248   3.920  16.720  0.00  0.00    +0.000 A 
ATOM     11  C   UNL     1       5.136   3.897  15.637  0.00  0.00    +0.000 A 
ATOM     12  C   UNL     1       6.233   4.773  15.559  0.00  0.00    +0.000 A 
BRANCH   7  14
ATOM     13  C   UNL     1       7.592   7.487  17.613  0.00  0.00    +0.000 C 
ATOM     14  O   UNL     1       7.561   6.483  16.596  0.00  0.00    +0.000 OA
ENDBRANCH   7  14
BRANCH  12  15
ATOM     15  O   UNL     1       6.978   4.560  14.428  0.00  0.00    +0.000 OA
ATOM     16  C   UNL     1       6.381   3.917  13.310  0.00  0.00    +0.000 C 
ENDBRANCH  12  15
ENDBRANCH   6  10
ENDBRANCH   5   6
ENDBRANCH   1   5
BRANCH   2  17
ATOM     17  C   UNL     1       2.671   3.207  21.577  0.00  0.00    +0.000 C 
BRANCH  17  18
ATOM     18  N   UNL     1       2.488   4.640  21.452  0.00  0.00    +0.000 N 
ATOM     19  C   UNL     1       1.581   5.156  20.553  0.00  0.00    +0.000 C 
ATOM     20  O   UNL     1       0.837   4.454  19.871  0.00  0.00    +0.000 OA
ATOM     21  H   UNL     1       3.253   5.225  21.768  0.00  0.00    +0.000 HD
BRANCH  19  22
ATOM     22  C   UNL     1       1.639   6.629  20.358  0.00  0.00    +0.000 A 
ATOM     23  C   UNL     1       2.183   7.201  19.182  0.00  0.00    +0.000 A 
ATOM     24  C   UNL     1       2.005   8.560  18.907  0.00  0.00    +0.000 A 
ATOM     25  C   UNL     1       1.253   9.287  19.803  0.00  0.00    +0.000 A 
ATOM     26  C   UNL     1       0.792   8.744  20.984  0.00  0.00    +0.000 A 
ATOM     27  C   UNL     1       1.007   7.429  21.316  0.00  0.00    +0.000 A 
ATOM     28  O   UNL     1       0.012   9.620  21.678  0.00  0.00    +0.000 OA
ATOM     29  C   UNL     1      -0.234  10.584  20.635  0.00  0.00    +0.000 C 
ATOM     30  O   UNL     1       0.791  10.556  19.617  0.00  0.00    +0.000 OA
ENDBRANCH  19  22
ENDBRANCH  17  18
ENDBRANCH   2  17
TORSDOF 8
ENDMDL
MODEL 3
REMARK VINA RESULT:      -7.9      1.099      1.182
REMARK  Name = 
REMARK  10 active torsions:
REMARK  status: ('A' for Active; 'I' for Inactive)
REMARK    1  A    between atoms: C_1  and  O_2
REMARK    2  A    between atoms: O_2  and  C_3
REMARK    3  A    between atoms: C_6  and  C_7
REMARK    4  A    between atoms: C_7  and  C_8
REMARK    5  A    between atoms: C_8  and  N_9
REMARK    6  A    between atoms: C_10  and  C_12
REMARK    7  A    between atoms: C_12  and  N_13
REMARK    8  A    between atoms: C_14  and  C_16
REMARK    9  A    between atoms: C_26  and  O_27
REMARK   10  A    between atoms: O_27  and  C_28
REMARK                            x       y       z     vdW  Elec       q    Type
REMARK                         _______ _______ _______ _____ _____    ______ ____
ROOT
ATOM      1  N   UNL     1       8.648   8.679  18.846  0.00  0.00    +0.000 N 
ATOM      2  C   UNL     1       7.982   7.702  18.137  0.00  0.00    +0.000 C 
ATOM      3  O   UNL     1       7.493   7.884  17.026  0.00  0.00    +0.000 OA
ATOM      4  H   UNL     1       9.167   8.402  19.676  0.00  0.00    +0.000 HD
ENDROOT
BRANCH   1   5
ATOM      5  C   UNL     1       8.760  10.049  18.368  0.00  0.00    +0.000 C 
BRANCH   5   6
ATOM      6  C   UNL     1      10.193  10.574  18.467  0.00  0.00    +0.000 C 
BRANCH   6  10
ATOM      7  C   UNL     1      10.436  14.758  17.379  0.00  0.00    +0.000 A 
ATOM      8  C   UNL     1      11.533  13.900  17.189  0.00  0.00    +0.000 A 
ATOM      9  C   UNL     1      11.465  12.556  17.563  0.00  0.00    +0.000 A 
ATOM     10  C   UNL     1      10.315  12.048  18.160  0.00  0.00    +0.000 A 
ATOM     11  C   UNL     1       9.266  12.931  18.447  0.00  0.00    +0.000 A 
ATOM     12  C   UNL     1       9.312  14.284  18.070  0.00  0.00    +0.000 A 
BRANCH   7  14
ATOM     13  C   UNL     1      11.527  16.852  17.427  0.00  0.00    +0.000 C 
ATOM     14  O   UNL     1      10.463  16.047  16.915  0.00  0.00    +0.000 OA
ENDBRANCH   7  14
BRANCH  12  15
ATOM     15  O   UNL     1       8.172  14.955  18.432  0.00  0.00    +0.000 OA
ATOM     16  C   UNL     1       6.966  14.715  17.721  0.00  0.00    +0.000 C 
ENDBRANCH  12  15
ENDBRANCH   6  10
ENDBRANCH   5   6
ENDBRANCH   1   5
BRANCH   2  17
ATOM     17  C   UNL     1       7.966   6.325  18.811  0.00  0.00    +0.000 C 
BRANCH  17  18
ATOM     18  N   UNL     1       6.612   5.809  18.887  0.00  0.00    +0.000 N 
ATOM     19  C   UNL     1       6.157   4.894  17.964  0.00  0.00    +0.000 C 
ATOM     20  O   UNL     1       6.870   4.415  17.084  0.00  0.00    +0.000 OA
ATOM     21  H   UNL     1       5.939   6.373  19.392  0.00  0.00    +0.000 HD
BRANCH  19  22
ATOM     22  C   UNL     1       4.699   4.608  18.010  0.00  0.00    +0.000 A 
ATOM     23  C   UNL     1       4.111   3.611  17.194  0.00  0.00    +0.000 A 
ATOM     24  C   UNL     1       2.799   3.187  17.427  0.00  0.00    +0.000 A 
ATOM     25  C   UNL     1       2.138   3.751  18.496  0.00  0.00    +0.000 A 
ATOM     26  C   UNL     1       2.687   4.776  19.238  0.00  0.00    +0.000 A 
ATOM     27  C   UNL     1       3.948   5.262  18.994  0.00  0.00    +0.000 A 
ATOM     28  O   UNL     1       1.891   5.128  20.287  0.00  0.00    +0.000 OA
ATOM     29  C   UNL     1       1.012   3.986  20.301  0.00  0.00    +0.000 C 
ATOM     30  O   UNL     1       0.949   3.333  19.014  0.00  0.00    +0.000 OA
ENDBRANCH  19  22
ENDBRANCH  17  18
ENDBRANCH   2  17
TORSDOF 8
ENDMDL
MODEL 4
REMARK VINA RESULT:      -7.9      1.693      2.101
REMARK  Name = 
REMARK  10 active torsions:
REMARK  status: ('A' for Active; 'I' for Inactive)
REMARK    1  A    between atoms: C_1  and  O_2
REMARK    2  A    between atoms: O_2  and  C_3
REMARK    3  A    between atoms: C_6  and  C_7
REMARK    4  A    between atoms: C_7  and  C_8
REMARK    5  A    between atoms: C_8  and  N_9
REMARK    6  A    between atoms: C_10  and  C_12
REMARK    7  A    between atoms: C_12  and  N_13
REMARK    8  A    between atoms: C_14  and  C_16
REMARK    9  A    between atoms: C_26  and  O_27
REMARK   10  A    between atoms: O_27  and  C_28
REMARK                            x       y       z     vdW  Elec       q    Type
REMARK                         _______ _______ _______ _____ _____    ______ ____
ROOT
ATOM      1  N   UNL     1       7.422   7.774  17.137  0.00  0.00    +0.000 N 
ATOM      2  C   UNL     1       7.546   6.590  17.834  0.00  0.00    +0.000 C 
ATOM      3  O   UNL     1       7.822   6.532  19.028  0.00  0.00    +0.000 OA
ATOM      4  H   UNL     1       7.025   7.741  16.201  0.00  0.00    +0.000 HD
ENDROOT
BRANCH   1   5
ATOM      5  C   UNL     1       7.691   9.067  17.746  0.00  0.00    +0.000 C 
BRANCH   5   6
ATOM      6  C   UNL     1       8.963   9.047  18.594  0.00  0.00    +0.000 C 
BRANCH   6  10
ATOM      7  C   UNL     1      10.186  13.078  19.593  0.00  0.00    +0.000 A 
ATOM      8  C   UNL     1      10.420  12.552  18.312  0.00  0.00    +0.000 A 
ATOM      9  C   UNL     1      10.050  11.244  17.995  0.00  0.00    +0.000 A 
ATOM     10  C   UNL     1       9.466  10.424  18.957  0.00  0.00    +0.000 A 
ATOM     11  C   UNL     1       9.335  10.916  20.262  0.00  0.00    +0.000 A 
ATOM     12  C   UNL     1       9.693  12.233  20.597  0.00  0.00    +0.000 A 
BRANCH   7  14
ATOM     13  C   UNL     1       9.515  15.327  19.330  0.00  0.00    +0.000 C 
ATOM     14  O   UNL     1      10.450  14.393  19.872  0.00  0.00    +0.000 OA
ENDBRANCH   7  14
BRANCH  12  15
ATOM     15  O   UNL     1       9.462  12.505  21.921  0.00  0.00    +0.000 OA
ATOM     16  C   UNL     1       8.386  11.860  22.588  0.00  0.00    +0.000 C 
ENDBRANCH  12  15
ENDBRANCH   6  10
ENDBRANCH   5   6
ENDBRANCH   1   5
BRANCH   2  17
ATOM     17  C   UNL     1       7.227   5.333  17.016  0.00  0.00    +0.000 C 
BRANCH  17  18
ATOM     18  N   UNL     1       5.998   4.720  17.481  0.00  0.00    +0.000 N 
ATOM     19  C   UNL     1       4.777   5.291  17.195  0.00  0.00    +0.000 C 
ATOM     20  O   UNL     1       4.651   6.288  16.486  0.00  0.00    +0.000 OA
ATOM     21  H   UNL     1       6.073   4.096  18.275  0.00  0.00    +0.000 HD
BRANCH  19  22
ATOM     22  C   UNL     1       3.611   4.701  17.904  0.00  0.00    +0.000 A 
ATOM     23  C   UNL     1       2.812   3.695  17.309  0.00  0.00    +0.000 A 
ATOM     24  C   UNL     1       1.884   2.982  18.075  0.00  0.00    +0.000 A 
ATOM     25  C   UNL     1       1.821   3.277  19.418  0.00  0.00    +0.000 A 
ATOM     26  C   UNL     1       2.546   4.310  19.976  0.00  0.00    +0.000 A 
ATOM     27  C   UNL     1       3.416   5.074  19.238  0.00  0.00    +0.000 A 
ATOM     28  O   UNL     1       2.384   4.374  21.328  0.00  0.00    +0.000 OA
ATOM     29  C   UNL     1       1.795   3.077  21.550  0.00  0.00    +0.000 C 
ATOM     30  O   UNL     1       1.146   2.566  20.365  0.00  0.00    +0.000 OA
ENDBRANCH  19  22
ENDBRANCH  17  18
ENDBRANCH   2  17
TORSDOF 8
ENDMDL
MODEL 5
REMARK VINA RESULT:      -7.8      5.758      8.341
REMARK  Name = 
REMARK  10 active torsions:
REMARK  status: ('A' for Active; 'I' for Inactive)
REMARK    1  A    between atoms: C_1  and  O_2
REMARK    2  A    between atoms: O_2  and  C_3
REMARK    3  A    between atoms: C_6  and  C_7
REMARK    4  A    between atoms: C_7  and  C_8
REMARK    5  A    between atoms: C_8  and  N_9
REMARK    6  A    between atoms: C_10  and  C_12
REMARK    7  A    between atoms: C_12  and  N_13
REMARK    8  A    between atoms: C_14  and  C_16
REMARK    9  A    between atoms: C_26  and  O_27
REMARK   10  A    between atoms: O_27  and  C_28
REMARK                            x       y       z     vdW  Elec       q    Type
REMARK                         _______ _______ _______ _____ _____    ______ ____
ROOT
ATOM      1  N   UNL     1       1.927   4.690  19.856  0.00  0.00    +0.000 N 
ATOM      2  C   UNL     1       1.696   3.395  20.272  0.00  0.00    +0.000 C 
ATOM      3  O   UNL     1       1.036   3.111  21.267  0.00  0.00    +0.000 OA
ATOM      4  H   UNL     1       2.335   4.833  18.935  0.00  0.00    +0.000 HD
ENDROOT
BRANCH   1   5
ATOM      5  C   UNL     1       1.471   5.845  20.614  0.00  0.00    +0.000 C 
BRANCH   5   6
ATOM      6  C   UNL     1       2.087   7.147  20.100  0.00  0.00    +0.000 C 
BRANCH   6  10
ATOM      7  C   UNL     1       0.284  10.796  21.575  0.00  0.00    +0.000 A 
ATOM      8  C   UNL     1       0.467   9.689  22.423  0.00  0.00    +0.000 A 
ATOM      9  C   UNL     1       1.025   8.503  21.943  0.00  0.00    +0.000 A 
ATOM     10  C   UNL     1       1.383   8.385  20.603  0.00  0.00    +0.000 A 
ATOM     11  C   UNL     1       1.097   9.449  19.739  0.00  0.00    +0.000 A 
ATOM     12  C   UNL     1       0.545  10.655  20.206  0.00  0.00    +0.000 A 
BRANCH   7  14
ATOM     13  C   UNL     1      -1.288  11.905  22.946  0.00  0.00    +0.000 C 
ATOM     14  O   UNL     1      -0.163  11.993  22.069  0.00  0.00    +0.000 OA
ENDBRANCH   7  14
BRANCH  12  15
ATOM     15  O   UNL     1       0.369  11.563  19.193  0.00  0.00    +0.000 OA
ATOM     16  C   UNL     1       1.408  12.484  18.893  0.00  0.00    +0.000 C 
ENDBRANCH  12  15
ENDBRANCH   6  10
ENDBRANCH   5   6
ENDBRANCH   1   5
BRANCH   2  17
ATOM     17  C   UNL     1       2.263   2.317  19.342  0.00  0.00    +0.000 C 
BRANCH  17  18
ATOM     18  N   UNL     1       3.177   2.900  18.380  0.00  0.00    +0.000 N 
ATOM     19  C   UNL     1       4.454   3.257  18.752  0.00  0.00    +0.000 C 
ATOM     20  O   UNL     1       4.912   3.043  19.873  0.00  0.00    +0.000 OA
ATOM     21  H   UNL     1       2.761   3.342  17.568  0.00  0.00    +0.000 HD
BRANCH  19  22
ATOM     22  C   UNL     1       5.219   4.042  17.747  0.00  0.00    +0.000 A 
ATOM     23  C   UNL     1       6.445   4.672  18.073  0.00  0.00    +0.000 A 
ATOM     24  C   UNL     1       7.266   5.188  17.066  0.00  0.00    +0.000 A 
ATOM     25  C   UNL     1       6.845   5.019  15.766  0.00  0.00    +0.000 A 
ATOM     26  C   UNL     1       5.615   4.476  15.458  0.00  0.00    +0.000 A 
ATOM     27  C   UNL     1       4.755   4.019  16.427  0.00  0.00    +0.000 A 
ATOM     28  O   UNL     1       5.440   4.338  14.113  0.00  0.00    +0.000 OA
ATOM     29  C   UNL     1       6.806   4.511  13.686  0.00  0.00    +0.000 C 
ATOM     30  O   UNL     1       7.585   5.259  14.646  0.00  0.00    +0.000 OA
ENDBRANCH  19  22
ENDBRANCH  17  18
ENDBRANCH   2  17
TORSDOF 8
ENDMDL
MODEL 6
REMARK VINA RESULT:      -7.7      5.950      8.364
REMARK  Name = 
REMARK  10 active torsions:
REMARK  status: ('A' for Active; 'I' for Inactive)
REMARK    1  A    between atoms: C_1  and  O_2
REMARK    2  A    between atoms: O_2  and  C_3
REMARK    3  A    between atoms: C_6  and  C_7
REMARK    4  A    between atoms: C_7  and  C_8
REMARK    5  A    between atoms: C_8  and  N_9
REMARK    6  A    between atoms: C_10  and  C_12
REMARK    7  A    between atoms: C_12  and  N_13
REMARK    8  A    between atoms: C_14  and  C_16
REMARK    9  A    between atoms: C_26  and  O_27
REMARK   10  A    between atoms: O_27  and  C_28
REMARK                            x       y       z     vdW  Elec       q    Type
REMARK                         _______ _______ _______ _____ _____    ______ ____
ROOT
ATOM      1  N   UNL     1       1.696   4.874  19.964  0.00  0.00    +0.000 N 
ATOM      2  C   UNL     1       1.746   3.595  20.478  0.00  0.00    +0.000 C 
ATOM      3  O   UNL     1       1.392   3.308  21.618  0.00  0.00    +0.000 OA
ATOM      4  H   UNL     1       1.844   4.997  18.965  0.00  0.00    +0.000 HD
ENDROOT
BRANCH   1   5
ATOM      5  C   UNL     1       1.292   6.020  20.765  0.00  0.00    +0.000 C 
BRANCH   5   6
ATOM      6  C   UNL     1       2.185   7.236  20.514  0.00  0.00    +0.000 C 
BRANCH   6  10
ATOM      7  C   UNL     1      -0.182  10.586  19.130  0.00  0.00    +0.000 A 
ATOM      8  C   UNL     1       0.708   9.928  18.265  0.00  0.00    +0.000 A 
ATOM      9  C   UNL     1       1.491   8.863  18.715  0.00  0.00    +0.000 A 
ATOM     10  C   UNL     1       1.425   8.454  20.045  0.00  0.00    +0.000 A 
ATOM     11  C   UNL     1       0.620   9.183  20.929  0.00  0.00    +0.000 A 
ATOM     12  C   UNL     1      -0.183  10.251  20.491  0.00  0.00    +0.000 A 
BRANCH   7  14
ATOM     13  C   UNL     1      -0.437  12.849  18.504  0.00  0.00    +0.000 C 
ATOM     14  O   UNL     1      -1.028  11.558  18.663  0.00  0.00    +0.000 OA
ENDBRANCH   7  14
BRANCH  12  15
ATOM     15  O   UNL     1      -0.903  10.805  21.519  0.00  0.00    +0.000 OA
ATOM     16  C   UNL     1      -0.654  10.380  22.852  0.00  0.00    +0.000 C 
ENDBRANCH  12  15
ENDBRANCH   6  10
ENDBRANCH   5   6
ENDBRANCH   1   5
BRANCH   2  17
ATOM     17  C   UNL     1       2.204   2.525  19.482  0.00  0.00    +0.000 C 
BRANCH  17  18
ATOM     18  N   UNL     1       3.102   3.096  18.496  0.00  0.00    +0.000 N 
ATOM     19  C   UNL     1       4.443   3.252  18.775  0.00  0.00    +0.000 C 
ATOM     20  O   UNL     1       4.961   2.862  19.819  0.00  0.00    +0.000 OA
ATOM     21  H   UNL     1       2.681   3.671  17.776  0.00  0.00    +0.000 HD
BRANCH  19  22
ATOM     22  C   UNL     1       5.215   4.044  17.783  0.00  0.00    +0.000 A 
ATOM     23  C   UNL     1       6.435   4.678  18.125  0.00  0.00    +0.000 A 
ATOM     24  C   UNL     1       7.265   5.202  17.130  0.00  0.00    +0.000 A 
ATOM     25  C   UNL     1       6.861   5.036  15.824  0.00  0.00    +0.000 A 
ATOM     26  C   UNL     1       5.637   4.488  15.500  0.00  0.00    +0.000 A 
ATOM     27  C   UNL     1       4.768   4.024  16.457  0.00  0.00    +0.000 A 
ATOM     28  O   UNL     1       5.479   4.354  14.153  0.00  0.00    +0.000 OA
ATOM     29  C   UNL     1       6.849   4.535  13.743  0.00  0.00    +0.000 C 
ATOM     30  O   UNL     1       7.613   5.283  14.715  0.00  0.00    +0.000 OA
ENDBRANCH  19  22
ENDBRANCH  17  18
ENDBRANCH   2  17
TORSDOF 8
ENDMDL
MODEL 7
REMARK VINA RESULT:      -7.7      1.593      1.671
REMARK  Name = 
REMARK  10 active torsions:
REMARK  status: ('A' for Active; 'I' for Inactive)
REMARK    1  A    between atoms: C_1  and  O_2
REMARK    2  A    between atoms: O_2  and  C_3
REMARK    3  A    between atoms: C_6  and  C_7
REMARK    4  A    between atoms: C_7  and  C_8
REMARK    5  A    between atoms: C_8  and  N_9
REMARK    6  A    between atoms: C_10  and  C_12
REMARK    7  A    between atoms: C_12  and  N_13
REMARK    8  A    between atoms: C_14  and  C_16
REMARK    9  A    between atoms: C_26  and  O_27
REMARK   10  A    between atoms: O_27  and  C_28
REMARK                            x       y       z     vdW  Elec       q    Type
REMARK                         _______ _______ _______ _____ _____    ______ ____
ROOT
ATOM      1  N   UNL     1       8.062   7.808  17.499  0.00  0.00    +0.000 N 
ATOM      2  C   UNL     1       6.886   7.110  17.319  0.00  0.00    +0.000 C 
ATOM      3  O   UNL     1       5.777   7.636  17.327  0.00  0.00    +0.000 OA
ATOM      4  H   UNL     1       8.939   7.329  17.308  0.00  0.00    +0.000 HD
ENDROOT
BRANCH   1   5
ATOM      5  C   UNL     1       8.085   9.231  17.798  0.00  0.00    +0.000 C 
BRANCH   5   6
ATOM      6  C   UNL     1       8.930   9.543  19.034  0.00  0.00    +0.000 C 
BRANCH   6  10
ATOM      7  C   UNL     1      10.755  13.460  18.763  0.00  0.00    +0.000 A 
ATOM      8  C   UNL     1      10.788  12.574  17.673  0.00  0.00    +0.000 A 
ATOM      9  C   UNL     1      10.222  11.301  17.766  0.00  0.00    +0.000 A 
ATOM     10  C   UNL     1       9.640  10.874  18.956  0.00  0.00    +0.000 A 
ATOM     11  C   UNL     1       9.707  11.718  20.072  0.00  0.00    +0.000 A 
ATOM     12  C   UNL     1      10.264  13.007  19.995  0.00  0.00    +0.000 A 
BRANCH   7  14
ATOM     13  C   UNL     1      10.724  15.454  17.498  0.00  0.00    +0.000 C 
ATOM     14  O   UNL     1      11.213  14.745  18.638  0.00  0.00    +0.000 OA
ENDBRANCH   7  14
BRANCH  12  15
ATOM     15  O   UNL     1      10.206  13.662  21.198  0.00  0.00    +0.000 OA
ATOM     16  C   UNL     1       9.261  13.247  22.174  0.00  0.00    +0.000 C 
ENDBRANCH  12  15
ENDBRANCH   6  10
ENDBRANCH   5   6
ENDBRANCH   1   5
BRANCH   2  17
ATOM     17  C   UNL     1       7.070   5.618  17.021  0.00  0.00    +0.000 C 
BRANCH  17  18
ATOM     18  N   UNL     1       6.054   4.833  17.696  0.00  0.00    +0.000 N 
ATOM     19  C   UNL     1       4.990   4.311  16.994  0.00  0.00    +0.000 C 
ATOM     20  O   UNL     1       4.875   4.412  15.774  0.00  0.00    +0.000 OA
ATOM     21  H   UNL     1       5.962   4.971  18.695  0.00  0.00    +0.000 HD
BRANCH  19  22
ATOM     22  C   UNL     1       3.906   3.718  17.821  0.00  0.00    +0.000 A 
ATOM     23  C   UNL     1       3.589   2.339  17.752  0.00  0.00    +0.000 A 
ATOM     24  C   UNL     1       2.749   1.757  18.706  0.00  0.00    +0.000 A 
ATOM     25  C   UNL     1       2.288   2.571  19.716  0.00  0.00    +0.000 A 
ATOM     26  C   UNL     1       2.536   3.928  19.734  0.00  0.00    +0.000 A 
ATOM     27  C   UNL     1       3.303   4.543  18.776  0.00  0.00    +0.000 A 
ATOM     28  O   UNL     1       2.048   4.520  20.861  0.00  0.00    +0.000 OA
ATOM     29  C   UNL     1       1.816   3.342  21.657  0.00  0.00    +0.000 C 
ATOM     30  O   UNL     1       1.638   2.162  20.842  0.00  0.00    +0.000 OA
ENDBRANCH  19  22
ENDBRANCH  17  18
ENDBRANCH   2  17
TORSDOF 8
ENDMDL
MODEL 8
REMARK VINA RESULT:      -7.7      1.386      1.974
REMARK  Name = 
REMARK  10 active torsions:
REMARK  status: ('A' for Active; 'I' for Inactive)
REMARK    1  A    between atoms: C_1  and  O_2
REMARK    2  A    between atoms: O_2  and  C_3
REMARK    3  A    between atoms: C_6  and  C_7
REMARK    4  A    between atoms: C_7  and  C_8
REMARK    5  A    between atoms: C_8  and  N_9
REMARK    6  A    between atoms: C_10  and  C_12
REMARK    7  A    between atoms: C_12  and  N_13
REMARK    8  A    between atoms: C_14  and  C_16
REMARK    9  A    between atoms: C_26  and  O_27
REMARK   10  A    between atoms: O_27  and  C_28
REMARK                            x       y       z     vdW  Elec       q    Type
REMARK                         _______ _______ _______ _____ _____    ______ ____
ROOT
ATOM      1  N   UNL     1       7.358   7.824  17.180  0.00  0.00    +0.000 N 
ATOM      2  C   UNL     1       7.647   6.706  17.934  0.00  0.00    +0.000 C 
ATOM      3  O   UNL     1       8.208   6.750  19.025  0.00  0.00    +0.000 OA
ATOM      4  H   UNL     1       6.743   7.716  16.377  0.00  0.00    +0.000 HD
ENDROOT
BRANCH   1   5
ATOM      5  C   UNL     1       7.772   9.160  17.579  0.00  0.00    +0.000 C 
BRANCH   5   6
ATOM      6  C   UNL     1       8.832   9.127  18.681  0.00  0.00    +0.000 C 
BRANCH   6  10
ATOM      7  C   UNL     1      10.444  12.979  19.823  0.00  0.00    +0.000 A 
ATOM      8  C   UNL     1      10.076  12.035  20.797  0.00  0.00    +0.000 A 
ATOM      9  C   UNL     1       9.533  10.802  20.432  0.00  0.00    +0.000 A 
ATOM     10  C   UNL     1       9.316  10.497  19.091  0.00  0.00    +0.000 A 
ATOM     11  C   UNL     1       9.581  11.482  18.131  0.00  0.00    +0.000 A 
ATOM     12  C   UNL     1      10.137  12.725  18.479  0.00  0.00    +0.000 A 
BRANCH   7  14
ATOM     13  C   UNL     1      10.499  14.833  21.285  0.00  0.00    +0.000 C 
ATOM     14  O   UNL     1      11.076  14.142  20.175  0.00  0.00    +0.000 OA
ENDBRANCH   7  14
BRANCH  12  15
ATOM     15  O   UNL     1      10.331  13.525  17.382  0.00  0.00    +0.000 OA
ATOM     16  C   UNL     1      11.548  13.429  16.655  0.00  0.00    +0.000 C 
ENDBRANCH  12  15
ENDBRANCH   6  10
ENDBRANCH   5   6
ENDBRANCH   1   5
BRANCH   2  17
ATOM     17  C   UNL     1       7.134   5.388  17.342  0.00  0.00    +0.000 C 
BRANCH  17  18
ATOM     18  N   UNL     1       5.920   4.965  18.013  0.00  0.00    +0.000 N 
ATOM     19  C   UNL     1       4.883   4.405  17.300  0.00  0.00    +0.000 C 
ATOM     20  O   UNL     1       4.947   4.167  16.095  0.00  0.00    +0.000 OA
ATOM     21  H   UNL     1       5.723   5.394  18.910  0.00  0.00    +0.000 HD
BRANCH  19  22
ATOM     22  C   UNL     1       3.615   4.216  18.053  0.00  0.00    +0.000 A 
ATOM     23  C   UNL     1       2.434   3.762  17.417  0.00  0.00    +0.000 A 
ATOM     24  C   UNL     1       1.332   3.356  18.176  0.00  0.00    +0.000 A 
ATOM     25  C   UNL     1       1.470   3.382  19.546  0.00  0.00    +0.000 A 
ATOM     26  C   UNL     1       2.593   3.898  20.159  0.00  0.00    +0.000 A 
ATOM     27  C   UNL     1       3.666   4.367  19.443  0.00  0.00    +0.000 A 
ATOM     28  O   UNL     1       2.543   3.756  21.514  0.00  0.00    +0.000 OA
ATOM     29  C   UNL     1       1.471   2.797  21.605  0.00  0.00    +0.000 C 
ATOM     30  O   UNL     1       0.606   2.839  20.449  0.00  0.00    +0.000 OA
ENDBRANCH  19  22
ENDBRANCH  17  18
ENDBRANCH   2  17
TORSDOF 8
ENDMDL
MODEL 9
REMARK VINA RESULT:      -7.6      1.231      1.338
REMARK  Name = 
REMARK  10 active torsions:
REMARK  status: ('A' for Active; 'I' for Inactive)
REMARK    1  A    between atoms: C_1  and  O_2
REMARK    2  A    between atoms: O_2  and  C_3
REMARK    3  A    between atoms: C_6  and  C_7
REMARK    4  A    between atoms: C_7  and  C_8
REMARK    5  A    between atoms: C_8  and  N_9
REMARK    6  A    between atoms: C_10  and  C_12
REMARK    7  A    between atoms: C_12  and  N_13
REMARK    8  A    between atoms: C_14  and  C_16
REMARK    9  A    between atoms: C_26  and  O_27
REMARK   10  A    between atoms: O_27  and  C_28
REMARK                            x       y       z     vdW  Elec       q    Type
REMARK                         _______ _______ _______ _____ _____    ______ ____
ROOT
ATOM      1  N   UNL     1       8.731   8.673  18.922  0.00  0.00    +0.000 N 
ATOM      2  C   UNL     1       8.071   7.727  18.165  0.00  0.00    +0.000 C 
ATOM      3  O   UNL     1       7.599   7.956  17.055  0.00  0.00    +0.000 OA
ATOM      4  H   UNL     1       9.238   8.360  19.746  0.00  0.00    +0.000 HD
ENDROOT
BRANCH   1   5
ATOM      5  C   UNL     1       8.856  10.059  18.500  0.00  0.00    +0.000 C 
BRANCH   5   6
ATOM      6  C   UNL     1      10.254  10.617  18.771  0.00  0.00    +0.000 C 
BRANCH   6  10
ATOM      7  C   UNL     1      10.660  14.668  17.299  0.00  0.00    +0.000 A 
ATOM      8  C   UNL     1      11.763  13.798  17.326  0.00  0.00    +0.000 A 
ATOM      9  C   UNL     1      11.641  12.500  17.824  0.00  0.00    +0.000 A 
ATOM     10  C   UNL     1      10.425  12.052  18.332  0.00  0.00    +0.000 A 
ATOM     11  C   UNL     1       9.358  12.956  18.405  0.00  0.00    +0.000 A 
ATOM     12  C   UNL     1       9.460  14.265  17.900  0.00  0.00    +0.000 A 
BRANCH   7  14
ATOM     13  C   UNL     1      11.227  16.945  17.568  0.00  0.00    +0.000 C 
ATOM     14  O   UNL     1      10.752  15.903  16.713  0.00  0.00    +0.000 OA
ENDBRANCH   7  14
BRANCH  12  15
ATOM     15  O   UNL     1       8.291  14.966  18.057  0.00  0.00    +0.000 OA
ATOM     16  C   UNL     1       7.637  14.956  19.318  0.00  0.00    +0.000 C 
ENDBRANCH  12  15
ENDBRANCH   6  10
ENDBRANCH   5   6
ENDBRANCH   1   5
BRANCH   2  17
ATOM     17  C   UNL     1       8.040   6.325  18.783  0.00  0.00    +0.000 C 
BRANCH  17  18
ATOM     18  N   UNL     1       6.673   5.901  19.020  0.00  0.00    +0.000 N 
ATOM     19  C   UNL     1       6.095   4.925  18.237  0.00  0.00    +0.000 C 
ATOM     20  O   UNL     1       6.707   4.318  17.360  0.00  0.00    +0.000 OA
ATOM     21  H   UNL     1       6.074   6.552  19.513  0.00  0.00    +0.000 HD
BRANCH  19  22
ATOM     22  C   UNL     1       4.634   4.733  18.428  0.00  0.00    +0.000 A 
ATOM     23  C   UNL     1       3.687   5.607  17.842  0.00  0.00    +0.000 A 
ATOM     24  C   UNL     1       2.329   5.273  17.823  0.00  0.00    +0.000 A 
ATOM     25  C   UNL     1       1.977   4.054  18.359  0.00  0.00    +0.000 A 
ATOM     26  C   UNL     1       2.891   3.242  18.997  0.00  0.00    +0.000 A 
ATOM     27  C   UNL     1       4.221   3.572  19.091  0.00  0.00    +0.000 A 
ATOM     28  O   UNL     1       2.339   2.057  19.382  0.00  0.00    +0.000 OA
ATOM     29  C   UNL     1       1.130   2.102  18.599  0.00  0.00    +0.000 C 
ATOM     30  O   UNL     1       0.757   3.455  18.253  0.00  0.00    +0.000 OA
ENDBRANCH  19  22
ENDBRANCH  17  18
ENDBRANCH   2  17
TORSDOF 8
ENDMDL
