MODEL 1
REMARK VINA RESULT:      -7.9      0.000      0.000
REMARK  Name = 
REMARK  10 active torsions:
REMARK  status: ('A' for Active; 'I' for Inactive)
REMARK    1  A    between atoms: C_1  and  C_2
REMARK    2  A    between atoms: C_5  and  C_6
REMARK    3  A    between atoms: C_9  and  C_11
REMARK    4  A    between atoms: C_11  and  O_12
REMARK    5  A    between atoms: O_12  and  C_13
REMARK    6  A    between atoms: C_13  and  C_14
REMARK    7  A    between atoms: C_14  and  C_17
REMARK    8  A    between atoms: C_21  and  N_22
REMARK    9  A    between atoms: N_22  and  C_23
REMARK   10  A    between atoms: N_22  and  C_24
REMARK                            x       y       z     vdW  Elec       q    Type
REMARK                         _______ _______ _______ _____ _____    ______ ____
ROOT
ATOM      1  C   UNL     1       2.630   5.141  18.060  0.00  0.00    +0.000 C 
ATOM      2  C   UNL     1       3.973   5.349  17.354  0.00  0.00    +0.000 C 
ATOM      3  N   UNL     1       4.945   5.033  18.381  0.00  0.00    +0.000 N 
ATOM      4  C   UNL     1       6.127   5.674  18.657  0.00  0.00    +0.000 C 
ATOM      5  O   UNL     1       6.775   5.408  19.671  0.00  0.00    +0.000 OA
ATOM      6  C   UNL     1       4.406   4.048  19.303  0.00  0.00    +0.000 C 
ATOM      7  C   UNL     1       2.895   3.879  18.953  0.00  0.00    +0.000 C 
ENDROOT
BRANCH   1  12
ATOM      8  C   UNL     1       1.044  10.082  20.791  0.00  0.00    +0.000 C 
ATOM      9  C   UNL     1       1.460   8.823  20.091  0.00  0.00    +0.000 A 
ATOM     10  C   UNL     1       1.812   8.819  18.739  0.00  0.00    +0.000 A 
ATOM     11  C   UNL     1       2.182   7.628  18.105  0.00  0.00    +0.000 A 
ATOM     12  C   UNL     1       2.202   6.409  18.803  0.00  0.00    +0.000 A 
ATOM     13  C   UNL     1       1.860   6.431  20.163  0.00  0.00    +0.000 A 
ATOM     14  C   UNL     1       1.493   7.619  20.798  0.00  0.00    +0.000 A 
ENDBRANCH   1  12
BRANCH   7  15
ATOM     15  N   UNL     1       2.593   2.578  18.278  0.00  0.00    +0.000 NA
ATOM     16  C   UNL     1       3.641   1.580  18.557  0.00  0.00    +0.000 C 
ATOM     17  C   UNL     1       1.319   2.015  18.757  0.00  0.00    +0.000 C 
ENDBRANCH   7  15
BRANCH   4  18
ATOM     18  C   UNL     1       6.615   6.719  17.642  0.00  0.00    +0.000 C 
BRANCH  18  19
ATOM     19  O   UNL     1       7.625   6.278  16.740  0.00  0.00    +0.000 OA
BRANCH  19  20
ATOM     20  C   UNL     1       7.386   4.962  16.225  0.00  0.00    +0.000 C 
BRANCH  20  21
ATOM     21  C   UNL     1       6.806   5.029  14.817  0.00  0.00    +0.000 C 
ATOM     22  F   UNL     1       5.913   6.057  14.763  0.00  0.00    +0.000 F 
ATOM     23  F   UNL     1       7.805   5.356  13.946  0.00  0.00    +0.000 F 
BRANCH  21  24
ATOM     24  C   UNL     1       6.154   3.719  14.400  0.00  0.00    +0.000 C 
ATOM     25  F   UNL     1       5.766   2.998  15.484  0.00  0.00    +0.000 F 
ATOM     26  F   UNL     1       5.021   3.958  13.682  0.00  0.00    +0.000 F 
ENDBRANCH  21  24
ENDBRANCH  20  21
ENDBRANCH  19  20
ENDBRANCH  18  19
ENDBRANCH   4  18
TORSDOF 7
ENDMDL
MODEL 2
REMARK VINA RESULT:      -7.9      1.225      1.915
REMARK  Name = 
REMARK  10 active torsions:
REMARK  status: ('A' for Active; 'I' for Inactive)
REMARK    1  A    between atoms: C_1  and  C_2
REMARK    2  A    between atoms: C_5  and  C_6
REMARK    3  A    between atoms: C_9  and  C_11
REMARK    4  A    between atoms: C_11  and  O_12
REMARK    5  A    between atoms: O_12  and  C_13
REMARK    6  A    between atoms: C_13  and  C_14
REMARK    7  A    between atoms: C_14  and  C_17
REMARK    8  A    between atoms: C_21  and  N_22
REMARK    9  A    between atoms: N_22  and  C_23
REMARK   10  A    between atoms: N_22  and  C_24
REMARK                            x       y       z     vdW  Elec       q    Type
REMARK                         _______ _______ _______ _____ _____    ______ ____
ROOT
ATOM      1  C   UNL     1       3.105   4.882  18.329  0.00  0.00    +0.000 C 
ATOM      2  C   UNL     1       4.268   4.778  17.338  0.00  0.00    +0.000 C 
ATOM      3  N   UNL     1       5.436   4.995  18.168  0.00  0.00    +0.000 N 
ATOM      4  C   UNL     1       6.563   5.722  17.874  0.00  0.00    +0.000 C 
ATOM      5  O   UNL     1       7.406   5.970  18.738  0.00  0.00    +0.000 OA
ATOM      6  C   UNL     1       5.190   4.531  19.522  0.00  0.00    +0.000 C 
ATOM      7  C   UNL     1       3.672   4.180  19.611  0.00  0.00    +0.000 C 
ENDROOT
BRANCH   1  12
ATOM      8  C   UNL     1       1.355  10.422  19.128  0.00  0.00    +0.000 C 
ATOM      9  C   UNL     1       1.791   9.002  18.925  0.00  0.00    +0.000 A 
ATOM     10  C   UNL     1       1.736   8.065  19.959  0.00  0.00    +0.000 A 
ATOM     11  C   UNL     1       2.164   6.749  19.750  0.00  0.00    +0.000 A 
ATOM     12  C   UNL     1       2.665   6.338  18.502  0.00  0.00    +0.000 A 
ATOM     13  C   UNL     1       2.701   7.287  17.470  0.00  0.00    +0.000 A 
ATOM     14  C   UNL     1       2.272   8.599  17.677  0.00  0.00    +0.000 A 
ENDBRANCH   1  12
BRANCH   7  15
ATOM     15  N   UNL     1       3.415   2.707  19.666  0.00  0.00    +0.000 NA
ATOM     16  C   UNL     1       4.358   2.037  20.579  0.00  0.00    +0.000 C 
ATOM     17  C   UNL     1       2.057   2.423  20.161  0.00  0.00    +0.000 C 
ENDBRANCH   7  15
BRANCH   4  18
ATOM     18  C   UNL     1       6.736   6.197  16.422  0.00  0.00    +0.000 C 
BRANCH  18  19
ATOM     19  O   UNL     1       7.574   5.386  15.604  0.00  0.00    +0.000 OA
BRANCH  19  20
ATOM     20  C   UNL     1       7.123   5.297  14.247  0.00  0.00    +0.000 C 
BRANCH  20  21
ATOM     21  C   UNL     1       6.114   4.167  14.084  0.00  0.00    +0.000 C 
ATOM     22  F   UNL     1       6.276   3.288  15.113  0.00  0.00    +0.000 F 
ATOM     23  F   UNL     1       4.856   4.678  14.226  0.00  0.00    +0.000 F 
BRANCH  21  24
ATOM     24  C   UNL     1       6.247   3.465  12.741  0.00  0.00    +0.000 C 
ATOM     25  F   UNL     1       5.057   3.437  12.084  0.00  0.00    +0.000 F 
ATOM     26  F   UNL     1       7.107   4.143  11.932  0.00  0.00    +0.000 F 
ENDBRANCH  21  24
ENDBRANCH  20  21
ENDBRANCH  19  20
ENDBRANCH  18  19
ENDBRANCH   4  18
TORSDOF 7
ENDMDL
MODEL 3
REMARK VINA RESULT:      -7.8      0.759      1.439
REMARK  Name = 
REMARK  10 active torsions:
REMARK  status: ('A' for Active; 'I' for Inactive)
REMARK    1  A    between atoms: C_1  and  C_2
REMARK    2  A    between atoms: C_5  and  C_6
REMARK    3  A    between atoms: C_9  and  C_11
REMARK    4  A    between atoms: C_11  and  O_12
REMARK    5  A    between atoms: O_12  and  C_13
REMARK    6  A    between atoms: C_13  and  C_14
REMARK    7  A    between atoms: C_14  and  C_17
REMARK    8  A    between atoms: C_21  and  N_22
REMARK    9  A    between atoms: N_22  and  C_23
REMARK   10  A    between atoms: N_22  and  C_24
REMARK                            x       y       z     vdW  Elec       q    Type
REMARK                         _______ _______ _______ _____ _____    ______ ____
ROOT
ATOM      1  C   UNL     1       2.611   4.787  18.440  0.00  0.00    +0.000 C 
ATOM      2  C   UNL     1       3.922   4.749  17.650  0.00  0.00    +0.000 C 
ATOM      3  N   UNL     1       4.934   4.661  18.682  0.00  0.00    +0.000 N 
ATOM      4  C   UNL     1       6.149   5.298  18.737  0.00  0.00    +0.000 C 
ATOM      5  O   UNL     1       6.839   5.270  19.758  0.00  0.00    +0.000 OA
ATOM      6  C   UNL     1       4.412   3.968  19.847  0.00  0.00    +0.000 C 
ATOM      7  C   UNL     1       2.880   3.783  19.614  0.00  0.00    +0.000 C 
ENDROOT
BRANCH   1  12
ATOM      8  C   UNL     1       1.220  10.222  20.148  0.00  0.00    +0.000 C 
ATOM      9  C   UNL     1       1.564   8.829  19.713  0.00  0.00    +0.000 A 
ATOM     10  C   UNL     1       1.528   7.754  20.605  0.00  0.00    +0.000 A 
ATOM     11  C   UNL     1       1.869   6.466  20.178  0.00  0.00    +0.000 A 
ATOM     12  C   UNL     1       2.263   6.220  18.852  0.00  0.00    +0.000 A 
ATOM     13  C   UNL     1       2.281   7.307  17.966  0.00  0.00    +0.000 A 
ATOM     14  C   UNL     1       1.939   8.593  18.389  0.00  0.00    +0.000 A 
ENDBRANCH   1  12
BRANCH   7  15
ATOM     15  N   UNL     1       2.502   2.368  19.307  0.00  0.00    +0.000 NA
ATOM     16  C   UNL     1       1.253   2.310  18.527  0.00  0.00    +0.000 C 
ATOM     17  C   UNL     1       3.544   1.701  18.509  0.00  0.00    +0.000 C 
ENDBRANCH   7  15
BRANCH   4  18
ATOM     18  C   UNL     1       6.619   6.029  17.469  0.00  0.00    +0.000 C 
BRANCH  18  19
ATOM     19  O   UNL     1       7.559   5.324  16.663  0.00  0.00    +0.000 OA
BRANCH  19  20
ATOM     20  C   UNL     1       6.958   4.299  15.862  0.00  0.00    +0.000 C 
BRANCH  20  21
ATOM     21  C   UNL     1       6.602   4.831  14.480  0.00  0.00    +0.000 C 
ATOM     22  F   UNL     1       5.633   5.780  14.614  0.00  0.00    +0.000 F 
ATOM     23  F   UNL     1       7.688   5.479  13.965  0.00  0.00    +0.000 F 
BRANCH  21  24
ATOM     24  C   UNL     1       6.154   3.726  13.534  0.00  0.00    +0.000 C 
ATOM     25  F   UNL     1       4.865   3.909  13.144  0.00  0.00    +0.000 F 
ATOM     26  F   UNL     1       6.898   3.745  12.393  0.00  0.00    +0.000 F 
ENDBRANCH  21  24
ENDBRANCH  20  21
ENDBRANCH  19  20
ENDBRANCH  18  19
ENDBRANCH   4  18
TORSDOF 7
ENDMDL
MODEL 4
REMARK VINA RESULT:      -7.6      0.662      1.583
REMARK  Name = 
REMARK  10 active torsions:
REMARK  status: ('A' for Active; 'I' for Inactive)
REMARK    1  A    between atoms: C_1  and  C_2
REMARK    2  A    between atoms: C_5  and  C_6
REMARK    3  A    between atoms: C_9  and  C_11
REMARK    4  A    between atoms: C_11  and  O_12
REMARK    5  A    between atoms: O_12  and  C_13
REMARK    6  A    between atoms: C_13  and  C_14
REMARK    7  A    between atoms: C_14  and  C_17
REMARK    8  A    between atoms: C_21  and  N_22
REMARK    9  A    between atoms: N_22  and  C_23
REMARK   10  A    between atoms: N_22  and  C_24
REMARK                            x       y       z     vdW  Elec       q    Type
REMARK                         _______ _______ _______ _____ _____    ______ ____
ROOT
ATOM      1  C   UNL     1       2.572   5.116  18.071  0.00  0.00    +0.000 C 
ATOM      2  C   UNL     1       3.886   5.308  17.309  0.00  0.00    +0.000 C 
ATOM      3  N   UNL     1       4.897   4.973  18.292  0.00  0.00    +0.000 N 
ATOM      4  C   UNL     1       6.099   5.595  18.520  0.00  0.00    +0.000 C 
ATOM      5  O   UNL     1       6.786   5.315  19.504  0.00  0.00    +0.000 OA
ATOM      6  C   UNL     1       4.384   3.991  19.232  0.00  0.00    +0.000 C 
ATOM      7  C   UNL     1       2.856   3.845  18.946  0.00  0.00    +0.000 C 
ENDROOT
BRANCH   1  12
ATOM      8  C   UNL     1       1.073   9.893  21.125  0.00  0.00    +0.000 C 
ATOM      9  C   UNL     1       1.445   8.668  20.345  0.00  0.00    +0.000 A 
ATOM     10  C   UNL     1       1.452   7.401  20.933  0.00  0.00    +0.000 A 
ATOM     11  C   UNL     1       1.819   6.274  20.188  0.00  0.00    +0.000 A 
ATOM     12  C   UNL     1       2.195   6.386  18.839  0.00  0.00    +0.000 A 
ATOM     13  C   UNL     1       2.169   7.663  18.259  0.00  0.00    +0.000 A 
ATOM     14  C   UNL     1       1.802   8.788  19.000  0.00  0.00    +0.000 A 
ENDBRANCH   1  12
BRANCH   7  15
ATOM     15  N   UNL     1       2.507   2.553  18.279  0.00  0.00    +0.000 NA
ATOM     16  C   UNL     1       3.532   1.527  18.540  0.00  0.00    +0.000 C 
ATOM     17  C   UNL     1       1.227   2.025  18.781  0.00  0.00    +0.000 C 
ENDBRANCH   7  15
BRANCH   4  18
ATOM     18  C   UNL     1       6.559   6.640  17.490  0.00  0.00    +0.000 C 
BRANCH  18  19
ATOM     19  O   UNL     1       6.308   6.312  16.127  0.00  0.00    +0.000 OA
BRANCH  19  20
ATOM     20  C   UNL     1       7.106   5.220  15.653  0.00  0.00    +0.000 C 
BRANCH  20  21
ATOM     21  C   UNL     1       6.312   4.347  14.689  0.00  0.00    +0.000 C 
ATOM     22  F   UNL     1       6.036   3.162  15.301  0.00  0.00    +0.000 F 
ATOM     23  F   UNL     1       5.103   4.938  14.457  0.00  0.00    +0.000 F 
BRANCH  21  24
ATOM     24  C   UNL     1       7.047   4.123  13.375  0.00  0.00    +0.000 C 
ATOM     25  F   UNL     1       6.179   3.820  12.375  0.00  0.00    +0.000 F 
ATOM     26  F   UNL     1       7.686   5.262  12.987  0.00  0.00    +0.000 F 
ENDBRANCH  21  24
ENDBRANCH  20  21
ENDBRANCH  19  20
ENDBRANCH  18  19
ENDBRANCH   4  18
TORSDOF 7
ENDMDL
MODEL 5
REMARK VINA RESULT:      -7.5      1.896      2.608
REMARK  Name = 
REMARK  10 active torsions:
REMARK  status: ('A' for Active; 'I' for Inactive)
REMARK    1  A    between atoms: C_1  and  C_2
REMARK    2  A    between atoms: C_5  and  C_6
REMARK    3  A    between atoms: C_9  and  C_11
REMARK    4  A    between atoms: C_11  and  O_12
REMARK    5  A    between atoms: O_12  and  C_13
REMARK    6  A    between atoms: C_13  and  C_14
REMARK    7  A    between atoms: C_14  and  C_17
REMARK    8  A    between atoms: C_21  and  N_22
REMARK    9  A    between atoms: N_22  and  C_23
REMARK   10  A    between atoms: N_22  and  C_24
REMARK                            x       y       z     vdW  Elec       q    Type
REMARK                         _______ _______ _______ _____ _____    ______ ____
ROOT
ATOM      1  C   UNL     1       3.402   4.413  18.138  0.00  0.00    +0.000 C 
ATOM      2  C   UNL     1       4.192   4.264  16.835  0.00  0.00    +0.000 C 
ATOM      3  N   UNL     1       5.549   4.585  17.226  0.00  0.00    +0.000 N 
ATOM      4  C   UNL     1       6.480   5.320  16.535  0.00  0.00    +0.000 C 
ATOM      5  O   UNL     1       7.540   5.664  17.062  0.00  0.00    +0.000 OA
ATOM      6  C   UNL     1       5.776   4.226  18.615  0.00  0.00    +0.000 C 
ATOM      7  C   UNL     1       4.387   3.836  19.213  0.00  0.00    +0.000 C 
ENDROOT
BRANCH   1  12
ATOM      8  C   UNL     1       1.636   9.928  19.060  0.00  0.00    +0.000 C 
ATOM      9  C   UNL     1       2.077   8.515  18.825  0.00  0.00    +0.000 A 
ATOM     10  C   UNL     1       1.964   7.539  19.818  0.00  0.00    +0.000 A 
ATOM     11  C   UNL     1       2.397   6.229  19.580  0.00  0.00    +0.000 A 
ATOM     12  C   UNL     1       2.960   5.864  18.345  0.00  0.00    +0.000 A 
ATOM     13  C   UNL     1       3.053   6.851  17.354  0.00  0.00    +0.000 A 
ATOM     14  C   UNL     1       2.620   8.158  17.589  0.00  0.00    +0.000 A 
ENDBRANCH   1  12
BRANCH   7  15
ATOM     15  N   UNL     1       4.244   2.366  19.448  0.00  0.00    +0.000 NA
ATOM     16  C   UNL     1       4.613   2.010  20.830  0.00  0.00    +0.000 C 
ATOM     17  C   UNL     1       2.852   1.928  19.245  0.00  0.00    +0.000 C 
ENDBRANCH   7  15
BRANCH   4  18
ATOM     18  C   UNL     1       6.154   5.679  15.076  0.00  0.00    +0.000 C 
BRANCH  18  19
ATOM     19  O   UNL     1       6.783   4.870  14.087  0.00  0.00    +0.000 OA
BRANCH  19  20
ATOM     20  C   UNL     1       5.983   3.754  13.679  0.00  0.00    +0.000 C 
BRANCH  20  21
ATOM     21  C   UNL     1       6.140   3.492  12.186  0.00  0.00    +0.000 C 
ATOM     22  F   UNL     1       4.976   3.825  11.560  0.00  0.00    +0.000 F 
ATOM     23  F   UNL     1       7.087   4.341  11.689  0.00  0.00    +0.000 F 
BRANCH  21  24
ATOM     24  C   UNL     1       6.523   2.049  11.891  0.00  0.00    +0.000 C 
ATOM     25  F   UNL     1       5.544   1.416  11.192  0.00  0.00    +0.000 F 
ATOM     26  F   UNL     1       7.635   2.002  11.106  0.00  0.00    +0.000 F 
ENDBRANCH  21  24
ENDBRANCH  20  21
ENDBRANCH  19  20
ENDBRANCH  18  19
ENDBRANCH   4  18
TORSDOF 7
ENDMDL
MODEL 6
REMARK VINA RESULT:      -7.4      1.267      1.988
REMARK  Name = 
REMARK  10 active torsions:
REMARK  status: ('A' for Active; 'I' for Inactive)
REMARK    1  A    between atoms: C_1  and  C_2
REMARK    2  A    between atoms: C_5  and  C_6
REMARK    3  A    between atoms: C_9  and  C_11
REMARK    4  A    between atoms: C_11  and  O_12
REMARK    5  A    between atoms: O_12  and  C_13
REMARK    6  A    between atoms: C_13  and  C_14
REMARK    7  A    between atoms: C_14  and  C_17
REMARK    8  A    between atoms: C_21  and  N_22
REMARK    9  A    between atoms: N_22  and  C_23
REMARK   10  A    between atoms: N_22  and  C_24
REMARK                            x       y       z     vdW  Elec       q    Type
REMARK                         _______ _______ _______ _____ _____    ______ ____
ROOT
ATOM      1  C   UNL     1       2.686   5.237  18.612  0.00  0.00    +0.000 C 
ATOM      2  C   UNL     1       3.767   5.104  17.535  0.00  0.00    +0.000 C 
ATOM      3  N   UNL     1       4.999   5.313  18.268  0.00  0.00    +0.000 N 
ATOM      4  C   UNL     1       6.110   6.020  17.878  0.00  0.00    +0.000 C 
ATOM      5  O   UNL     1       7.021   6.264  18.671  0.00  0.00    +0.000 OA
ATOM      6  C   UNL     1       4.854   4.867  19.643  0.00  0.00    +0.000 C 
ATOM      7  C   UNL     1       3.342   4.539  19.854  0.00  0.00    +0.000 C 
ENDROOT
BRANCH   1  12
ATOM      8  C   UNL     1       1.081  10.810  19.478  0.00  0.00    +0.000 C 
ATOM      9  C   UNL     1       1.481   9.382  19.259  0.00  0.00    +0.000 A 
ATOM     10  C   UNL     1       1.481   8.454  20.303  0.00  0.00    +0.000 A 
ATOM     11  C   UNL     1       1.873   7.129  20.076  0.00  0.00    +0.000 A 
ATOM     12  C   UNL     1       2.282   6.701  18.802  0.00  0.00    +0.000 A 
ATOM     13  C   UNL     1       2.263   7.641  17.762  0.00  0.00    +0.000 A 
ATOM     14  C   UNL     1       1.870   8.962  17.985  0.00  0.00    +0.000 A 
ENDBRANCH   1  12
BRANCH   7  15
ATOM     15  N   UNL     1       3.069   3.072  19.947  0.00  0.00    +0.000 NA
ATOM     16  C   UNL     1       4.322   2.296  19.923  0.00  0.00    +0.000 C 
ATOM     17  C   UNL     1       2.376   2.738  21.203  0.00  0.00    +0.000 C 
ENDBRANCH   7  15
BRANCH   4  18
ATOM     18  C   UNL     1       6.176   6.476  16.412  0.00  0.00    +0.000 C 
BRANCH  18  19
ATOM     19  O   UNL     1       7.224   5.903  15.635  0.00  0.00    +0.000 OA
BRANCH  19  20
ATOM     20  C   UNL     1       7.031   4.508  15.368  0.00  0.00    +0.000 C 
BRANCH  20  21
ATOM     21  C   UNL     1       6.449   4.299  13.976  0.00  0.00    +0.000 C 
ATOM     22  F   UNL     1       6.478   2.967  13.688  0.00  0.00    +0.000 F 
ATOM     23  F   UNL     1       5.130   4.648  13.994  0.00  0.00    +0.000 F 
BRANCH  21  24
ATOM     24  C   UNL     1       7.189   5.102  12.916  0.00  0.00    +0.000 C 
ATOM     25  F   UNL     1       8.492   5.282  13.259  0.00  0.00    +0.000 F 
ATOM     26  F   UNL     1       7.203   4.429  11.731  0.00  0.00    +0.000 F 
ENDBRANCH  21  24
ENDBRANCH  20  21
ENDBRANCH  19  20
ENDBRANCH  18  19
ENDBRANCH   4  18
TORSDOF 7
ENDMDL
MODEL 7
REMARK VINA RESULT:      -7.3      1.779      2.251
REMARK  Name = 
REMARK  10 active torsions:
REMARK  status: ('A' for Active; 'I' for Inactive)
REMARK    1  A    between atoms: C_1  and  C_2
REMARK    2  A    between atoms: C_5  and  C_6
REMARK    3  A    between atoms: C_9  and  C_11
REMARK    4  A    between atoms: C_11  and  O_12
REMARK    5  A    between atoms: O_12  and  C_13
REMARK    6  A    between atoms: C_13  and  C_14
REMARK    7  A    between atoms: C_14  and  C_17
REMARK    8  A    between atoms: C_21  and  N_22
REMARK    9  A    between atoms: N_22  and  C_23
REMARK   10  A    between atoms: N_22  and  C_24
REMARK                            x       y       z     vdW  Elec       q    Type
REMARK                         _______ _______ _______ _____ _____    ______ ____
ROOT
ATOM      1  C   UNL     1       2.752   4.680  18.628  0.00  0.00    +0.000 C 
ATOM      2  C   UNL     1       3.469   4.383  17.308  0.00  0.00    +0.000 C 
ATOM      3  N   UNL     1       4.860   4.647  17.615  0.00  0.00    +0.000 N 
ATOM      4  C   UNL     1       5.800   5.269  16.830  0.00  0.00    +0.000 C 
ATOM      5  O   UNL     1       6.902   5.584  17.283  0.00  0.00    +0.000 OA
ATOM      6  C   UNL     1       5.130   4.381  19.017  0.00  0.00    +0.000 C 
ATOM      7  C   UNL     1       3.751   4.125  19.702  0.00  0.00    +0.000 C 
ENDROOT
BRANCH   1  12
ATOM      8  C   UNL     1       1.492  10.400  18.917  0.00  0.00    +0.000 C 
ATOM      9  C   UNL     1       1.825   8.940  18.840  0.00  0.00    +0.000 A 
ATOM     10  C   UNL     1       2.201   8.337  17.637  0.00  0.00    +0.000 A 
ATOM     11  C   UNL     1       2.492   6.969  17.589  0.00  0.00    +0.000 A 
ATOM     12  C   UNL     1       2.407   6.167  18.740  0.00  0.00    +0.000 A 
ATOM     13  C   UNL     1       2.043   6.790  19.942  0.00  0.00    +0.000 A 
ATOM     14  C   UNL     1       1.754   8.155  19.993  0.00  0.00    +0.000 A 
ENDBRANCH   1  12
BRANCH   7  15
ATOM     15  N   UNL     1       3.532   2.688  20.057  0.00  0.00    +0.000 NA
ATOM     16  C   UNL     1       4.811   2.008  20.330  0.00  0.00    +0.000 C 
ATOM     17  C   UNL     1       2.705   2.560  21.269  0.00  0.00    +0.000 C 
ENDBRANCH   7  15
BRANCH   4  18
ATOM     18  C   UNL     1       5.427   5.536  15.363  0.00  0.00    +0.000 C 
BRANCH  18  19
ATOM     19  O   UNL     1       6.399   5.142  14.398  0.00  0.00    +0.000 OA
BRANCH  19  20
ATOM     20  C   UNL     1       6.294   3.763  14.024  0.00  0.00    +0.000 C 
BRANCH  20  21
ATOM     21  C   UNL     1       6.281   3.613  12.507  0.00  0.00    +0.000 C 
ATOM     22  F   UNL     1       6.645   4.802  11.950  0.00  0.00    +0.000 F 
ATOM     23  F   UNL     1       7.247   2.720  12.146  0.00  0.00    +0.000 F 
BRANCH  21  24
ATOM     24  C   UNL     1       4.925   3.160  11.985  0.00  0.00    +0.000 C 
ATOM     25  F   UNL     1       4.426   4.047  11.084  0.00  0.00    +0.000 F 
ATOM     26  F   UNL     1       5.042   1.976  11.321  0.00  0.00    +0.000 F 
ENDBRANCH  21  24
ENDBRANCH  20  21
ENDBRANCH  19  20
ENDBRANCH  18  19
ENDBRANCH   4  18
TORSDOF 7
ENDMDL
MODEL 8
REMARK VINA RESULT:      -7.2      1.095      1.706
REMARK  Name = 
REMARK  10 active torsions:
REMARK  status: ('A' for Active; 'I' for Inactive)
REMARK    1  A    between atoms: C_1  and  C_2
REMARK    2  A    between atoms: C_5  and  C_6
REMARK    3  A    between atoms: C_9  and  C_11
REMARK    4  A    between atoms: C_11  and  O_12
REMARK    5  A    between atoms: O_12  and  C_13
REMARK    6  A    between atoms: C_13  and  C_14
REMARK    7  A    between atoms: C_14  and  C_17
REMARK    8  A    between atoms: C_21  and  N_22
REMARK    9  A    between atoms: N_22  and  C_23
REMARK   10  A    between atoms: N_22  and  C_24
REMARK                            x       y       z     vdW  Elec       q    Type
REMARK                         _______ _______ _______ _____ _____    ______ ____
ROOT
ATOM      1  C   UNL     1       2.671   4.576  18.320  0.00  0.00    +0.000 C 
ATOM      2  C   UNL     1       3.798   4.490  17.286  0.00  0.00    +0.000 C 
ATOM      3  N   UNL     1       4.999   4.543  18.094  0.00  0.00    +0.000 N 
ATOM      4  C   UNL     1       6.167   5.216  17.835  0.00  0.00    +0.000 C 
ATOM      5  O   UNL     1       7.048   5.318  18.691  0.00  0.00    +0.000 OA
ATOM      6  C   UNL     1       4.756   3.964  19.404  0.00  0.00    +0.000 C 
ATOM      7  C   UNL     1       3.219   3.711  19.509  0.00  0.00    +0.000 C 
ENDROOT
BRANCH   1  12
ATOM      8  C   UNL     1       1.466  10.203  19.444  0.00  0.00    +0.000 C 
ATOM      9  C   UNL     1       1.785   8.768  19.154  0.00  0.00    +0.000 A 
ATOM     10  C   UNL     1       2.108   8.336  17.866  0.00  0.00    +0.000 A 
ATOM     11  C   UNL     1       2.387   6.987  17.618  0.00  0.00    +0.000 A 
ATOM     12  C   UNL     1       2.342   6.034  18.650  0.00  0.00    +0.000 A 
ATOM     13  C   UNL     1       2.029   6.485  19.940  0.00  0.00    +0.000 A 
ATOM     14  C   UNL     1       1.753   7.831  20.190  0.00  0.00    +0.000 A 
ENDBRANCH   1  12
BRANCH   7  15
ATOM     15  N   UNL     1       2.859   2.262  19.428  0.00  0.00    +0.000 NA
ATOM     16  C   UNL     1       1.513   2.081  18.855  0.00  0.00    +0.000 C 
ATOM     17  C   UNL     1       3.799   1.527  18.566  0.00  0.00    +0.000 C 
ENDBRANCH   7  15
BRANCH   4  18
ATOM     18  C   UNL     1       6.337   5.820  16.431  0.00  0.00    +0.000 C 
BRANCH  18  19
ATOM     19  O   UNL     1       7.397   5.277  15.651  0.00  0.00    +0.000 OA
BRANCH  19  20
ATOM     20  C   UNL     1       7.104   5.241  14.248  0.00  0.00    +0.000 C 
BRANCH  20  21
ATOM     21  C   UNL     1       6.071   4.165  13.938  0.00  0.00    +0.000 C 
ATOM     22  F   UNL     1       6.284   3.105  14.768  0.00  0.00    +0.000 F 
ATOM     23  F   UNL     1       4.832   4.643  14.254  0.00  0.00    +0.000 F 
BRANCH  21  24
ATOM     24  C   UNL     1       6.111   3.731  12.480  0.00  0.00    +0.000 C 
ATOM     25  F   UNL     1       7.347   3.920  11.947  0.00  0.00    +0.000 F 
ATOM     26  F   UNL     1       5.855   2.398  12.373  0.00  0.00    +0.000 F 
ENDBRANCH  21  24
ENDBRANCH  20  21
ENDBRANCH  19  20
ENDBRANCH  18  19
ENDBRANCH   4  18
TORSDOF 7
ENDMDL
MODEL 9
REMARK VINA RESULT:      -7.2      3.980      7.258
REMARK  Name = 
REMARK  10 active torsions:
REMARK  status: ('A' for Active; 'I' for Inactive)
REMARK    1  A    between atoms: C_1  and  C_2
REMARK    2  A    between atoms: C_5  and  C_6
REMARK    3  A    between atoms: C_9  and  C_11
REMARK    4  A    between atoms: C_11  and  O_12
REMARK    5  A    between atoms: O_12  and  C_13
REMARK    6  A    between atoms: C_13  and  C_14
REMARK    7  A    between atoms: C_14  and  C_17
REMARK    8  A    between atoms: C_21  and  N_22
REMARK    9  A    between atoms: N_22  and  C_23
REMARK   10  A    between atoms: N_22  and  C_24
REMARK                            x       y       z     vdW  Elec       q    Type
REMARK                         _______ _______ _______ _____ _____    ______ ____
ROOT
ATOM      1  C   UNL     1       5.911   5.856  16.143  0.00  0.00    +0.000 C 
ATOM      2  C   UNL     1       4.522   5.574  16.725  0.00  0.00    +0.000 C 
ATOM      3  N   UNL     1       4.727   4.380  17.519  0.00  0.00    +0.000 N 
ATOM      4  C   UNL     1       3.901   3.290  17.642  0.00  0.00    +0.000 C 
ATOM      5  O   UNL     1       4.277   2.266  18.214  0.00  0.00    +0.000 OA
ATOM      6  C   UNL     1       6.087   4.335  18.028  0.00  0.00    +0.000 C 
ATOM      7  C   UNL     1       6.869   5.492  17.330  0.00  0.00    +0.000 C 
ENDROOT
BRANCH   1  12
ATOM      8  C   UNL     1       6.612   2.780  11.200  0.00  0.00    +0.000 C 
ATOM      9  C   UNL     1       6.432   3.556  12.469  0.00  0.00    +0.000 A 
ATOM     10  C   UNL     1       5.235   3.517  13.187  0.00  0.00    +0.000 A 
ATOM     11  C   UNL     1       5.086   4.263  14.362  0.00  0.00    +0.000 A 
ATOM     12  C   UNL     1       6.127   5.074  14.845  0.00  0.00    +0.000 A 
ATOM     13  C   UNL     1       7.328   5.092  14.120  0.00  0.00    +0.000 A 
ATOM     14  C   UNL     1       7.479   4.346  12.950  0.00  0.00    +0.000 A 
ENDBRANCH   1  12
BRANCH   7  15
ATOM     15  N   UNL     1       7.166   6.635  18.248  0.00  0.00    +0.000 NA
ATOM     16  C   UNL     1       8.157   6.251  19.270  0.00  0.00    +0.000 C 
ATOM     17  C   UNL     1       7.726   7.779  17.509  0.00  0.00    +0.000 C 
ENDBRANCH   7  15
BRANCH   4  18
ATOM     18  C   UNL     1       2.485   3.410  17.055  0.00  0.00    +0.000 C 
BRANCH  18  19
ATOM     19  O   UNL     1       1.521   4.040  17.893  0.00  0.00    +0.000 OA
BRANCH  19  20
ATOM     20  C   UNL     1       1.010   3.174  18.915  0.00  0.00    +0.000 C 
BRANCH  20  21
ATOM     21  C   UNL     1       1.399   3.680  20.298  0.00  0.00    +0.000 C 
ATOM     22  F   UNL     1       2.493   4.484  20.176  0.00  0.00    +0.000 F 
ATOM     23  F   UNL     1       0.399   4.480  20.770  0.00  0.00    +0.000 F 
BRANCH  21  24
ATOM     24  C   UNL     1       1.665   2.543  21.274  0.00  0.00    +0.000 C 
ATOM     25  F   UNL     1       2.919   2.627  21.793  0.00  0.00    +0.000 F 
ATOM     26  F   UNL     1       0.814   2.616  22.335  0.00  0.00    +0.000 F 
ENDBRANCH  21  24
ENDBRANCH  20  21
ENDBRANCH  19  20
ENDBRANCH  18  19
ENDBRANCH   4  18
TORSDOF 7
ENDMDL
