MODEL 1
REMARK VINA RESULT:      -8.4      0.000      0.000
REMARK  Name = 
REMARK  8 active torsions:
REMARK  status: ('A' for Active; 'I' for Inactive)
REMARK    1  A    between atoms: C_2  and  O_3
REMARK    2  A    between atoms: C_2  and  C_4
REMARK    3  A    between atoms: C_4  and  N_5
REMARK    4  A    between atoms: C_10  and  N_11
REMARK    5  A    between atoms: C_12  and  C_14
REMARK    6  A    between atoms: C_14  and  C_15
REMARK    7  A    between atoms: C_15  and  C_16
REMARK    8  A    between atoms: C_16  and  C_17
REMARK                            x       y       z     vdW  Elec       q    Type
REMARK                         _______ _______ _______ _____ _____    ______ ____
ROOT
ATOM      1  N   UNL     1       3.151   3.217  18.351  0.00  0.00    +0.000 N 
ATOM      2  C   UNL     1       3.909   2.803  17.187  0.00  0.00    +0.000 C 
ATOM      3  C   UNL     1       4.791   3.977  16.943  0.00  0.00    +0.000 A 
ATOM      4  C   UNL     1       5.799   4.129  16.017  0.00  0.00    +0.000 A 
ATOM      5  C   UNL     1       6.506   5.332  16.035  0.00  0.00    +0.000 A 
ATOM      6  C   UNL     1       6.191   6.371  16.944  0.00  0.00    +0.000 A 
ATOM      7  C   UNL     1       5.193   6.187  17.898  0.00  0.00    +0.000 A 
ATOM      8  C   UNL     1       4.515   4.985  17.861  0.00  0.00    +0.000 A 
ATOM      9  C   UNL     1       3.486   4.490  18.779  0.00  0.00    +0.000 C 
ATOM     10  O   UNL     1       3.088   5.082  19.763  0.00  0.00    +0.000 OA
ENDROOT
BRANCH   6  11
ATOM     11  N   UNL     1       6.890   7.594  16.933  0.00  0.00    +0.000 N 
ATOM     12  C   UNL     1       7.834   7.933  17.882  0.00  0.00    +0.000 C 
ATOM     13  O   UNL     1       8.305   7.151  18.704  0.00  0.00    +0.000 OA
ATOM     14  H   UNL     1       6.857   8.151  16.088  0.00  0.00    +0.000 HD
BRANCH  12  15
ATOM     15  C   UNL     1       8.292   9.371  17.797  0.00  0.00    +0.000 C 
BRANCH  15  16
ATOM     16  C   UNL     1       9.252   9.714  18.938  0.00  0.00    +0.000 C 
BRANCH  16  17
ATOM     17  C   UNL     1       9.320  11.221  19.257  0.00  0.00    +0.000 C 
BRANCH  17  18
ATOM     18  C   UNL     1      10.759  11.722  19.501  0.00  0.00    +0.000 C 
ATOM     19  C   UNL     1      10.856  13.109  20.171  0.00  0.00    +0.000 C 
ATOM     20  C   UNL     1      10.739  14.295  19.212  0.00  0.00    +0.000 C 
ATOM     21  N   UNL     1      11.621  14.167  18.053  0.00  0.00    +0.000 NA
ATOM     22  C   UNL     1      11.304  12.941  17.321  0.00  0.00    +0.000 C 
ATOM     23  C   UNL     1      11.566  11.711  18.189  0.00  0.00    +0.000 C 
ATOM     24  H   UNL     1      12.588  14.124  18.374  0.00  0.00    +0.000 HD
ENDBRANCH  17  18
ENDBRANCH  16  17
ENDBRANCH  15  16
ENDBRANCH  12  15
ENDBRANCH   6  11
BRANCH   1  25
ATOM     25  C   UNL     1       2.521   2.259  19.240  0.00  0.00    +0.000 C 
BRANCH  25  27
ATOM     26  O   UNL     1       0.197   2.141  18.412  0.00  0.00    +0.000 OA
ATOM     27  C   UNL     1       1.010   2.468  19.264  0.00  0.00    +0.000 C 
BRANCH  27  28
ATOM     28  O   UNL     1       0.600   3.116  20.380  0.00  0.00    +0.000 OA
ATOM     29  H   UNL     1       0.624   2.429  21.078  0.00  0.00    +0.000 HD
ENDBRANCH  27  28
ENDBRANCH  25  27
ENDBRANCH   1  25
TORSDOF 8
ENDMDL
MODEL 2
REMARK VINA RESULT:      -8.0      1.250      1.510
REMARK  Name = 
REMARK  8 active torsions:
REMARK  status: ('A' for Active; 'I' for Inactive)
REMARK    1  A    between atoms: C_2  and  O_3
REMARK    2  A    between atoms: C_2  and  C_4
REMARK    3  A    between atoms: C_4  and  N_5
REMARK    4  A    between atoms: C_10  and  N_11
REMARK    5  A    between atoms: C_12  and  C_14
REMARK    6  A    between atoms: C_14  and  C_15
REMARK    7  A    between atoms: C_15  and  C_16
REMARK    8  A    between atoms: C_16  and  C_17
REMARK                            x       y       z     vdW  Elec       q    Type
REMARK                         _______ _______ _______ _____ _____    ______ ____
ROOT
ATOM      1  N   UNL     1       1.868   4.122  18.366  0.00  0.00    +0.000 N 
ATOM      2  C   UNL     1       2.665   3.418  17.381  0.00  0.00    +0.000 C 
ATOM      3  C   UNL     1       3.775   4.376  17.121  0.00  0.00    +0.000 A 
ATOM      4  C   UNL     1       4.895   4.216  16.336  0.00  0.00    +0.000 A 
ATOM      5  C   UNL     1       5.808   5.272  16.305  0.00  0.00    +0.000 A 
ATOM      6  C   UNL     1       5.589   6.471  17.023  0.00  0.00    +0.000 A 
ATOM      7  C   UNL     1       4.469   6.602  17.841  0.00  0.00    +0.000 A 
ATOM      8  C   UNL     1       3.587   5.541  17.859  0.00  0.00    +0.000 A 
ATOM      9  C   UNL     1       2.383   5.369  18.675  0.00  0.00    +0.000 C 
ATOM     10  O   UNL     1       1.990   6.158  19.511  0.00  0.00    +0.000 OA
ENDROOT
BRANCH   6  11
ATOM     11  N   UNL     1       6.501   7.543  16.960  0.00  0.00    +0.000 N 
ATOM     12  C   UNL     1       7.561   7.685  17.833  0.00  0.00    +0.000 C 
ATOM     13  O   UNL     1       7.940   6.816  18.614  0.00  0.00    +0.000 OA
ATOM     14  H   UNL     1       6.507   8.110  16.121  0.00  0.00    +0.000 HD
BRANCH  12  15
ATOM     15  C   UNL     1       8.272   9.014  17.714  0.00  0.00    +0.000 C 
BRANCH  15  16
ATOM     16  C   UNL     1       9.029   9.353  19.000  0.00  0.00    +0.000 C 
BRANCH  16  17
ATOM     17  C   UNL     1       9.320  10.858  19.168  0.00  0.00    +0.000 C 
BRANCH  17  18
ATOM     18  C   UNL     1       9.945  11.495  17.908  0.00  0.00    +0.000 C 
ATOM     19  C   UNL     1      11.467  11.736  17.994  0.00  0.00    +0.000 C 
ATOM     20  C   UNL     1      11.873  13.032  18.699  0.00  0.00    +0.000 C 
ATOM     21  N   UNL     1      11.145  14.196  18.194  0.00  0.00    +0.000 NA
ATOM     22  C   UNL     1       9.707  13.998  18.373  0.00  0.00    +0.000 C 
ATOM     23  C   UNL     1       9.220  12.806  17.549  0.00  0.00    +0.000 C 
ATOM     24  H   UNL     1      11.347  14.309  17.201  0.00  0.00    +0.000 HD
ENDBRANCH  17  18
ENDBRANCH  16  17
ENDBRANCH  15  16
ENDBRANCH  12  15
ENDBRANCH   6  11
BRANCH   1  25
ATOM     25  C   UNL     1       0.969   3.427  19.268  0.00  0.00    +0.000 C 
BRANCH  25  27
ATOM     26  O   UNL     1       2.162   1.868  20.765  0.00  0.00    +0.000 OA
ATOM     27  C   UNL     1       1.714   2.978  20.520  0.00  0.00    +0.000 C 
BRANCH  27  28
ATOM     28  O   UNL     1       1.834   3.974  21.430  0.00  0.00    +0.000 OA
ATOM     29  H   UNL     1       0.924   4.099  21.771  0.00  0.00    +0.000 HD
ENDBRANCH  27  28
ENDBRANCH  25  27
ENDBRANCH   1  25
TORSDOF 8
ENDMDL
MODEL 3
REMARK VINA RESULT:      -7.9      0.743      1.338
REMARK  Name = 
REMARK  8 active torsions:
REMARK  status: ('A' for Active; 'I' for Inactive)
REMARK    1  A    between atoms: C_2  and  O_3
REMARK    2  A    between atoms: C_2  and  C_4
REMARK    3  A    between atoms: C_4  and  N_5
REMARK    4  A    between atoms: C_10  and  N_11
REMARK    5  A    between atoms: C_12  and  C_14
REMARK    6  A    between atoms: C_14  and  C_15
REMARK    7  A    between atoms: C_15  and  C_16
REMARK    8  A    between atoms: C_16  and  C_17
REMARK                            x       y       z     vdW  Elec       q    Type
REMARK                         _______ _______ _______ _____ _____    ______ ____
ROOT
ATOM      1  N   UNL     1       3.384   3.274  18.450  0.00  0.00    +0.000 N 
ATOM      2  C   UNL     1       4.108   2.884  17.256  0.00  0.00    +0.000 C 
ATOM      3  C   UNL     1       4.969   4.071  16.999  0.00  0.00    +0.000 A 
ATOM      4  C   UNL     1       5.944   4.248  16.043  0.00  0.00    +0.000 A 
ATOM      5  C   UNL     1       6.637   5.459  16.055  0.00  0.00    +0.000 A 
ATOM      6  C   UNL     1       6.341   6.482  16.987  0.00  0.00    +0.000 A 
ATOM      7  C   UNL     1       5.376   6.273  17.970  0.00  0.00    +0.000 A 
ATOM      8  C   UNL     1       4.711   5.064  17.940  0.00  0.00    +0.000 A 
ATOM      9  C   UNL     1       3.718   4.545  18.884  0.00  0.00    +0.000 C 
ATOM     10  O   UNL     1       3.346   5.119  19.888  0.00  0.00    +0.000 OA
ENDROOT
BRANCH   6  11
ATOM     11  N   UNL     1       7.024   7.713  16.970  0.00  0.00    +0.000 N 
ATOM     12  C   UNL     1       7.954   8.073  17.925  0.00  0.00    +0.000 C 
ATOM     13  O   UNL     1       8.426   7.306  18.761  0.00  0.00    +0.000 OA
ATOM     14  H   UNL     1       6.993   8.260  16.119  0.00  0.00    +0.000 HD
BRANCH  12  15
ATOM     15  C   UNL     1       8.396   9.517  17.829  0.00  0.00    +0.000 C 
BRANCH  15  16
ATOM     16  C   UNL     1       9.064   9.978  19.126  0.00  0.00    +0.000 C 
BRANCH  16  17
ATOM     17  C   UNL     1      10.188  11.010  18.908  0.00  0.00    +0.000 C 
BRANCH  17  18
ATOM     18  C   UNL     1       9.759  12.189  18.009  0.00  0.00    +0.000 C 
ATOM     19  C   UNL     1      10.921  12.923  17.307  0.00  0.00    +0.000 C 
ATOM     20  C   UNL     1      11.616  13.987  18.159  0.00  0.00    +0.000 C 
ATOM     21  N   UNL     1      10.669  14.906  18.789  0.00  0.00    +0.000 NA
ATOM     22  C   UNL     1       9.744  14.157  19.641  0.00  0.00    +0.000 C 
ATOM     23  C   UNL     1       8.904  13.192  18.805  0.00  0.00    +0.000 C 
ATOM     24  H   UNL     1      10.140  15.389  18.064  0.00  0.00    +0.000 HD
ENDBRANCH  17  18
ENDBRANCH  16  17
ENDBRANCH  15  16
ENDBRANCH  12  15
ENDBRANCH   6  11
BRANCH   1  25
ATOM     25  C   UNL     1       2.794   2.297  19.346  0.00  0.00    +0.000 C 
BRANCH  25  27
ATOM     26  O   UNL     1       0.641   3.061  20.282  0.00  0.00    +0.000 OA
ATOM     27  C   UNL     1       1.282   2.484  19.417  0.00  0.00    +0.000 C 
BRANCH  27  28
ATOM     28  O   UNL     1       0.643   1.896  18.377  0.00  0.00    +0.000 OA
ATOM     29  H   UNL     1       1.014   2.341  17.586  0.00  0.00    +0.000 HD
ENDBRANCH  27  28
ENDBRANCH  25  27
ENDBRANCH   1  25
TORSDOF 8
ENDMDL
MODEL 4
REMARK VINA RESULT:      -7.8      1.422      1.802
REMARK  Name = 
REMARK  8 active torsions:
REMARK  status: ('A' for Active; 'I' for Inactive)
REMARK    1  A    between atoms: C_2  and  O_3
REMARK    2  A    between atoms: C_2  and  C_4
REMARK    3  A    between atoms: C_4  and  N_5
REMARK    4  A    between atoms: C_10  and  N_11
REMARK    5  A    between atoms: C_12  and  C_14
REMARK    6  A    between atoms: C_14  and  C_15
REMARK    7  A    between atoms: C_15  and  C_16
REMARK    8  A    between atoms: C_16  and  C_17
REMARK                            x       y       z     vdW  Elec       q    Type
REMARK                         _______ _______ _______ _____ _____    ______ ____
ROOT
ATOM      1  N   UNL     1       1.691   4.517  19.016  0.00  0.00    +0.000 N 
ATOM      2  C   UNL     1       2.203   3.752  17.896  0.00  0.00    +0.000 C 
ATOM      3  C   UNL     1       3.376   4.561  17.463  0.00  0.00    +0.000 A 
ATOM      4  C   UNL     1       4.313   4.284  16.493  0.00  0.00    +0.000 A 
ATOM      5  C   UNL     1       5.347   5.206  16.322  0.00  0.00    +0.000 A 
ATOM      6  C   UNL     1       5.424   6.393  17.089  0.00  0.00    +0.000 A 
ATOM      7  C   UNL     1       4.489   6.641  18.091  0.00  0.00    +0.000 A 
ATOM      8  C   UNL     1       3.482   5.709  18.243  0.00  0.00    +0.000 A 
ATOM      9  C   UNL     1       2.421   5.668  19.253  0.00  0.00    +0.000 C 
ATOM     10  O   UNL     1       2.291   6.468  20.158  0.00  0.00    +0.000 OA
ENDROOT
BRANCH   6  11
ATOM     11  N   UNL     1       6.454   7.333  16.887  0.00  0.00    +0.000 N 
ATOM     12  C   UNL     1       7.572   7.412  17.692  0.00  0.00    +0.000 C 
ATOM     13  O   UNL     1       7.887   6.570  18.529  0.00  0.00    +0.000 OA
ATOM     14  H   UNL     1       6.480   7.823  16.001  0.00  0.00    +0.000 HD
BRANCH  12  15
ATOM     15  C   UNL     1       8.431   8.627  17.422  0.00  0.00    +0.000 C 
BRANCH  15  16
ATOM     16  C   UNL     1       8.103   9.762  18.394  0.00  0.00    +0.000 C 
BRANCH  16  17
ATOM     17  C   UNL     1       9.279  10.144  19.316  0.00  0.00    +0.000 C 
BRANCH  17  18
ATOM     18  C   UNL     1       9.585  11.657  19.308  0.00  0.00    +0.000 C 
ATOM     19  C   UNL     1       9.941  12.238  17.923  0.00  0.00    +0.000 C 
ATOM     20  C   UNL     1      11.405  12.066  17.512  0.00  0.00    +0.000 C 
ATOM     21  N   UNL     1      12.333  12.494  18.559  0.00  0.00    +0.000 NA
ATOM     22  C   UNL     1      12.097  11.722  19.779  0.00  0.00    +0.000 C 
ATOM     23  C   UNL     1      10.694  11.990  20.323  0.00  0.00    +0.000 C 
ATOM     24  H   UNL     1      12.182  13.483  18.754  0.00  0.00    +0.000 HD
ENDBRANCH  17  18
ENDBRANCH  16  17
ENDBRANCH  15  16
ENDBRANCH  12  15
ENDBRANCH   6  11
BRANCH   1  25
ATOM     25  C   UNL     1       0.869   3.913  20.048  0.00  0.00    +0.000 C 
BRANCH  25  27
ATOM     26  O   UNL     1       2.090   1.827  20.552  0.00  0.00    +0.000 OA
ATOM     27  C   UNL     1       1.692   2.935  20.879  0.00  0.00    +0.000 C 
BRANCH  27  28
ATOM     28  O   UNL     1       1.954   3.410  22.120  0.00  0.00    +0.000 OA
ATOM     29  H   UNL     1       2.740   3.982  21.997  0.00  0.00    +0.000 HD
ENDBRANCH  27  28
ENDBRANCH  25  27
ENDBRANCH   1  25
TORSDOF 8
ENDMDL
MODEL 5
REMARK VINA RESULT:      -7.8      1.194      1.709
REMARK  Name = 
REMARK  8 active torsions:
REMARK  status: ('A' for Active; 'I' for Inactive)
REMARK    1  A    between atoms: C_2  and  O_3
REMARK    2  A    between atoms: C_2  and  C_4
REMARK    3  A    between atoms: C_4  and  N_5
REMARK    4  A    between atoms: C_10  and  N_11
REMARK    5  A    between atoms: C_12  and  C_14
REMARK    6  A    between atoms: C_14  and  C_15
REMARK    7  A    between atoms: C_15  and  C_16
REMARK    8  A    between atoms: C_16  and  C_17
REMARK                            x       y       z     vdW  Elec       q    Type
REMARK                         _______ _______ _______ _____ _____    ______ ____
ROOT
ATOM      1  N   UNL     1       3.248   3.323  18.619  0.00  0.00    +0.000 N 
ATOM      2  C   UNL     1       3.983   2.871  17.453  0.00  0.00    +0.000 C 
ATOM      3  C   UNL     1       4.847   4.043  17.144  0.00  0.00    +0.000 A 
ATOM      4  C   UNL     1       5.832   4.169  16.190  0.00  0.00    +0.000 A 
ATOM      5  C   UNL     1       6.527   5.379  16.146  0.00  0.00    +0.000 A 
ATOM      6  C   UNL     1       6.223   6.448  17.021  0.00  0.00    +0.000 A 
ATOM      7  C   UNL     1       5.249   6.292  18.005  0.00  0.00    +0.000 A 
ATOM      8  C   UNL     1       4.583   5.084  18.030  0.00  0.00    +0.000 A 
ATOM      9  C   UNL     1       3.580   4.614  18.990  0.00  0.00    +0.000 C 
ATOM     10  O   UNL     1       3.198   5.239  19.959  0.00  0.00    +0.000 OA
ENDROOT
BRANCH   6  11
ATOM     11  N   UNL     1       6.909   7.677  16.948  0.00  0.00    +0.000 N 
ATOM     12  C   UNL     1       7.861   8.066  17.869  0.00  0.00    +0.000 C 
ATOM     13  O   UNL     1       8.351   7.325  18.718  0.00  0.00    +0.000 OA
ATOM     14  H   UNL     1       6.858   8.196  16.080  0.00  0.00    +0.000 HD
BRANCH  12  15
ATOM     15  C   UNL     1       8.304   9.504  17.714  0.00  0.00    +0.000 C 
BRANCH  15  16
ATOM     16  C   UNL     1       9.314   9.890  18.796  0.00  0.00    +0.000 C 
BRANCH  16  17
ATOM     17  C   UNL     1       9.183  11.351  19.271  0.00  0.00    +0.000 C 
BRANCH  17  18
ATOM     18  C   UNL     1       9.617  12.374  18.200  0.00  0.00    +0.000 C 
ATOM     19  C   UNL     1      11.030  12.146  17.621  0.00  0.00    +0.000 C 
ATOM     20  C   UNL     1      12.169  12.728  18.461  0.00  0.00    +0.000 C 
ATOM     21  N   UNL     1      11.932  14.122  18.834  0.00  0.00    +0.000 NA
ATOM     22  C   UNL     1      10.688  14.227  19.598  0.00  0.00    +0.000 C 
ATOM     23  C   UNL     1       9.493  13.810  18.742  0.00  0.00    +0.000 C 
ATOM     24  H   UNL     1      11.853  14.686  17.988  0.00  0.00    +0.000 HD
ENDBRANCH  17  18
ENDBRANCH  16  17
ENDBRANCH  15  16
ENDBRANCH  12  15
ENDBRANCH   6  11
BRANCH   1  25
ATOM     25  C   UNL     1       2.648   2.394  19.557  0.00  0.00    +0.000 C 
BRANCH  25  27
ATOM     26  O   UNL     1       4.654   1.947  20.925  0.00  0.00    +0.000 OA
ATOM     27  C   UNL     1       3.489   2.300  20.826  0.00  0.00    +0.000 C 
BRANCH  27  28
ATOM     28  O   UNL     1       2.788   2.645  21.932  0.00  0.00    +0.000 OA
ATOM     29  H   UNL     1       3.194   2.112  22.648  0.00  0.00    +0.000 HD
ENDBRANCH  27  28
ENDBRANCH  25  27
ENDBRANCH   1  25
TORSDOF 8
ENDMDL
MODEL 6
REMARK VINA RESULT:      -7.7      1.391      1.602
REMARK  Name = 
REMARK  8 active torsions:
REMARK  status: ('A' for Active; 'I' for Inactive)
REMARK    1  A    between atoms: C_2  and  O_3
REMARK    2  A    between atoms: C_2  and  C_4
REMARK    3  A    between atoms: C_4  and  N_5
REMARK    4  A    between atoms: C_10  and  N_11
REMARK    5  A    between atoms: C_12  and  C_14
REMARK    6  A    between atoms: C_14  and  C_15
REMARK    7  A    between atoms: C_15  and  C_16
REMARK    8  A    between atoms: C_16  and  C_17
REMARK                            x       y       z     vdW  Elec       q    Type
REMARK                         _______ _______ _______ _____ _____    ______ ____
ROOT
ATOM      1  N   UNL     1       1.759   4.216  18.992  0.00  0.00    +0.000 N 
ATOM      2  C   UNL     1       2.506   3.345  18.107  0.00  0.00    +0.000 C 
ATOM      3  C   UNL     1       3.628   4.219  17.666  0.00  0.00    +0.000 A 
ATOM      4  C   UNL     1       4.717   3.908  16.883  0.00  0.00    +0.000 A 
ATOM      5  C   UNL     1       5.652   4.920  16.659  0.00  0.00    +0.000 A 
ATOM      6  C   UNL     1       5.485   6.222  17.187  0.00  0.00    +0.000 A 
ATOM      7  C   UNL     1       4.397   6.511  18.007  0.00  0.00    +0.000 A 
ATOM      8  C   UNL     1       3.492   5.490  18.217  0.00  0.00    +0.000 A 
ATOM      9  C   UNL     1       2.312   5.481  19.086  0.00  0.00    +0.000 C 
ATOM     10  O   UNL     1       1.966   6.402  19.800  0.00  0.00    +0.000 OA
ENDROOT
BRANCH   6  11
ATOM     11  N   UNL     1       6.419   7.246  16.929  0.00  0.00    +0.000 N 
ATOM     12  C   UNL     1       7.493   7.512  17.754  0.00  0.00    +0.000 C 
ATOM     13  O   UNL     1       7.863   6.784  18.671  0.00  0.00    +0.000 OA
ATOM     14  H   UNL     1       6.426   7.657  16.004  0.00  0.00    +0.000 HD
BRANCH  12  15
ATOM     15  C   UNL     1       8.230   8.784  17.399  0.00  0.00    +0.000 C 
BRANCH  15  16
ATOM     16  C   UNL     1       8.771   9.478  18.651  0.00  0.00    +0.000 C 
BRANCH  16  17
ATOM     17  C   UNL     1       9.528  10.788  18.354  0.00  0.00    +0.000 C 
BRANCH  17  18
ATOM     18  C   UNL     1       9.823  11.615  19.623  0.00  0.00    +0.000 C 
ATOM     19  C   UNL     1       9.180  13.019  19.643  0.00  0.00    +0.000 C 
ATOM     20  C   UNL     1       9.973  14.099  18.905  0.00  0.00    +0.000 C 
ATOM     21  N   UNL     1      11.384  14.119  19.291  0.00  0.00    +0.000 NA
ATOM     22  C   UNL     1      11.994  12.819  19.012  0.00  0.00    +0.000 C 
ATOM     23  C   UNL     1      11.341  11.725  19.856  0.00  0.00    +0.000 C 
ATOM     24  H   UNL     1      11.454  14.314  20.289  0.00  0.00    +0.000 HD
ENDBRANCH  17  18
ENDBRANCH  16  17
ENDBRANCH  15  16
ENDBRANCH  12  15
ENDBRANCH   6  11
BRANCH   1  25
ATOM     25  C   UNL     1       0.875   3.695  20.018  0.00  0.00    +0.000 C 
BRANCH  25  27
ATOM     26  O   UNL     1       1.566   2.297  21.932  0.00  0.00    +0.000 OA
ATOM     27  C   UNL     1       1.671   3.312  21.262  0.00  0.00    +0.000 C 
BRANCH  27  28
ATOM     28  O   UNL     1       2.563   4.269  21.614  0.00  0.00    +0.000 OA
ATOM     29  H   UNL     1       2.035   4.906  22.140  0.00  0.00    +0.000 HD
ENDBRANCH  27  28
ENDBRANCH  25  27
ENDBRANCH   1  25
TORSDOF 8
ENDMDL
MODEL 7
REMARK VINA RESULT:      -7.5      0.976      1.183
REMARK  Name = 
REMARK  8 active torsions:
REMARK  status: ('A' for Active; 'I' for Inactive)
REMARK    1  A    between atoms: C_2  and  O_3
REMARK    2  A    between atoms: C_2  and  C_4
REMARK    3  A    between atoms: C_4  and  N_5
REMARK    4  A    between atoms: C_10  and  N_11
REMARK    5  A    between atoms: C_12  and  C_14
REMARK    6  A    between atoms: C_14  and  C_15
REMARK    7  A    between atoms: C_15  and  C_16
REMARK    8  A    between atoms: C_16  and  C_17
REMARK                            x       y       z     vdW  Elec       q    Type
REMARK                         _______ _______ _______ _____ _____    ______ ____
ROOT
ATOM      1  N   UNL     1       3.447   3.581  18.364  0.00  0.00    +0.000 N 
ATOM      2  C   UNL     1       4.320   3.134  17.296  0.00  0.00    +0.000 C 
ATOM      3  C   UNL     1       5.192   4.321  17.075  0.00  0.00    +0.000 A 
ATOM      4  C   UNL     1       6.277   4.459  16.238  0.00  0.00    +0.000 A 
ATOM      5  C   UNL     1       6.948   5.683  16.261  0.00  0.00    +0.000 A 
ATOM      6  C   UNL     1       6.524   6.754  17.084  0.00  0.00    +0.000 A 
ATOM      7  C   UNL     1       5.446   6.585  17.950  0.00  0.00    +0.000 A 
ATOM      8  C   UNL     1       4.806   5.363  17.913  0.00  0.00    +0.000 A 
ATOM      9  C   UNL     1       3.709   4.882  18.756  0.00  0.00    +0.000 C 
ATOM     10  O   UNL     1       3.206   5.507  19.668  0.00  0.00    +0.000 OA
ENDROOT
BRANCH   6  11
ATOM     11  N   UNL     1       7.189   7.995  17.076  0.00  0.00    +0.000 N 
ATOM     12  C   UNL     1       8.109   8.365  18.036  0.00  0.00    +0.000 C 
ATOM     13  O   UNL     1       8.590   7.601  18.869  0.00  0.00    +0.000 OA
ATOM     14  H   UNL     1       7.152   8.546  16.227  0.00  0.00    +0.000 HD
BRANCH  12  15
ATOM     15  C   UNL     1       8.529   9.815  17.949  0.00  0.00    +0.000 C 
BRANCH  15  16
ATOM     16  C   UNL     1       9.265  10.255  19.216  0.00  0.00    +0.000 C 
BRANCH  16  17
ATOM     17  C   UNL     1      10.528  11.095  18.938  0.00  0.00    +0.000 C 
BRANCH  17  18
ATOM     18  C   UNL     1      10.440  12.525  19.513  0.00  0.00    +0.000 C 
ATOM     19  C   UNL     1       9.016  13.119  19.552  0.00  0.00    +0.000 C 
ATOM     20  C   UNL     1       8.549  13.752  18.239  0.00  0.00    +0.000 C 
ATOM     21  N   UNL     1       9.533  14.682  17.685  0.00  0.00    +0.000 NA
ATOM     22  C   UNL     1      10.795  13.982  17.443  0.00  0.00    +0.000 C 
ATOM     23  C   UNL     1      11.389  13.472  18.755  0.00  0.00    +0.000 C 
ATOM     24  H   UNL     1       9.692  15.436  18.352  0.00  0.00    +0.000 HD
ENDBRANCH  17  18
ENDBRANCH  16  17
ENDBRANCH  15  16
ENDBRANCH  12  15
ENDBRANCH   6  11
BRANCH   1  25
ATOM     25  C   UNL     1       2.762   2.647  19.238  0.00  0.00    +0.000 C 
BRANCH  25  27
ATOM     26  O   UNL     1       0.567   3.089  20.279  0.00  0.00    +0.000 OA
ATOM     27  C   UNL     1       1.271   2.962  19.288  0.00  0.00    +0.000 C 
BRANCH  27  28
ATOM     28  O   UNL     1       0.729   3.078  18.052  0.00  0.00    +0.000 OA
ATOM     29  H   UNL     1       0.352   3.983  18.040  0.00  0.00    +0.000 HD
ENDBRANCH  27  28
ENDBRANCH  25  27
ENDBRANCH   1  25
TORSDOF 8
ENDMDL
MODEL 8
REMARK VINA RESULT:      -7.4      5.951      9.038
REMARK  Name = 
REMARK  8 active torsions:
REMARK  status: ('A' for Active; 'I' for Inactive)
REMARK    1  A    between atoms: C_2  and  O_3
REMARK    2  A    between atoms: C_2  and  C_4
REMARK    3  A    between atoms: C_4  and  N_5
REMARK    4  A    between atoms: C_10  and  N_11
REMARK    5  A    between atoms: C_12  and  C_14
REMARK    6  A    between atoms: C_14  and  C_15
REMARK    7  A    between atoms: C_15  and  C_16
REMARK    8  A    between atoms: C_16  and  C_17
REMARK                            x       y       z     vdW  Elec       q    Type
REMARK                         _______ _______ _______ _____ _____    ______ ____
ROOT
ATOM      1  N   UNL     1       6.085   4.642  16.668  0.00  0.00    +0.000 N 
ATOM      2  C   UNL     1       4.921   3.855  17.026  0.00  0.00    +0.000 C 
ATOM      3  C   UNL     1       3.944   4.897  17.446  0.00  0.00    +0.000 A 
ATOM      4  C   UNL     1       2.624   4.756  17.810  0.00  0.00    +0.000 A 
ATOM      5  C   UNL     1       1.918   5.920  18.118  0.00  0.00    +0.000 A 
ATOM      6  C   UNL     1       2.531   7.195  18.089  0.00  0.00    +0.000 A 
ATOM      7  C   UNL     1       3.857   7.325  17.684  0.00  0.00    +0.000 A 
ATOM      8  C   UNL     1       4.529   6.159  17.378  0.00  0.00    +0.000 A 
ATOM      9  C   UNL     1       5.888   5.999  16.855  0.00  0.00    +0.000 C 
ATOM     10  O   UNL     1       6.638   6.913  16.575  0.00  0.00    +0.000 OA
ENDROOT
BRANCH   6  11
ATOM     11  N   UNL     1       1.819   8.361  18.433  0.00  0.00    +0.000 N 
ATOM     12  C   UNL     1       1.388   8.632  19.717  0.00  0.00    +0.000 C 
ATOM     13  O   UNL     1       1.738   8.006  20.714  0.00  0.00    +0.000 OA
ATOM     14  H   UNL     1       1.807   9.123  17.766  0.00  0.00    +0.000 HD
BRANCH  12  15
ATOM     15  C   UNL     1       0.463   9.825  19.808  0.00  0.00    +0.000 C 
BRANCH  15  16
ATOM     16  C   UNL     1      -0.018  10.258  18.421  0.00  0.00    +0.000 C 
BRANCH  16  17
ATOM     17  C   UNL     1      -1.535  10.085  18.212  0.00  0.00    +0.000 C 
BRANCH  17  18
ATOM     18  C   UNL     1      -2.229  11.375  17.725  0.00  0.00    +0.000 C 
ATOM     19  C   UNL     1      -3.521  11.741  18.485  0.00  0.00    +0.000 C 
ATOM     20  C   UNL     1      -4.781  11.026  17.992  0.00  0.00    +0.000 C 
ATOM     21  N   UNL     1      -4.938  11.109  16.540  0.00  0.00    +0.000 NA
ATOM     22  C   UNL     1      -3.775  10.516  15.880  0.00  0.00    +0.000 C 
ATOM     23  C   UNL     1      -2.507  11.301  16.212  0.00  0.00    +0.000 C 
ATOM     24  H   UNL     1      -5.013  12.089  16.268  0.00  0.00    +0.000 HD
ENDBRANCH  17  18
ENDBRANCH  16  17
ENDBRANCH  15  16
ENDBRANCH  12  15
ENDBRANCH   6  11
BRANCH   1  25
ATOM     25  C   UNL     1       7.105   4.140  15.767  0.00  0.00    +0.000 C 
BRANCH  25  27
ATOM     26  O   UNL     1       7.400   5.447  13.693  0.00  0.00    +0.000 OA
ATOM     27  C   UNL     1       6.819   4.586  14.337  0.00  0.00    +0.000 C 
BRANCH  27  28
ATOM     28  O   UNL     1       5.774   3.920  13.791  0.00  0.00    +0.000 OA
ATOM     29  H   UNL     1       6.167   3.084  13.464  0.00  0.00    +0.000 HD
ENDBRANCH  27  28
ENDBRANCH  25  27
ENDBRANCH   1  25
TORSDOF 8
ENDMDL
MODEL 9
REMARK VINA RESULT:      -7.3      5.811      9.068
REMARK  Name = 
REMARK  8 active torsions:
REMARK  status: ('A' for Active; 'I' for Inactive)
REMARK    1  A    between atoms: C_2  and  O_3
REMARK    2  A    between atoms: C_2  and  C_4
REMARK    3  A    between atoms: C_4  and  N_5
REMARK    4  A    between atoms: C_10  and  N_11
REMARK    5  A    between atoms: C_12  and  C_14
REMARK    6  A    between atoms: C_14  and  C_15
REMARK    7  A    between atoms: C_15  and  C_16
REMARK    8  A    between atoms: C_16  and  C_17
REMARK                            x       y       z     vdW  Elec       q    Type
REMARK                         _______ _______ _______ _____ _____    ______ ____
ROOT
ATOM      1  N   UNL     1       6.110   4.882  16.882  0.00  0.00    +0.000 N 
ATOM      2  C   UNL     1       4.968   4.057  17.225  0.00  0.00    +0.000 C 
ATOM      3  C   UNL     1       3.936   5.069  17.583  0.00  0.00    +0.000 A 
ATOM      4  C   UNL     1       2.611   4.882  17.908  0.00  0.00    +0.000 A 
ATOM      5  C   UNL     1       1.848   6.024  18.160  0.00  0.00    +0.000 A 
ATOM      6  C   UNL     1       2.409   7.323  18.114  0.00  0.00    +0.000 A 
ATOM      7  C   UNL     1       3.742   7.497  17.748  0.00  0.00    +0.000 A 
ATOM      8  C   UNL     1       4.470   6.352  17.497  0.00  0.00    +0.000 A 
ATOM      9  C   UNL     1       5.852   6.234  17.023  0.00  0.00    +0.000 C 
ATOM     10  O   UNL     1       6.573   7.171  16.742  0.00  0.00    +0.000 OA
ENDROOT
BRANCH   6  11
ATOM     11  N   UNL     1       1.639   8.467  18.401  0.00  0.00    +0.000 N 
ATOM     12  C   UNL     1       1.207   8.787  19.673  0.00  0.00    +0.000 C 
ATOM     13  O   UNL     1       1.601   8.238  20.699  0.00  0.00    +0.000 OA
ATOM     14  H   UNL     1       1.580   9.188  17.692  0.00  0.00    +0.000 HD
BRANCH  12  15
ATOM     15  C   UNL     1       0.221   9.932  19.709  0.00  0.00    +0.000 C 
BRANCH  15  16
ATOM     16  C   UNL     1       0.165  10.656  18.362  0.00  0.00    +0.000 C 
BRANCH  16  17
ATOM     17  C   UNL     1      -1.240  11.177  17.999  0.00  0.00    +0.000 C 
BRANCH  17  18
ATOM     18  C   UNL     1      -2.045  10.188  17.129  0.00  0.00    +0.000 C 
ATOM     19  C   UNL     1      -2.578  10.777  15.805  0.00  0.00    +0.000 C 
ATOM     20  C   UNL     1      -3.895  11.546  15.929  0.00  0.00    +0.000 C 
ATOM     21  N   UNL     1      -4.914  10.796  16.664  0.00  0.00    +0.000 NA
ATOM     22  C   UNL     1      -4.427  10.483  18.008  0.00  0.00    +0.000 C 
ATOM     23  C   UNL     1      -3.202   9.573  17.939  0.00  0.00    +0.000 C 
ATOM     24  H   UNL     1      -5.110   9.927  16.168  0.00  0.00    +0.000 HD
ENDBRANCH  17  18
ENDBRANCH  16  17
ENDBRANCH  15  16
ENDBRANCH  12  15
ENDBRANCH   6  11
BRANCH   1  25
ATOM     25  C   UNL     1       7.179   4.398  16.029  0.00  0.00    +0.000 C 
BRANCH  25  27
ATOM     26  O   UNL     1       5.922   4.125  13.922  0.00  0.00    +0.000 OA
ATOM     27  C   UNL     1       6.834   4.626  14.561  0.00  0.00    +0.000 C 
BRANCH  27  28
ATOM     28  O   UNL     1       7.697   5.478  13.957  0.00  0.00    +0.000 OA
ATOM     29  H   UNL     1       8.310   4.890  13.467  0.00  0.00    +0.000 HD
ENDBRANCH  27  28
ENDBRANCH  25  27
ENDBRANCH   1  25
TORSDOF 8
ENDMDL
