MODEL 1
REMARK VINA RESULT:      -7.5      0.000      0.000
REMARK  Name = 
REMARK  9 active torsions:
REMARK  status: ('A' for Active; 'I' for Inactive)
REMARK    1  A    between atoms: C_1  and  C_2
REMARK    2  A    between atoms: C_2  and  C_3
REMARK    3  A    between atoms: C_3  and  O_4
REMARK    4  A    between atoms: O_4  and  C_5
REMARK    5  A    between atoms: C_8  and  C_9
REMARK    6  A    between atoms: C_11  and  C_12
REMARK    7  A    between atoms: C_12  and  O_14
REMARK    8  A    between atoms: O_14  and  C_15
REMARK    9  A    between atoms: C_15  and  C_16
REMARK                            x       y       z     vdW  Elec       q    Type
REMARK                         _______ _______ _______ _____ _____    ______ ____
ROOT
ATOM      1  C   UNL     1       8.169   8.432  18.080  0.00  0.00    +0.000 A 
ATOM      2  N   UNL     1       7.487   8.030  17.023  0.00  0.00    +0.000 NA
ATOM      3  C   UNL     1       7.277   6.681  17.244  0.00  0.00    +0.000 A 
ATOM      4  C   UNL     1       7.846   6.336  18.450  0.00  0.00    +0.000 A 
ATOM      5  O   UNL     1       8.424   7.442  18.991  0.00  0.00    +0.000 OA
ENDROOT
BRANCH   1   9
ATOM      6  C   UNL     1       9.513  12.411  18.938  0.00  0.00    +0.000 A 
ATOM      7  C   UNL     1       8.738  12.132  17.811  0.00  0.00    +0.000 A 
ATOM      8  C   UNL     1       8.319  10.827  17.543  0.00  0.00    +0.000 A 
ATOM      9  C   UNL     1       8.663   9.770  18.394  0.00  0.00    +0.000 A 
ATOM     10  C   UNL     1       9.458  10.052  19.514  0.00  0.00    +0.000 A 
ATOM     11  C   UNL     1       9.881  11.362  19.783  0.00  0.00    +0.000 A 
BRANCH   6  12
ATOM     12  O   UNL     1       9.955  13.660  19.301  0.00  0.00    +0.000 OA
BRANCH  12  13
ATOM     13  C   UNL     1       9.748  14.675  18.315  0.00  0.00    +0.000 C 
BRANCH  13  15
ATOM     14  C   UNL     1      10.892  16.288  16.798  0.00  0.00    +0.000 C 
ATOM     15  C   UNL     1      11.048  15.000  17.593  0.00  0.00    +0.000 C 
ENDBRANCH  13  15
ENDBRANCH  12  13
ENDBRANCH   6  12
ENDBRANCH   1   9
BRANCH   3  16
ATOM     16  C   UNL     1       6.630   5.758  16.323  0.00  0.00    +0.000 C 
ATOM     17  O   UNL     1       7.190   5.327  15.322  0.00  0.00    +0.000 OA
BRANCH  16  18
ATOM     18  O   UNL     1       5.329   5.512  16.647  0.00  0.00    +0.000 OA
BRANCH  18  19
ATOM     19  C   UNL     1       4.883   4.176  16.397  0.00  0.00    +0.000 C 
BRANCH  19  20
ATOM     20  C   UNL     1       3.991   3.658  17.495  0.00  0.00    +0.000 A 
ATOM     21  C   UNL     1       2.658   3.315  17.227  0.00  0.00    +0.000 A 
ATOM     22  C   UNL     1       1.849   2.778  18.231  0.00  0.00    +0.000 A 
ATOM     23  C   UNL     1       2.361   2.589  19.513  0.00  0.00    +0.000 A 
ATOM     24  C   UNL     1       3.679   2.943  19.796  0.00  0.00    +0.000 A 
ATOM     25  C   UNL     1       4.490   3.480  18.792  0.00  0.00    +0.000 A 
ENDBRANCH  19  20
ENDBRANCH  18  19
ENDBRANCH  16  18
ENDBRANCH   3  16
TORSDOF 8
ENDMDL
MODEL 2
REMARK VINA RESULT:      -7.5      5.579      7.198
REMARK  Name = 
REMARK  9 active torsions:
REMARK  status: ('A' for Active; 'I' for Inactive)
REMARK    1  A    between atoms: C_1  and  C_2
REMARK    2  A    between atoms: C_2  and  C_3
REMARK    3  A    between atoms: C_3  and  O_4
REMARK    4  A    between atoms: O_4  and  C_5
REMARK    5  A    between atoms: C_8  and  C_9
REMARK    6  A    between atoms: C_11  and  C_12
REMARK    7  A    between atoms: C_12  and  O_14
REMARK    8  A    between atoms: O_14  and  C_15
REMARK    9  A    between atoms: C_15  and  C_16
REMARK                            x       y       z     vdW  Elec       q    Type
REMARK                         _______ _______ _______ _____ _____    ______ ____
ROOT
ATOM      1  C   UNL     1       3.157   7.186  18.181  0.00  0.00    +0.000 A 
ATOM      2  N   UNL     1       3.355   5.946  18.592  0.00  0.00    +0.000 NA
ATOM      3  C   UNL     1       4.441   5.511  17.855  0.00  0.00    +0.000 A 
ATOM      4  C   UNL     1       4.854   6.532  17.029  0.00  0.00    +0.000 A 
ATOM      5  O   UNL     1       4.040   7.605  17.223  0.00  0.00    +0.000 OA
ENDROOT
BRANCH   1   9
ATOM      6  C   UNL     1       0.134   9.993  19.344  0.00  0.00    +0.000 A 
ATOM      7  C   UNL     1       0.569   9.898  18.021  0.00  0.00    +0.000 A 
ATOM      8  C   UNL     1       1.563   8.985  17.665  0.00  0.00    +0.000 A 
ATOM      9  C   UNL     1       2.145   8.143  18.619  0.00  0.00    +0.000 A 
ATOM     10  C   UNL     1       1.720   8.256  19.950  0.00  0.00    +0.000 A 
ATOM     11  C   UNL     1       0.722   9.174  20.310  0.00  0.00    +0.000 A 
BRANCH   6  12
ATOM     12  O   UNL     1      -0.851  10.841  19.791  0.00  0.00    +0.000 OA
BRANCH  12  13
ATOM     13  C   UNL     1      -1.448  11.650  18.775  0.00  0.00    +0.000 C 
BRANCH  13  15
ATOM     14  C   UNL     1      -3.116  10.202  17.619  0.00  0.00    +0.000 C 
ATOM     15  C   UNL     1      -2.928  11.326  18.628  0.00  0.00    +0.000 C 
ENDBRANCH  13  15
ENDBRANCH  12  13
ENDBRANCH   6  12
ENDBRANCH   1   9
BRANCH   3  16
ATOM     16  C   UNL     1       5.008   4.170  17.886  0.00  0.00    +0.000 C 
ATOM     17  O   UNL     1       6.121   3.938  18.345  0.00  0.00    +0.000 OA
BRANCH  16  18
ATOM     18  O   UNL     1       4.215   3.246  17.274  0.00  0.00    +0.000 OA
BRANCH  18  19
ATOM     19  C   UNL     1       3.895   2.100  18.067  0.00  0.00    +0.000 C 
BRANCH  19  20
ATOM     20  C   UNL     1       2.933   2.427  19.180  0.00  0.00    +0.000 A 
ATOM     21  C   UNL     1       3.360   2.422  20.515  0.00  0.00    +0.000 A 
ATOM     22  C   UNL     1       2.484   2.783  21.540  0.00  0.00    +0.000 A 
ATOM     23  C   UNL     1       1.171   3.141  21.243  0.00  0.00    +0.000 A 
ATOM     24  C   UNL     1       0.730   3.133  19.921  0.00  0.00    +0.000 A 
ATOM     25  C   UNL     1       1.605   2.772  18.893  0.00  0.00    +0.000 A 
ENDBRANCH  19  20
ENDBRANCH  18  19
ENDBRANCH  16  18
ENDBRANCH   3  16
TORSDOF 8
ENDMDL
MODEL 3
REMARK VINA RESULT:      -7.5      5.522      6.862
REMARK  Name = 
REMARK  9 active torsions:
REMARK  status: ('A' for Active; 'I' for Inactive)
REMARK    1  A    between atoms: C_1  and  C_2
REMARK    2  A    between atoms: C_2  and  C_3
REMARK    3  A    between atoms: C_3  and  O_4
REMARK    4  A    between atoms: O_4  and  C_5
REMARK    5  A    between atoms: C_8  and  C_9
REMARK    6  A    between atoms: C_11  and  C_12
REMARK    7  A    between atoms: C_12  and  O_14
REMARK    8  A    between atoms: O_14  and  C_15
REMARK    9  A    between atoms: C_15  and  C_16
REMARK                            x       y       z     vdW  Elec       q    Type
REMARK                         _______ _______ _______ _____ _____    ______ ____
ROOT
ATOM      1  C   UNL     1       3.252   6.975  17.929  0.00  0.00    +0.000 A 
ATOM      2  N   UNL     1       3.097   5.673  17.760  0.00  0.00    +0.000 NA
ATOM      3  C   UNL     1       4.270   5.265  17.151  0.00  0.00    +0.000 A 
ATOM      4  C   UNL     1       5.089   6.360  16.988  0.00  0.00    +0.000 A 
ATOM      5  O   UNL     1       4.451   7.458  17.475  0.00  0.00    +0.000 OA
ENDROOT
BRANCH   1   9
ATOM      6  C   UNL     1       0.608   9.765  19.822  0.00  0.00    +0.000 A 
ATOM      7  C   UNL     1       1.137   8.678  20.518  0.00  0.00    +0.000 A 
ATOM      8  C   UNL     1       1.988   7.773  19.880  0.00  0.00    +0.000 A 
ATOM      9  C   UNL     1       2.333   7.934  18.533  0.00  0.00    +0.000 A 
ATOM     10  C   UNL     1       1.782   9.016  17.833  0.00  0.00    +0.000 A 
ATOM     11  C   UNL     1       0.926   9.925  18.472  0.00  0.00    +0.000 A 
BRANCH   6  12
ATOM     12  O   UNL     1      -0.219  10.721  20.363  0.00  0.00    +0.000 OA
BRANCH  12  13
ATOM     13  C   UNL     1      -0.557  11.789  19.475  0.00  0.00    +0.000 C 
BRANCH  13  15
ATOM     14  C   UNL     1      -2.458  11.401  17.910  0.00  0.00    +0.000 C 
ATOM     15  C   UNL     1      -2.066  11.887  19.298  0.00  0.00    +0.000 C 
ENDBRANCH  13  15
ENDBRANCH  12  13
ENDBRANCH   6  12
ENDBRANCH   1   9
BRANCH   3  16
ATOM     16  C   UNL     1       4.562   3.917  16.685  0.00  0.00    +0.000 C 
ATOM     17  O   UNL     1       5.607   3.632  16.111  0.00  0.00    +0.000 OA
BRANCH  16  18
ATOM     18  O   UNL     1       3.522   3.056  16.872  0.00  0.00    +0.000 OA
BRANCH  18  19
ATOM     19  C   UNL     1       3.692   2.123  17.942  0.00  0.00    +0.000 C 
BRANCH  19  20
ATOM     20  C   UNL     1       2.850   2.470  19.141  0.00  0.00    +0.000 A 
ATOM     21  C   UNL     1       1.488   2.766  18.995  0.00  0.00    +0.000 A 
ATOM     22  C   UNL     1       0.695   3.029  20.114  0.00  0.00    +0.000 A 
ATOM     23  C   UNL     1       1.258   3.010  21.388  0.00  0.00    +0.000 A 
ATOM     24  C   UNL     1       2.616   2.734  21.545  0.00  0.00    +0.000 A 
ATOM     25  C   UNL     1       3.410   2.470  20.427  0.00  0.00    +0.000 A 
ENDBRANCH  19  20
ENDBRANCH  18  19
ENDBRANCH  16  18
ENDBRANCH   3  16
TORSDOF 8
ENDMDL
MODEL 4
REMARK VINA RESULT:      -7.4      1.591      1.852
REMARK  Name = 
REMARK  9 active torsions:
REMARK  status: ('A' for Active; 'I' for Inactive)
REMARK    1  A    between atoms: C_1  and  C_2
REMARK    2  A    between atoms: C_2  and  C_3
REMARK    3  A    between atoms: C_3  and  O_4
REMARK    4  A    between atoms: O_4  and  C_5
REMARK    5  A    between atoms: C_8  and  C_9
REMARK    6  A    between atoms: C_11  and  C_12
REMARK    7  A    between atoms: C_12  and  O_14
REMARK    8  A    between atoms: O_14  and  C_15
REMARK    9  A    between atoms: C_15  and  C_16
REMARK                            x       y       z     vdW  Elec       q    Type
REMARK                         _______ _______ _______ _____ _____    ______ ____
ROOT
ATOM      1  C   UNL     1       8.111   8.457  18.091  0.00  0.00    +0.000 A 
ATOM      2  N   UNL     1       8.377   7.300  18.672  0.00  0.00    +0.000 NA
ATOM      3  C   UNL     1       7.618   6.382  17.970  0.00  0.00    +0.000 A 
ATOM      4  C   UNL     1       6.927   7.044  16.979  0.00  0.00    +0.000 A 
ATOM      5  O   UNL     1       7.228   8.369  17.048  0.00  0.00    +0.000 OA
ENDROOT
BRANCH   1   9
ATOM      6  C   UNL     1       9.550  12.399  18.960  0.00  0.00    +0.000 A 
ATOM      7  C   UNL     1       8.775  12.141  17.828  0.00  0.00    +0.000 A 
ATOM      8  C   UNL     1       8.326  10.847  17.557  0.00  0.00    +0.000 A 
ATOM      9  C   UNL     1       8.636   9.781  18.409  0.00  0.00    +0.000 A 
ATOM     10  C   UNL     1       9.431  10.042  19.534  0.00  0.00    +0.000 A 
ATOM     11  C   UNL     1       9.885  11.341  19.807  0.00  0.00    +0.000 A 
BRANCH   6  12
ATOM     12  O   UNL     1      10.021  13.637  19.327  0.00  0.00    +0.000 OA
BRANCH  12  13
ATOM     13  C   UNL     1      10.499  14.438  18.243  0.00  0.00    +0.000 C 
BRANCH  13  15
ATOM     14  C   UNL     1      12.333  13.406  16.907  0.00  0.00    +0.000 C 
ATOM     15  C   UNL     1      12.008  14.300  18.095  0.00  0.00    +0.000 C 
ENDBRANCH  13  15
ENDBRANCH  12  13
ENDBRANCH   6  12
ENDBRANCH   1   9
BRANCH   3  16
ATOM     16  C   UNL     1       7.504   4.963  18.273  0.00  0.00    +0.000 C 
ATOM     17  O   UNL     1       8.177   4.112  17.703  0.00  0.00    +0.000 OA
BRANCH  16  18
ATOM     18  O   UNL     1       6.517   4.692  19.174  0.00  0.00    +0.000 OA
BRANCH  18  19
ATOM     19  C   UNL     1       5.325   5.467  19.020  0.00  0.00    +0.000 C 
BRANCH  19  20
ATOM     20  C   UNL     1       4.102   4.737  19.510  0.00  0.00    +0.000 A 
ATOM     21  C   UNL     1       2.954   5.446  19.890  0.00  0.00    +0.000 A 
ATOM     22  C   UNL     1       1.801   4.766  20.287  0.00  0.00    +0.000 A 
ATOM     23  C   UNL     1       1.787   3.373  20.319  0.00  0.00    +0.000 A 
ATOM     24  C   UNL     1       2.928   2.658  19.959  0.00  0.00    +0.000 A 
ATOM     25  C   UNL     1       4.083   3.336  19.561  0.00  0.00    +0.000 A 
ENDBRANCH  19  20
ENDBRANCH  18  19
ENDBRANCH  16  18
ENDBRANCH   3  16
TORSDOF 8
ENDMDL
MODEL 5
REMARK VINA RESULT:      -7.4      1.435      1.873
REMARK  Name = 
REMARK  9 active torsions:
REMARK  status: ('A' for Active; 'I' for Inactive)
REMARK    1  A    between atoms: C_1  and  C_2
REMARK    2  A    between atoms: C_2  and  C_3
REMARK    3  A    between atoms: C_3  and  O_4
REMARK    4  A    between atoms: O_4  and  C_5
REMARK    5  A    between atoms: C_8  and  C_9
REMARK    6  A    between atoms: C_11  and  C_12
REMARK    7  A    between atoms: C_12  and  O_14
REMARK    8  A    between atoms: O_14  and  C_15
REMARK    9  A    between atoms: C_15  and  C_16
REMARK                            x       y       z     vdW  Elec       q    Type
REMARK                         _______ _______ _______ _____ _____    ______ ____
ROOT
ATOM      1  C   UNL     1       8.122   8.510  18.115  0.00  0.00    +0.000 A 
ATOM      2  N   UNL     1       8.422   7.331  18.631  0.00  0.00    +0.000 NA
ATOM      3  C   UNL     1       7.634   6.439  17.927  0.00  0.00    +0.000 A 
ATOM      4  C   UNL     1       6.893   7.137  17.000  0.00  0.00    +0.000 A 
ATOM      5  O   UNL     1       7.190   8.460  17.112  0.00  0.00    +0.000 OA
ENDROOT
BRANCH   1   9
ATOM      6  C   UNL     1       9.587  12.422  19.069  0.00  0.00    +0.000 A 
ATOM      7  C   UNL     1       8.877  12.179  17.893  0.00  0.00    +0.000 A 
ATOM      8  C   UNL     1       8.418  10.894  17.595  0.00  0.00    +0.000 A 
ATOM      9  C   UNL     1       8.654   9.823  18.464  0.00  0.00    +0.000 A 
ATOM     10  C   UNL     1       9.386  10.069  19.635  0.00  0.00    +0.000 A 
ATOM     11  C   UNL     1       9.849  11.358  19.935  0.00  0.00    +0.000 A 
BRANCH   6  12
ATOM     12  O   UNL     1      10.062  13.650  19.464  0.00  0.00    +0.000 OA
BRANCH  12  13
ATOM     13  C   UNL     1      11.310  14.024  18.876  0.00  0.00    +0.000 C 
BRANCH  13  15
ATOM     14  C   UNL     1      11.849  16.432  19.230  0.00  0.00    +0.000 C 
ATOM     15  C   UNL     1      12.047  15.020  19.761  0.00  0.00    +0.000 C 
ENDBRANCH  13  15
ENDBRANCH  12  13
ENDBRANCH   6  12
ENDBRANCH   1   9
BRANCH   3  16
ATOM     16  C   UNL     1       7.542   5.006  18.174  0.00  0.00    +0.000 C 
ATOM     17  O   UNL     1       8.040   4.177  17.422  0.00  0.00    +0.000 OA
BRANCH  16  18
ATOM     18  O   UNL     1       6.775   4.706  19.260  0.00  0.00    +0.000 OA
BRANCH  18  19
ATOM     19  C   UNL     1       5.427   5.177  19.200  0.00  0.00    +0.000 C 
BRANCH  19  20
ATOM     20  C   UNL     1       4.476   4.127  18.689  0.00  0.00    +0.000 A 
ATOM     21  C   UNL     1       4.415   2.865  19.297  0.00  0.00    +0.000 A 
ATOM     22  C   UNL     1       3.492   1.912  18.861  0.00  0.00    +0.000 A 
ATOM     23  C   UNL     1       2.629   2.207  17.807  0.00  0.00    +0.000 A 
ATOM     24  C   UNL     1       2.692   3.452  17.184  0.00  0.00    +0.000 A 
ATOM     25  C   UNL     1       3.615   4.407  17.619  0.00  0.00    +0.000 A 
ENDBRANCH  19  20
ENDBRANCH  18  19
ENDBRANCH  16  18
ENDBRANCH   3  16
TORSDOF 8
ENDMDL
MODEL 6
REMARK VINA RESULT:      -7.4      1.800      2.553
REMARK  Name = 
REMARK  9 active torsions:
REMARK  status: ('A' for Active; 'I' for Inactive)
REMARK    1  A    between atoms: C_1  and  C_2
REMARK    2  A    between atoms: C_2  and  C_3
REMARK    3  A    between atoms: C_3  and  O_4
REMARK    4  A    between atoms: O_4  and  C_5
REMARK    5  A    between atoms: C_8  and  C_9
REMARK    6  A    between atoms: C_11  and  C_12
REMARK    7  A    between atoms: C_12  and  O_14
REMARK    8  A    between atoms: O_14  and  C_15
REMARK    9  A    between atoms: C_15  and  C_16
REMARK                            x       y       z     vdW  Elec       q    Type
REMARK                         _______ _______ _______ _____ _____    ______ ____
ROOT
ATOM      1  C   UNL     1       8.119   8.473  18.094  0.00  0.00    +0.000 A 
ATOM      2  N   UNL     1       8.371   7.328  18.702  0.00  0.00    +0.000 NA
ATOM      3  C   UNL     1       7.653   6.392  17.979  0.00  0.00    +0.000 A 
ATOM      4  C   UNL     1       7.001   7.033  16.949  0.00  0.00    +0.000 A 
ATOM      5  O   UNL     1       7.285   8.362  17.013  0.00  0.00    +0.000 OA
ENDROOT
BRANCH   1   9
ATOM      6  C   UNL     1       9.683  12.334  19.104  0.00  0.00    +0.000 A 
ATOM      7  C   UNL     1       9.939  11.215  19.898  0.00  0.00    +0.000 A 
ATOM      8  C   UNL     1       9.411   9.968  19.557  0.00  0.00    +0.000 A 
ATOM      9  C   UNL     1       8.616   9.807  18.416  0.00  0.00    +0.000 A 
ATOM     10  C   UNL     1       8.345  10.938  17.633  0.00  0.00    +0.000 A 
ATOM     11  C   UNL     1       8.874  12.192  17.974  0.00  0.00    +0.000 A 
BRANCH   6  12
ATOM     12  O   UNL     1      10.172  13.596  19.339  0.00  0.00    +0.000 OA
BRANCH  12  13
ATOM     13  C   UNL     1      10.595  13.830  20.685  0.00  0.00    +0.000 C 
BRANCH  13  15
ATOM     14  C   UNL     1       8.969  13.751  22.573  0.00  0.00    +0.000 C 
ATOM     15  C   UNL     1       9.539  14.611  21.454  0.00  0.00    +0.000 C 
ENDBRANCH  13  15
ENDBRANCH  12  13
ENDBRANCH   6  12
ENDBRANCH   1   9
BRANCH   3  16
ATOM     16  C   UNL     1       7.539   4.976  18.297  0.00  0.00    +0.000 C 
ATOM     17  O   UNL     1       8.173   4.115  17.699  0.00  0.00    +0.000 OA
BRANCH  16  18
ATOM     18  O   UNL     1       6.596   4.722  19.249  0.00  0.00    +0.000 OA
BRANCH  18  19
ATOM     19  C   UNL     1       5.358   5.415  19.076  0.00  0.00    +0.000 C 
BRANCH  19  20
ATOM     20  C   UNL     1       4.245   4.496  18.643  0.00  0.00    +0.000 A 
ATOM     21  C   UNL     1       4.343   3.113  18.847  0.00  0.00    +0.000 A 
ATOM     22  C   UNL     1       3.286   2.269  18.500  0.00  0.00    +0.000 A 
ATOM     23  C   UNL     1       2.127   2.798  17.935  0.00  0.00    +0.000 A 
ATOM     24  C   UNL     1       2.025   4.170  17.711  0.00  0.00    +0.000 A 
ATOM     25  C   UNL     1       3.082   5.016  18.059  0.00  0.00    +0.000 A 
ENDBRANCH  19  20
ENDBRANCH  18  19
ENDBRANCH  16  18
ENDBRANCH   3  16
TORSDOF 8
ENDMDL
MODEL 7
REMARK VINA RESULT:      -7.4      5.356      6.885
REMARK  Name = 
REMARK  9 active torsions:
REMARK  status: ('A' for Active; 'I' for Inactive)
REMARK    1  A    between atoms: C_1  and  C_2
REMARK    2  A    between atoms: C_2  and  C_3
REMARK    3  A    between atoms: C_3  and  O_4
REMARK    4  A    between atoms: O_4  and  C_5
REMARK    5  A    between atoms: C_8  and  C_9
REMARK    6  A    between atoms: C_11  and  C_12
REMARK    7  A    between atoms: C_12  and  O_14
REMARK    8  A    between atoms: O_14  and  C_15
REMARK    9  A    between atoms: C_15  and  C_16
REMARK                            x       y       z     vdW  Elec       q    Type
REMARK                         _______ _______ _______ _____ _____    ______ ____
ROOT
ATOM      1  C   UNL     1       3.414   7.091  17.779  0.00  0.00    +0.000 A 
ATOM      2  N   UNL     1       3.393   5.772  17.697  0.00  0.00    +0.000 NA
ATOM      3  C   UNL     1       4.572   5.452  17.048  0.00  0.00    +0.000 A 
ATOM      4  C   UNL     1       5.258   6.615  16.776  0.00  0.00    +0.000 A 
ATOM      5  O   UNL     1       4.529   7.668  17.232  0.00  0.00    +0.000 OA
ENDROOT
BRANCH   1   9
ATOM      6  C   UNL     1       0.567   9.691  19.651  0.00  0.00    +0.000 A 
ATOM      7  C   UNL     1       1.144   8.625  20.343  0.00  0.00    +0.000 A 
ATOM      8  C   UNL     1       2.061   7.782  19.712  0.00  0.00    +0.000 A 
ATOM      9  C   UNL     1       2.426   7.984  18.376  0.00  0.00    +0.000 A 
ATOM     10  C   UNL     1       1.828   9.044  17.679  0.00  0.00    +0.000 A 
ATOM     11  C   UNL     1       0.905   9.890  18.311  0.00  0.00    +0.000 A 
BRANCH   6  12
ATOM     12  O   UNL     1      -0.327  10.587  20.187  0.00  0.00    +0.000 OA
BRANCH  12  13
ATOM     13  C   UNL     1       0.141  11.271  21.352  0.00  0.00    +0.000 C 
BRANCH  13  15
ATOM     14  C   UNL     1      -0.527   9.805  23.254  0.00  0.00    +0.000 C 
ATOM     15  C   UNL     1      -0.834  11.096  22.508  0.00  0.00    +0.000 C 
ENDBRANCH  13  15
ENDBRANCH  12  13
ENDBRANCH   6  12
ENDBRANCH   1   9
BRANCH   3  16
ATOM     16  C   UNL     1       4.986   4.115  16.647  0.00  0.00    +0.000 C 
ATOM     17  O   UNL     1       5.372   3.859  15.513  0.00  0.00    +0.000 OA
BRANCH  16  18
ATOM     18  O   UNL     1       4.808   3.189  17.631  0.00  0.00    +0.000 OA
BRANCH  18  19
ATOM     19  C   UNL     1       3.570   2.476  17.576  0.00  0.00    +0.000 C 
BRANCH  19  20
ATOM     20  C   UNL     1       2.783   2.597  18.854  0.00  0.00    +0.000 A 
ATOM     21  C   UNL     1       3.433   2.567  20.097  0.00  0.00    +0.000 A 
ATOM     22  C   UNL     1       2.710   2.740  21.279  0.00  0.00    +0.000 A 
ATOM     23  C   UNL     1       1.331   2.933  21.232  0.00  0.00    +0.000 A 
ATOM     24  C   UNL     1       0.672   2.947  20.004  0.00  0.00    +0.000 A 
ATOM     25  C   UNL     1       1.393   2.775  18.820  0.00  0.00    +0.000 A 
ENDBRANCH  19  20
ENDBRANCH  18  19
ENDBRANCH  16  18
ENDBRANCH   3  16
TORSDOF 8
ENDMDL
MODEL 8
REMARK VINA RESULT:      -7.4      1.675      2.150
REMARK  Name = 
REMARK  9 active torsions:
REMARK  status: ('A' for Active; 'I' for Inactive)
REMARK    1  A    between atoms: C_1  and  C_2
REMARK    2  A    between atoms: C_2  and  C_3
REMARK    3  A    between atoms: C_3  and  O_4
REMARK    4  A    between atoms: O_4  and  C_5
REMARK    5  A    between atoms: C_8  and  C_9
REMARK    6  A    between atoms: C_11  and  C_12
REMARK    7  A    between atoms: C_12  and  O_14
REMARK    8  A    between atoms: O_14  and  C_15
REMARK    9  A    between atoms: C_15  and  C_16
REMARK                            x       y       z     vdW  Elec       q    Type
REMARK                         _______ _______ _______ _____ _____    ______ ____
ROOT
ATOM      1  C   UNL     1       7.957   8.463  17.977  0.00  0.00    +0.000 A 
ATOM      2  N   UNL     1       7.003   8.211  17.099  0.00  0.00    +0.000 NA
ATOM      3  C   UNL     1       6.787   6.849  17.209  0.00  0.00    +0.000 A 
ATOM      4  C   UNL     1       7.633   6.343  18.171  0.00  0.00    +0.000 A 
ATOM      5  O   UNL     1       8.388   7.360  18.666  0.00  0.00    +0.000 OA
ENDROOT
BRANCH   1   9
ATOM      6  C   UNL     1       9.699  12.274  18.876  0.00  0.00    +0.000 A 
ATOM      7  C   UNL     1       8.863  12.098  17.772  0.00  0.00    +0.000 A 
ATOM      8  C   UNL     1       8.315  10.846  17.490  0.00  0.00    +0.000 A 
ATOM      9  C   UNL     1       8.585   9.739  18.304  0.00  0.00    +0.000 A 
ATOM     10  C   UNL     1       9.441   9.917  19.400  0.00  0.00    +0.000 A 
ATOM     11  C   UNL     1       9.994  11.174  19.683  0.00  0.00    +0.000 A 
BRANCH   6  12
ATOM     12  O   UNL     1      10.269  13.467  19.251  0.00  0.00    +0.000 OA
BRANCH  12  13
ATOM     13  C   UNL     1       9.454  14.276  20.102  0.00  0.00    +0.000 C 
BRANCH  13  15
ATOM     14  C   UNL     1       9.070  14.570  22.548  0.00  0.00    +0.000 C 
ATOM     15  C   UNL     1      10.124  14.483  21.453  0.00  0.00    +0.000 C 
ENDBRANCH  13  15
ENDBRANCH  12  13
ENDBRANCH   6  12
ENDBRANCH   1   9
BRANCH   3  16
ATOM     16  C   UNL     1       5.874   6.063  16.390  0.00  0.00    +0.000 C 
ATOM     17  O   UNL     1       5.894   6.099  15.166  0.00  0.00    +0.000 OA
BRANCH  16  18
ATOM     18  O   UNL     1       4.959   5.376  17.130  0.00  0.00    +0.000 OA
BRANCH  18  19
ATOM     19  C   UNL     1       4.116   6.184  17.955  0.00  0.00    +0.000 C 
BRANCH  19  20
ATOM     20  C   UNL     1       3.058   5.374  18.658  0.00  0.00    +0.000 A 
ATOM     21  C   UNL     1       2.671   5.690  19.968  0.00  0.00    +0.000 A 
ATOM     22  C   UNL     1       1.649   4.977  20.597  0.00  0.00    +0.000 A 
ATOM     23  C   UNL     1       1.012   3.934  19.928  0.00  0.00    +0.000 A 
ATOM     24  C   UNL     1       1.400   3.599  18.632  0.00  0.00    +0.000 A 
ATOM     25  C   UNL     1       2.422   4.312  18.001  0.00  0.00    +0.000 A 
ENDBRANCH  19  20
ENDBRANCH  18  19
ENDBRANCH  16  18
ENDBRANCH   3  16
TORSDOF 8
ENDMDL
MODEL 9
REMARK VINA RESULT:      -7.3      1.522      2.063
REMARK  Name = 
REMARK  9 active torsions:
REMARK  status: ('A' for Active; 'I' for Inactive)
REMARK    1  A    between atoms: C_1  and  C_2
REMARK    2  A    between atoms: C_2  and  C_3
REMARK    3  A    between atoms: C_3  and  O_4
REMARK    4  A    between atoms: O_4  and  C_5
REMARK    5  A    between atoms: C_8  and  C_9
REMARK    6  A    between atoms: C_11  and  C_12
REMARK    7  A    between atoms: C_12  and  O_14
REMARK    8  A    between atoms: O_14  and  C_15
REMARK    9  A    between atoms: C_15  and  C_16
REMARK                            x       y       z     vdW  Elec       q    Type
REMARK                         _______ _______ _______ _____ _____    ______ ____
ROOT
ATOM      1  C   UNL     1       7.945   8.514  17.990  0.00  0.00    +0.000 A 
ATOM      2  N   UNL     1       7.015   8.168  17.118  0.00  0.00    +0.000 NA
ATOM      3  C   UNL     1       6.857   6.807  17.309  0.00  0.00    +0.000 A 
ATOM      4  C   UNL     1       7.709   6.398  18.310  0.00  0.00    +0.000 A 
ATOM      5  O   UNL     1       8.414   7.476  18.750  0.00  0.00    +0.000 OA
ENDROOT
BRANCH   1   9
ATOM      6  C   UNL     1       9.721  12.333  18.786  0.00  0.00    +0.000 A 
ATOM      7  C   UNL     1      10.042  11.208  19.548  0.00  0.00    +0.000 A 
ATOM      8  C   UNL     1       9.444   9.975  19.279  0.00  0.00    +0.000 A 
ATOM      9  C   UNL     1       8.513   9.835  18.244  0.00  0.00    +0.000 A 
ATOM     10  C   UNL     1       8.178  10.972  17.495  0.00  0.00    +0.000 A 
ATOM     11  C   UNL     1       8.777  12.211  17.765  0.00  0.00    +0.000 A 
BRANCH   6  12
ATOM     12  O   UNL     1      10.268  13.582  18.956  0.00  0.00    +0.000 OA
BRANCH  12  13
ATOM     13  C   UNL     1      11.133  13.706  20.088  0.00  0.00    +0.000 C 
BRANCH  13  15
ATOM     14  C   UNL     1      10.929  16.036  20.950  0.00  0.00    +0.000 C 
ATOM     15  C   UNL     1      11.781  15.083  20.124  0.00  0.00    +0.000 C 
ENDBRANCH  13  15
ENDBRANCH  12  13
ENDBRANCH   6  12
ENDBRANCH   1   9
BRANCH   3  16
ATOM     16  C   UNL     1       5.991   5.933  16.530  0.00  0.00    +0.000 C 
ATOM     17  O   UNL     1       6.035   5.885  15.306  0.00  0.00    +0.000 OA
BRANCH  16  18
ATOM     18  O   UNL     1       5.085   5.265  17.298  0.00  0.00    +0.000 OA
BRANCH  18  19
ATOM     19  C   UNL     1       4.065   6.080  17.881  0.00  0.00    +0.000 C 
BRANCH  19  20
ATOM     20  C   UNL     1       3.022   5.263  18.598  0.00  0.00    +0.000 A 
ATOM     21  C   UNL     1       2.638   5.588  19.907  0.00  0.00    +0.000 A 
ATOM     22  C   UNL     1       1.629   4.868  20.549  0.00  0.00    +0.000 A 
ATOM     23  C   UNL     1       1.001   3.810  19.894  0.00  0.00    +0.000 A 
ATOM     24  C   UNL     1       1.386   3.467  18.599  0.00  0.00    +0.000 A 
ATOM     25  C   UNL     1       2.396   4.187  17.955  0.00  0.00    +0.000 A 
ENDBRANCH  19  20
ENDBRANCH  18  19
ENDBRANCH  16  18
ENDBRANCH   3  16
TORSDOF 8
ENDMDL
