MODEL 1
REMARK VINA RESULT:      -7.7      0.000      0.000
REMARK  Name = 
REMARK  4 active torsions:
REMARK  status: ('A' for Active; 'I' for Inactive)
REMARK    1  A    between atoms: C_2  and  C_3
REMARK    2  A    between atoms: C_7  and  C_8
REMARK    3  A    between atoms: C_10  and  C_11
REMARK    4  A    between atoms: N_18  and  O_19
REMARK                            x       y       z     vdW  Elec       q    Type
REMARK                         _______ _______ _______ _____ _____    ______ ____
ROOT
ATOM      1  C   UNL     1       5.022   5.064  17.842  0.00  0.00    +0.000 A 
ATOM      2  N   UNL     1       4.900   4.918  16.529  0.00  0.00    +0.000 NA
ATOM      3  C   UNL     1       6.168   4.696  16.034  0.00  0.00    +0.000 A 
ATOM      4  C   UNL     1       7.083   4.688  17.065  0.00  0.00    +0.000 A 
ATOM      5  N   UNL     1       6.348   4.912  18.189  0.00  0.00    +0.000 N 
ENDROOT
BRANCH   1  10
ATOM      6  C   UNL     1       2.447   4.456  20.530  0.00  0.00    +0.000 A 
ATOM      7  C   UNL     1       1.803   5.695  20.595  0.00  0.00    +0.000 A 
ATOM      8  C   UNL     1       2.196   6.728  19.748  0.00  0.00    +0.000 A 
ATOM      9  C   UNL     1       3.239   6.529  18.841  0.00  0.00    +0.000 A 
ATOM     10  C   UNL     1       3.915   5.302  18.773  0.00  0.00    +0.000 A 
ATOM     11  C   UNL     1       3.493   4.261  19.620  0.00  0.00    +0.000 A 
BRANCH   6  13
ATOM     12  N   UNL     1       1.720   2.524  22.099  0.00  0.00    +0.000 NA
ATOM     13  C   UNL     1       2.036   3.391  21.396  0.00  0.00    +0.000 C 
ENDBRANCH   6  13
ENDBRANCH   1  10
BRANCH   3  14
ATOM     14  C   UNL     1       6.449   4.481  14.627  0.00  0.00    +0.000 A 
ATOM     15  C   UNL     1       5.718   3.589  13.833  0.00  0.00    +0.000 A 
ATOM     16  C   UNL     1       6.023   3.448  12.481  0.00  0.00    +0.000 A 
ATOM     17  C   UNL     1       7.059   4.202  11.956  0.00  0.00    +0.000 A 
ATOM     18  N   UNL     1       7.797   5.063  12.684  0.00  0.00    +0.000 NA
ATOM     19  C   UNL     1       7.476   5.182  14.000  0.00  0.00    +0.000 A 
ENDBRANCH   3  14
BRANCH   5  20
ATOM     20  O   UNL     1       6.870   4.935  19.480  0.00  0.00    +0.000 OA
ATOM     21  H   UNL     1       7.679   4.413  19.366  0.00  0.00    +0.000 HD
ENDBRANCH   5  20
TORSDOF 4
ENDMDL
MODEL 2
REMARK VINA RESULT:      -7.5      0.621      1.073
REMARK  Name = 
REMARK  4 active torsions:
REMARK  status: ('A' for Active; 'I' for Inactive)
REMARK    1  A    between atoms: C_2  and  C_3
REMARK    2  A    between atoms: C_7  and  C_8
REMARK    3  A    between atoms: C_10  and  C_11
REMARK    4  A    between atoms: N_18  and  O_19
REMARK                            x       y       z     vdW  Elec       q    Type
REMARK                         _______ _______ _______ _____ _____    ______ ____
ROOT
ATOM      1  C   UNL     1       5.062   5.138  17.847  0.00  0.00    +0.000 A 
ATOM      2  N   UNL     1       4.954   5.009  16.531  0.00  0.00    +0.000 NA
ATOM      3  C   UNL     1       6.230   4.809  16.046  0.00  0.00    +0.000 A 
ATOM      4  C   UNL     1       7.135   4.798  17.086  0.00  0.00    +0.000 A 
ATOM      5  N   UNL     1       6.386   4.998  18.206  0.00  0.00    +0.000 N 
ENDROOT
BRANCH   1  10
ATOM      6  C   UNL     1       2.479   4.469  20.513  0.00  0.00    +0.000 A 
ATOM      7  C   UNL     1       1.809   5.695  20.576  0.00  0.00    +0.000 A 
ATOM      8  C   UNL     1       2.186   6.738  19.734  0.00  0.00    +0.000 A 
ATOM      9  C   UNL     1       3.240   6.563  18.835  0.00  0.00    +0.000 A 
ATOM     10  C   UNL     1       3.942   5.351  18.770  0.00  0.00    +0.000 A 
ATOM     11  C   UNL     1       3.536   4.299  19.611  0.00  0.00    +0.000 A 
BRANCH   6  13
ATOM     12  N   UNL     1       1.760   2.534  22.082  0.00  0.00    +0.000 NA
ATOM     13  C   UNL     1       2.084   3.394  21.373  0.00  0.00    +0.000 C 
ENDBRANCH   6  13
ENDBRANCH   1  10
BRANCH   3  14
ATOM     14  C   UNL     1       6.528   4.616  14.640  0.00  0.00    +0.000 A 
ATOM     15  C   UNL     1       7.539   5.319  13.974  0.00  0.00    +0.000 A 
ATOM     16  C   UNL     1       7.793   5.068  12.626  0.00  0.00    +0.000 A 
ATOM     17  C   UNL     1       7.022   4.120  11.976  0.00  0.00    +0.000 A 
ATOM     18  N   UNL     1       6.031   3.428  12.573  0.00  0.00    +0.000 NA
ATOM     19  C   UNL     1       5.808   3.692  13.888  0.00  0.00    +0.000 A 
ENDBRANCH   3  14
BRANCH   5  20
ATOM     20  O   UNL     1       6.894   5.009  19.502  0.00  0.00    +0.000 OA
ATOM     21  H   UNL     1       7.806   5.299  19.345  0.00  0.00    +0.000 HD
ENDBRANCH   5  20
TORSDOF 4
ENDMDL
MODEL 3
REMARK VINA RESULT:      -7.3      3.128      4.135
REMARK  Name = 
REMARK  4 active torsions:
REMARK  status: ('A' for Active; 'I' for Inactive)
REMARK    1  A    between atoms: C_2  and  C_3
REMARK    2  A    between atoms: C_7  and  C_8
REMARK    3  A    between atoms: C_10  and  C_11
REMARK    4  A    between atoms: N_18  and  O_19
REMARK                            x       y       z     vdW  Elec       q    Type
REMARK                         _______ _______ _______ _____ _____    ______ ____
ROOT
ATOM      1  C   UNL     1       2.803   7.082  18.935  0.00  0.00    +0.000 A 
ATOM      2  N   UNL     1       3.566   7.022  17.851  0.00  0.00    +0.000 NA
ATOM      3  C   UNL     1       4.258   5.831  17.918  0.00  0.00    +0.000 A 
ATOM      4  C   UNL     1       3.899   5.139  19.055  0.00  0.00    +0.000 A 
ATOM      5  N   UNL     1       2.983   5.933  19.675  0.00  0.00    +0.000 N 
ENDROOT
BRANCH   1  10
ATOM      6  C   UNL     1       0.675   9.447  20.960  0.00  0.00    +0.000 A 
ATOM      7  C   UNL     1       0.136  10.270  19.966  0.00  0.00    +0.000 A 
ATOM      8  C   UNL     1       0.451  10.043  18.629  0.00  0.00    +0.000 A 
ATOM      9  C   UNL     1       1.314   9.000  18.282  0.00  0.00    +0.000 A 
ATOM     10  C   UNL     1       1.885   8.177  19.264  0.00  0.00    +0.000 A 
ATOM     11  C   UNL     1       1.540   8.405  20.608  0.00  0.00    +0.000 A 
BRANCH   6  13
ATOM     12  N   UNL     1       0.065   9.848  23.448  0.00  0.00    +0.000 NA
ATOM     13  C   UNL     1       0.342   9.677  22.335  0.00  0.00    +0.000 C 
ENDBRANCH   6  13
ENDBRANCH   1  10
BRANCH   3  14
ATOM     14  C   UNL     1       5.198   5.396  16.902  0.00  0.00    +0.000 A 
ATOM     15  C   UNL     1       4.986   4.267  16.103  0.00  0.00    +0.000 A 
ATOM     16  C   UNL     1       5.917   3.917  15.126  0.00  0.00    +0.000 A 
ATOM     17  C   UNL     1       7.044   4.708  14.977  0.00  0.00    +0.000 A 
ATOM     18  N   UNL     1       7.296   5.797  15.731  0.00  0.00    +0.000 NA
ATOM     19  C   UNL     1       6.369   6.114  16.674  0.00  0.00    +0.000 A 
ENDBRANCH   3  14
BRANCH   5  20
ATOM     20  O   UNL     1       2.313   5.594  20.848  0.00  0.00    +0.000 OA
ATOM     21  H   UNL     1       1.396   5.548  20.536  0.00  0.00    +0.000 HD
ENDBRANCH   5  20
TORSDOF 4
ENDMDL
MODEL 4
REMARK VINA RESULT:      -7.3      1.423      1.943
REMARK  Name = 
REMARK  4 active torsions:
REMARK  status: ('A' for Active; 'I' for Inactive)
REMARK    1  A    between atoms: C_2  and  C_3
REMARK    2  A    between atoms: C_7  and  C_8
REMARK    3  A    between atoms: C_10  and  C_11
REMARK    4  A    between atoms: N_18  and  O_19
REMARK                            x       y       z     vdW  Elec       q    Type
REMARK                         _______ _______ _______ _____ _____    ______ ____
ROOT
ATOM      1  C   UNL     1       4.828   4.667  17.846  0.00  0.00    +0.000 A 
ATOM      2  N   UNL     1       4.779   4.557  16.525  0.00  0.00    +0.000 NA
ATOM      3  C   UNL     1       6.083   4.582  16.076  0.00  0.00    +0.000 A 
ATOM      4  C   UNL     1       6.948   4.692  17.143  0.00  0.00    +0.000 A 
ATOM      5  N   UNL     1       6.146   4.737  18.243  0.00  0.00    +0.000 N 
ENDROOT
BRANCH   1  10
ATOM      6  C   UNL     1       2.103   5.927  20.130  0.00  0.00    +0.000 A 
ATOM      7  C   UNL     1       1.428   4.745  20.449  0.00  0.00    +0.000 A 
ATOM      8  C   UNL     1       1.871   3.530  19.933  0.00  0.00    +0.000 A 
ATOM      9  C   UNL     1       2.984   3.493  19.091  0.00  0.00    +0.000 A 
ATOM     10  C   UNL     1       3.664   4.669  18.739  0.00  0.00    +0.000 A 
ATOM     11  C   UNL     1       3.218   5.886  19.284  0.00  0.00    +0.000 A 
BRANCH   6  13
ATOM     12  N   UNL     1       1.271   8.180  21.108  0.00  0.00    +0.000 NA
ATOM     13  C   UNL     1       1.651   7.176  20.668  0.00  0.00    +0.000 C 
ENDBRANCH   6  13
ENDBRANCH   1  10
BRANCH   3  14
ATOM     14  C   UNL     1       6.447   4.478  14.676  0.00  0.00    +0.000 A 
ATOM     15  C   UNL     1       5.825   3.587  13.793  0.00  0.00    +0.000 A 
ATOM     16  C   UNL     1       6.204   3.555  12.452  0.00  0.00    +0.000 A 
ATOM     17  C   UNL     1       7.203   4.415  12.028  0.00  0.00    +0.000 A 
ATOM     18  N   UNL     1       7.838   5.280  12.845  0.00  0.00    +0.000 NA
ATOM     19  C   UNL     1       7.446   5.291  14.147  0.00  0.00    +0.000 A 
ENDBRANCH   3  14
BRANCH   5  20
ATOM     20  O   UNL     1       6.611   4.797  19.555  0.00  0.00    +0.000 OA
ATOM     21  H   UNL     1       7.192   4.022  19.586  0.00  0.00    +0.000 HD
ENDBRANCH   5  20
TORSDOF 4
ENDMDL
MODEL 5
REMARK VINA RESULT:      -7.0      1.541      2.212
REMARK  Name = 
REMARK  4 active torsions:
REMARK  status: ('A' for Active; 'I' for Inactive)
REMARK    1  A    between atoms: C_2  and  C_3
REMARK    2  A    between atoms: C_7  and  C_8
REMARK    3  A    between atoms: C_10  and  C_11
REMARK    4  A    between atoms: N_18  and  O_19
REMARK                            x       y       z     vdW  Elec       q    Type
REMARK                         _______ _______ _______ _____ _____    ______ ____
ROOT
ATOM      1  C   UNL     1       4.865   4.674  17.806  0.00  0.00    +0.000 A 
ATOM      2  N   UNL     1       4.808   4.573  16.484  0.00  0.00    +0.000 NA
ATOM      3  C   UNL     1       6.110   4.600  16.029  0.00  0.00    +0.000 A 
ATOM      4  C   UNL     1       6.981   4.702  17.092  0.00  0.00    +0.000 A 
ATOM      5  N   UNL     1       6.185   4.740  18.196  0.00  0.00    +0.000 N 
ENDROOT
BRANCH   1  10
ATOM      6  C   UNL     1       2.145   5.922  20.102  0.00  0.00    +0.000 A 
ATOM      7  C   UNL     1       1.478   4.737  20.427  0.00  0.00    +0.000 A 
ATOM      8  C   UNL     1       1.926   3.523  19.911  0.00  0.00    +0.000 A 
ATOM      9  C   UNL     1       3.035   3.492  19.063  0.00  0.00    +0.000 A 
ATOM     10  C   UNL     1       3.706   4.670  18.704  0.00  0.00    +0.000 A 
ATOM     11  C   UNL     1       3.255   5.886  19.250  0.00  0.00    +0.000 A 
BRANCH   6  13
ATOM     12  N   UNL     1       1.308   8.171  21.085  0.00  0.00    +0.000 NA
ATOM     13  C   UNL     1       1.688   7.169  20.640  0.00  0.00    +0.000 C 
ENDBRANCH   6  13
ENDBRANCH   1  10
BRANCH   3  14
ATOM     14  C   UNL     1       6.466   4.505  14.625  0.00  0.00    +0.000 A 
ATOM     15  C   UNL     1       7.485   5.271  14.046  0.00  0.00    +0.000 A 
ATOM     16  C   UNL     1       7.796   5.113  12.697  0.00  0.00    +0.000 A 
ATOM     17  C   UNL     1       7.072   4.193  11.957  0.00  0.00    +0.000 A 
ATOM     18  N   UNL     1       6.076   3.444  12.468  0.00  0.00    +0.000 NA
ATOM     19  C   UNL     1       5.796   3.617  13.788  0.00  0.00    +0.000 A 
ENDBRANCH   3  14
BRANCH   5  20
ATOM     20  O   UNL     1       6.657   4.791  19.505  0.00  0.00    +0.000 OA
ATOM     21  H   UNL     1       7.134   3.949  19.568  0.00  0.00    +0.000 HD
ENDBRANCH   5  20
TORSDOF 4
ENDMDL
MODEL 6
REMARK VINA RESULT:      -7.0      1.604      7.130
REMARK  Name = 
REMARK  4 active torsions:
REMARK  status: ('A' for Active; 'I' for Inactive)
REMARK    1  A    between atoms: C_2  and  C_3
REMARK    2  A    between atoms: C_7  and  C_8
REMARK    3  A    between atoms: C_10  and  C_11
REMARK    4  A    between atoms: N_18  and  O_19
REMARK                            x       y       z     vdW  Elec       q    Type
REMARK                         _______ _______ _______ _____ _____    ______ ____
ROOT
ATOM      1  C   UNL     1       5.671   4.283  16.425  0.00  0.00    +0.000 A 
ATOM      2  N   UNL     1       4.427   4.150  16.867  0.00  0.00    +0.000 NA
ATOM      3  C   UNL     1       4.490   4.186  18.244  0.00  0.00    +0.000 A 
ATOM      4  C   UNL     1       5.794   4.362  18.654  0.00  0.00    +0.000 A 
ATOM      5  N   UNL     1       6.518   4.428  17.503  0.00  0.00    +0.000 N 
ENDROOT
BRANCH   1  10
ATOM      6  C   UNL     1       5.547   3.794  12.687  0.00  0.00    +0.000 A 
ATOM      7  C   UNL     1       6.762   4.356  12.285  0.00  0.00    +0.000 A 
ATOM      8  C   UNL     1       7.635   4.881  13.235  0.00  0.00    +0.000 A 
ATOM      9  C   UNL     1       7.291   4.853  14.588  0.00  0.00    +0.000 A 
ATOM     10  C   UNL     1       6.068   4.316  15.014  0.00  0.00    +0.000 A 
ATOM     11  C   UNL     1       5.207   3.770  14.045  0.00  0.00    +0.000 A 
BRANCH   6  13
ATOM     12  N   UNL     1       3.937   2.814  10.906  0.00  0.00    +0.000 NA
ATOM     13  C   UNL     1       4.654   3.247  11.709  0.00  0.00    +0.000 C 
ENDBRANCH   6  13
ENDBRANCH   1  10
BRANCH   3  14
ATOM     14  C   UNL     1       3.323   4.077  19.099  0.00  0.00    +0.000 A 
ATOM     15  C   UNL     1       2.774   5.170  19.780  0.00  0.00    +0.000 A 
ATOM     16  C   UNL     1       1.635   5.004  20.565  0.00  0.00    +0.000 A 
ATOM     17  C   UNL     1       1.075   3.740  20.655  0.00  0.00    +0.000 A 
ATOM     18  N   UNL     1       1.576   2.656  20.029  0.00  0.00    +0.000 NA
ATOM     19  C   UNL     1       2.686   2.850  19.267  0.00  0.00    +0.000 A 
ENDBRANCH   3  14
BRANCH   5  20
ATOM     20  O   UNL     1       7.892   4.653  17.448  0.00  0.00    +0.000 OA
ATOM     21  H   UNL     1       8.112   4.271  16.584  0.00  0.00    +0.000 HD
ENDBRANCH   5  20
TORSDOF 4
ENDMDL
MODEL 7
REMARK VINA RESULT:      -7.0      4.297      7.762
REMARK  Name = 
REMARK  4 active torsions:
REMARK  status: ('A' for Active; 'I' for Inactive)
REMARK    1  A    between atoms: C_2  and  C_3
REMARK    2  A    between atoms: C_7  and  C_8
REMARK    3  A    between atoms: C_10  and  C_11
REMARK    4  A    between atoms: N_18  and  O_19
REMARK                            x       y       z     vdW  Elec       q    Type
REMARK                         _______ _______ _______ _____ _____    ______ ____
ROOT
ATOM      1  C   UNL     1       2.233   7.469  18.736  0.00  0.00    +0.000 A 
ATOM      2  N   UNL     1       1.873   8.596  18.135  0.00  0.00    +0.000 NA
ATOM      3  C   UNL     1       1.234   9.365  19.085  0.00  0.00    +0.000 A 
ATOM      4  C   UNL     1       1.218   8.705  20.295  0.00  0.00    +0.000 A 
ATOM      5  N   UNL     1       1.854   7.524  20.060  0.00  0.00    +0.000 N 
ENDROOT
BRANCH   1  10
ATOM      6  C   UNL     1       4.973   5.564  16.977  0.00  0.00    +0.000 A 
ATOM      7  C   UNL     1       4.413   4.287  16.873  0.00  0.00    +0.000 A 
ATOM      8  C   UNL     1       3.131   4.049  17.361  0.00  0.00    +0.000 A 
ATOM      9  C   UNL     1       2.409   5.082  17.962  0.00  0.00    +0.000 A 
ATOM     10  C   UNL     1       2.959   6.365  18.098  0.00  0.00    +0.000 A 
ATOM     11  C   UNL     1       4.247   6.597  17.582  0.00  0.00    +0.000 A 
BRANCH   6  13
ATOM     12  N   UNL     1       7.352   6.000  16.042  0.00  0.00    +0.000 NA
ATOM     13  C   UNL     1       6.290   5.811  16.467  0.00  0.00    +0.000 C 
ENDBRANCH   6  13
ENDBRANCH   1  10
BRANCH   3  14
ATOM     14  C   UNL     1       0.695  10.684  18.813  0.00  0.00    +0.000 A 
ATOM     15  C   UNL     1      -0.664  10.915  18.573  0.00  0.00    +0.000 A 
ATOM     16  C   UNL     1      -1.123  12.211  18.344  0.00  0.00    +0.000 A 
ATOM     17  C   UNL     1      -0.203  13.247  18.355  0.00  0.00    +0.000 A 
ATOM     18  N   UNL     1       1.116  13.071  18.569  0.00  0.00    +0.000 NA
ATOM     19  C   UNL     1       1.533  11.796  18.793  0.00  0.00    +0.000 A 
ENDBRANCH   3  14
BRANCH   5  20
ATOM     20  O   UNL     1       2.109   6.560  21.032  0.00  0.00    +0.000 OA
ATOM     21  H   UNL     1       1.729   5.769  20.618  0.00  0.00    +0.000 HD
ENDBRANCH   5  20
TORSDOF 4
ENDMDL
MODEL 8
REMARK VINA RESULT:      -7.0      1.847      7.087
REMARK  Name = 
REMARK  4 active torsions:
REMARK  status: ('A' for Active; 'I' for Inactive)
REMARK    1  A    between atoms: C_2  and  C_3
REMARK    2  A    between atoms: C_7  and  C_8
REMARK    3  A    between atoms: C_10  and  C_11
REMARK    4  A    between atoms: N_18  and  O_19
REMARK                            x       y       z     vdW  Elec       q    Type
REMARK                         _______ _______ _______ _____ _____    ______ ____
ROOT
ATOM      1  C   UNL     1       6.107   4.777  16.179  0.00  0.00    +0.000 A 
ATOM      2  N   UNL     1       4.921   5.207  16.589  0.00  0.00    +0.000 NA
ATOM      3  C   UNL     1       4.942   5.175  17.968  0.00  0.00    +0.000 A 
ATOM      4  C   UNL     1       6.170   4.734  18.412  0.00  0.00    +0.000 A 
ATOM      5  N   UNL     1       6.889   4.497  17.280  0.00  0.00    +0.000 N 
ENDROOT
BRANCH   1  10
ATOM      6  C   UNL     1       6.311   3.550  12.618  0.00  0.00    +0.000 A 
ATOM      7  C   UNL     1       7.281   4.401  12.078  0.00  0.00    +0.000 A 
ATOM      8  C   UNL     1       7.884   5.366  12.880  0.00  0.00    +0.000 A 
ATOM      9  C   UNL     1       7.514   5.490  14.221  0.00  0.00    +0.000 A 
ATOM     10  C   UNL     1       6.528   4.664  14.779  0.00  0.00    +0.000 A 
ATOM     11  C   UNL     1       5.942   3.680  13.963  0.00  0.00    +0.000 A 
BRANCH   6  13
ATOM     12  N   UNL     1       5.186   1.754  11.125  0.00  0.00    +0.000 NA
ATOM     13  C   UNL     1       5.697   2.552  11.794  0.00  0.00    +0.000 C 
ENDBRANCH   6  13
ENDBRANCH   1  10
BRANCH   3  14
ATOM     14  C   UNL     1       3.820   5.581  18.793  0.00  0.00    +0.000 A 
ATOM     15  C   UNL     1       3.259   4.754  19.773  0.00  0.00    +0.000 A 
ATOM     16  C   UNL     1       2.197   5.214  20.551  0.00  0.00    +0.000 A 
ATOM     17  C   UNL     1       1.719   6.493  20.323  0.00  0.00    +0.000 A 
ATOM     18  N   UNL     1       2.220   7.320  19.383  0.00  0.00    +0.000 NA
ATOM     19  C   UNL     1       3.256   6.845  18.642  0.00  0.00    +0.000 A 
ENDBRANCH   3  14
BRANCH   5  20
ATOM     20  O   UNL     1       8.218   4.081  17.263  0.00  0.00    +0.000 OA
ATOM     21  H   UNL     1       8.677   4.921  17.108  0.00  0.00    +0.000 HD
ENDBRANCH   5  20
TORSDOF 4
ENDMDL
MODEL 9
REMARK VINA RESULT:      -7.0      4.333      7.826
REMARK  Name = 
REMARK  4 active torsions:
REMARK  status: ('A' for Active; 'I' for Inactive)
REMARK    1  A    between atoms: C_2  and  C_3
REMARK    2  A    between atoms: C_7  and  C_8
REMARK    3  A    between atoms: C_10  and  C_11
REMARK    4  A    between atoms: N_18  and  O_19
REMARK                            x       y       z     vdW  Elec       q    Type
REMARK                         _______ _______ _______ _____ _____    ______ ____
ROOT
ATOM      1  C   UNL     1       2.267   7.481  18.720  0.00  0.00    +0.000 A 
ATOM      2  N   UNL     1       1.918   8.616  18.129  0.00  0.00    +0.000 NA
ATOM      3  C   UNL     1       1.283   9.382  19.084  0.00  0.00    +0.000 A 
ATOM      4  C   UNL     1       1.258   8.712  20.288  0.00  0.00    +0.000 A 
ATOM      5  N   UNL     1       1.884   7.528  20.044  0.00  0.00    +0.000 N 
ENDROOT
BRANCH   1  10
ATOM      6  C   UNL     1       4.993   5.570  16.947  0.00  0.00    +0.000 A 
ATOM      7  C   UNL     1       4.424   4.297  16.836  0.00  0.00    +0.000 A 
ATOM      8  C   UNL     1       3.141   4.064  17.323  0.00  0.00    +0.000 A 
ATOM      9  C   UNL     1       2.426   5.098  17.931  0.00  0.00    +0.000 A 
ATOM     10  C   UNL     1       2.985   6.377  18.075  0.00  0.00    +0.000 A 
ATOM     11  C   UNL     1       4.273   6.603  17.559  0.00  0.00    +0.000 A 
BRANCH   6  13
ATOM     12  N   UNL     1       7.379   5.990  16.024  0.00  0.00    +0.000 NA
ATOM     13  C   UNL     1       6.310   5.811  16.438  0.00  0.00    +0.000 C 
ENDBRANCH   6  13
ENDBRANCH   1  10
BRANCH   3  14
ATOM     14  C   UNL     1       0.757  10.709  18.822  0.00  0.00    +0.000 A 
ATOM     15  C   UNL     1       1.554  11.859  18.830  0.00  0.00    +0.000 A 
ATOM     16  C   UNL     1       0.992  13.101  18.545  0.00  0.00    +0.000 A 
ATOM     17  C   UNL     1      -0.363  13.162  18.262  0.00  0.00    +0.000 A 
ATOM     18  N   UNL     1      -1.172  12.084  18.254  0.00  0.00    +0.000 NA
ATOM     19  C   UNL     1      -0.594  10.885  18.534  0.00  0.00    +0.000 A 
ENDBRANCH   3  14
BRANCH   5  20
ATOM     20  O   UNL     1       2.127   6.552  21.008  0.00  0.00    +0.000 OA
ATOM     21  H   UNL     1       1.309   6.034  20.964  0.00  0.00    +0.000 HD
ENDBRANCH   5  20
TORSDOF 4
ENDMDL
