MODEL 1
REMARK VINA RESULT:      -8.2      0.000      0.000
REMARK  Name = 
REMARK  10 active torsions:
REMARK  status: ('A' for Active; 'I' for Inactive)
REMARK    1  A    between atoms: C_1  and  C_2
REMARK    2  A    between atoms: C_2  and  C_3
REMARK    3  A    between atoms: C_3  and  C_4
REMARK    4  A    between atoms: C_4  and  C_5
REMARK    5  A    between atoms: C_9  and  O_10
REMARK    6  A    between atoms: C_11  and  C_12
REMARK    7  A    between atoms: C_12  and  C_13
REMARK    8  A    between atoms: C_16  and  C_17
REMARK    9  A    between atoms: C_22  and  C_23
REMARK   10  A    between atoms: C_23  and  O_25
REMARK                            x       y       z     vdW  Elec       q    Type
REMARK                         _______ _______ _______ _____ _____    ______ ____
ROOT
ATOM      1  C   UNL     1       1.112   8.953  19.826  0.00  0.00    +0.000 A 
ATOM      2  C   UNL     1       1.612   7.808  20.448  0.00  0.00    +0.000 A 
ATOM      3  C   UNL     1       2.383   6.881  19.742  0.00  0.00    +0.000 A 
ATOM      4  C   UNL     1       2.759   7.113  18.414  0.00  0.00    +0.000 A 
ATOM      5  C   UNL     1       2.251   8.268  17.793  0.00  0.00    +0.000 A 
ATOM      6  C   UNL     1       1.428   9.165  18.482  0.00  0.00    +0.000 A 
ENDROOT
BRANCH   4   7
ATOM      7  C   UNL     1       3.673   6.196  17.696  0.00  0.00    +0.000 A 
ATOM      8  C   UNL     1       4.854   6.741  17.125  0.00  0.00    +0.000 A 
ATOM      9  C   UNL     1       5.763   5.959  16.410  0.00  0.00    +0.000 A 
ATOM     10  C   UNL     1       5.516   4.612  16.221  0.00  0.00    +0.000 A 
ATOM     11  C   UNL     1       4.366   4.039  16.761  0.00  0.00    +0.000 A 
ATOM     12  C   UNL     1       3.448   4.810  17.503  0.00  0.00    +0.000 A 
BRANCH  12  13
ATOM     13  C   UNL     1       2.266   4.034  18.001  0.00  0.00    +0.000 C 
ATOM     14  O   UNL     1       2.330   3.362  19.016  0.00  0.00    +0.000 OA
BRANCH  13  15
ATOM     15  O   UNL     1       1.114   4.206  17.324  0.00  0.00    +0.000 OA
ATOM     16  H   UNL     1       1.199   4.356  16.365  0.00  0.00    +0.000 HD
ENDBRANCH  13  15
ENDBRANCH  12  13
ENDBRANCH   4   7
BRANCH   1  17
ATOM     17  C   UNL     1       0.183   9.897  20.561  0.00  0.00    +0.000 C 
BRANCH  17  23
ATOM     18  C   UNL     1      -1.067  11.450  18.950  0.00  0.00    +0.000 A 
ATOM     19  N   UNL     1      -1.238  12.657  18.354  0.00  0.00    +0.000 NA
ATOM     20  C   UNL     1      -0.399  13.642  18.703  0.00  0.00    +0.000 A 
ATOM     21  N   UNL     1       0.602  13.536  19.578  0.00  0.00    +0.000 NA
ATOM     22  C   UNL     1       0.722  12.329  20.142  0.00  0.00    +0.000 A 
ATOM     23  C   UNL     1      -0.084  11.228  19.910  0.00  0.00    +0.000 A 
BRANCH  22  24
ATOM     24  O   UNL     1       1.802  12.261  20.960  0.00  0.00    +0.000 OA
ATOM     25  H   UNL     1       2.263  11.499  20.566  0.00  0.00    +0.000 HD
ENDBRANCH  22  24
BRANCH  18  26
ATOM     26  C   UNL     1      -2.006  10.380  18.443  0.00  0.00    +0.000 C 
BRANCH  26  27
ATOM     27  C   UNL     1      -1.877  10.076  16.951  0.00  0.00    +0.000 C 
BRANCH  27  29
ATOM     28  C   UNL     1      -2.968  10.076  14.695  0.00  0.00    +0.000 C 
ATOM     29  C   UNL     1      -2.952  10.718  16.075  0.00  0.00    +0.000 C 
ENDBRANCH  27  29
ENDBRANCH  26  27
ENDBRANCH  18  26
ENDBRANCH  17  23
ENDBRANCH   1  17
TORSDOF 9
ENDMDL
MODEL 2
REMARK VINA RESULT:      -8.1      0.341      1.212
REMARK  Name = 
REMARK  10 active torsions:
REMARK  status: ('A' for Active; 'I' for Inactive)
REMARK    1  A    between atoms: C_1  and  C_2
REMARK    2  A    between atoms: C_2  and  C_3
REMARK    3  A    between atoms: C_3  and  C_4
REMARK    4  A    between atoms: C_4  and  C_5
REMARK    5  A    between atoms: C_9  and  O_10
REMARK    6  A    between atoms: C_11  and  C_12
REMARK    7  A    between atoms: C_12  and  C_13
REMARK    8  A    between atoms: C_16  and  C_17
REMARK    9  A    between atoms: C_22  and  C_23
REMARK   10  A    between atoms: C_23  and  O_25
REMARK                            x       y       z     vdW  Elec       q    Type
REMARK                         _______ _______ _______ _____ _____    ______ ____
ROOT
ATOM      1  C   UNL     1       1.113   8.946  19.816  0.00  0.00    +0.000 A 
ATOM      2  C   UNL     1       1.509   9.191  18.500  0.00  0.00    +0.000 A 
ATOM      3  C   UNL     1       2.396   8.335  17.843  0.00  0.00    +0.000 A 
ATOM      4  C   UNL     1       2.846   7.154  18.445  0.00  0.00    +0.000 A 
ATOM      5  C   UNL     1       2.443   6.915  19.771  0.00  0.00    +0.000 A 
ATOM      6  C   UNL     1       1.603   7.804  20.451  0.00  0.00    +0.000 A 
ENDROOT
BRANCH   4   7
ATOM      7  C   UNL     1       3.689   6.183  17.714  0.00  0.00    +0.000 A 
ATOM      8  C   UNL     1       4.906   6.647  17.147  0.00  0.00    +0.000 A 
ATOM      9  C   UNL     1       5.755   5.810  16.420  0.00  0.00    +0.000 A 
ATOM     10  C   UNL     1       5.409   4.487  16.215  0.00  0.00    +0.000 A 
ATOM     11  C   UNL     1       4.222   3.993  16.750  0.00  0.00    +0.000 A 
ATOM     12  C   UNL     1       3.363   4.820  17.503  0.00  0.00    +0.000 A 
BRANCH  12  13
ATOM     13  C   UNL     1       2.128   4.125  17.994  0.00  0.00    +0.000 C 
ATOM     14  O   UNL     1       1.089   4.152  17.357  0.00  0.00    +0.000 OA
BRANCH  13  15
ATOM     15  O   UNL     1       2.265   3.393  19.117  0.00  0.00    +0.000 OA
ATOM     16  H   UNL     1       2.479   3.889  19.928  0.00  0.00    +0.000 HD
ENDBRANCH  13  15
ENDBRANCH  12  13
ENDBRANCH   4   7
BRANCH   1  17
ATOM     17  C   UNL     1       0.242   9.935  20.564  0.00  0.00    +0.000 C 
BRANCH  17  23
ATOM     18  C   UNL     1      -1.022  11.430  18.910  0.00  0.00    +0.000 A 
ATOM     19  N   UNL     1      -1.205  12.619  18.281  0.00  0.00    +0.000 NA
ATOM     20  C   UNL     1      -0.378  13.622  18.606  0.00  0.00    +0.000 A 
ATOM     21  N   UNL     1       0.623  13.551  19.485  0.00  0.00    +0.000 NA
ATOM     22  C   UNL     1       0.754  12.361  20.082  0.00  0.00    +0.000 A 
ATOM     23  C   UNL     1      -0.039  11.245  19.877  0.00  0.00    +0.000 A 
BRANCH  22  24
ATOM     24  O   UNL     1       1.833  12.326  20.903  0.00  0.00    +0.000 OA
ATOM     25  H   UNL     1       1.736  13.189  21.344  0.00  0.00    +0.000 HD
ENDBRANCH  22  24
BRANCH  18  26
ATOM     26  C   UNL     1      -1.948  10.337  18.429  0.00  0.00    +0.000 C 
BRANCH  26  27
ATOM     27  C   UNL     1      -1.779   9.962  16.958  0.00  0.00    +0.000 C 
BRANCH  27  29
ATOM     28  C   UNL     1      -4.024  11.019  16.611  0.00  0.00    +0.000 C 
ATOM     29  C   UNL     1      -3.082   9.911  16.160  0.00  0.00    +0.000 C 
ENDBRANCH  27  29
ENDBRANCH  26  27
ENDBRANCH  18  26
ENDBRANCH  17  23
ENDBRANCH   1  17
TORSDOF 9
ENDMDL
MODEL 3
REMARK VINA RESULT:      -8.1      3.554      8.390
REMARK  Name = 
REMARK  10 active torsions:
REMARK  status: ('A' for Active; 'I' for Inactive)
REMARK    1  A    between atoms: C_1  and  C_2
REMARK    2  A    between atoms: C_2  and  C_3
REMARK    3  A    between atoms: C_3  and  C_4
REMARK    4  A    between atoms: C_4  and  C_5
REMARK    5  A    between atoms: C_9  and  O_10
REMARK    6  A    between atoms: C_11  and  C_12
REMARK    7  A    between atoms: C_12  and  C_13
REMARK    8  A    between atoms: C_16  and  C_17
REMARK    9  A    between atoms: C_22  and  C_23
REMARK   10  A    between atoms: C_23  and  O_25
REMARK                            x       y       z     vdW  Elec       q    Type
REMARK                         _______ _______ _______ _____ _____    ______ ____
ROOT
ATOM      1  C   UNL     1       2.735   7.401  18.359  0.00  0.00    +0.000 A 
ATOM      2  C   UNL     1       2.282   8.535  17.683  0.00  0.00    +0.000 A 
ATOM      3  C   UNL     1       1.378   9.417  18.279  0.00  0.00    +0.000 A 
ATOM      4  C   UNL     1       0.966   9.247  19.606  0.00  0.00    +0.000 A 
ATOM      5  C   UNL     1       1.425   8.101  20.280  0.00  0.00    +0.000 A 
ATOM      6  C   UNL     1       2.283   7.185  19.662  0.00  0.00    +0.000 A 
ENDROOT
BRANCH   4   7
ATOM      7  C   UNL     1       0.103  10.240  20.284  0.00  0.00    +0.000 A 
ATOM      8  C   UNL     1       0.321  10.484  21.666  0.00  0.00    +0.000 A 
ATOM      9  C   UNL     1      -0.458  11.385  22.394  0.00  0.00    +0.000 A 
ATOM     10  C   UNL     1      -1.495  12.058  21.775  0.00  0.00    +0.000 A 
ATOM     11  C   UNL     1      -1.745  11.844  20.422  0.00  0.00    +0.000 A 
ATOM     12  C   UNL     1      -0.956  10.953  19.666  0.00  0.00    +0.000 A 
BRANCH  12  13
ATOM     13  C   UNL     1      -1.371  10.841  18.230  0.00  0.00    +0.000 C 
ATOM     14  O   UNL     1      -2.044   9.904  17.835  0.00  0.00    +0.000 OA
BRANCH  13  15
ATOM     15  O   UNL     1      -1.047  11.879  17.435  0.00  0.00    +0.000 OA
ATOM     16  H   UNL     1      -0.121  12.179  17.478  0.00  0.00    +0.000 HD
ENDBRANCH  13  15
ENDBRANCH  12  13
ENDBRANCH   4   7
BRANCH   1  17
ATOM     17  C   UNL     1       3.625   6.387  17.670  0.00  0.00    +0.000 C 
BRANCH  17  23
ATOM     18  C   UNL     1       4.839   4.564  19.001  0.00  0.00    +0.000 A 
ATOM     19  N   UNL     1       4.901   3.310  19.517  0.00  0.00    +0.000 NA
ATOM     20  C   UNL     1       3.848   2.507  19.314  0.00  0.00    +0.000 A 
ATOM     21  N   UNL     1       2.746   2.827  18.635  0.00  0.00    +0.000 NA
ATOM     22  C   UNL     1       2.732   4.075  18.155  0.00  0.00    +0.000 A 
ATOM     23  C   UNL     1       3.724   5.028  18.309  0.00  0.00    +0.000 A 
BRANCH  22  24
ATOM     24  O   UNL     1       1.625   4.315  17.409  0.00  0.00    +0.000 OA
ATOM     25  H   UNL     1       0.986   3.739  17.867  0.00  0.00    +0.000 HD
ENDBRANCH  22  24
BRANCH  18  26
ATOM     26  C   UNL     1       6.098   5.374  19.211  0.00  0.00    +0.000 C 
BRANCH  26  27
ATOM     27  C   UNL     1       7.190   5.133  18.170  0.00  0.00    +0.000 C 
BRANCH  27  29
ATOM     28  C   UNL     1       7.580   7.548  17.628  0.00  0.00    +0.000 C 
ATOM     29  C   UNL     1       7.248   6.178  17.055  0.00  0.00    +0.000 C 
ENDBRANCH  27  29
ENDBRANCH  26  27
ENDBRANCH  18  26
ENDBRANCH  17  23
ENDBRANCH   1  17
TORSDOF 9
ENDMDL
MODEL 4
REMARK VINA RESULT:      -8.1      3.689      8.560
REMARK  Name = 
REMARK  10 active torsions:
REMARK  status: ('A' for Active; 'I' for Inactive)
REMARK    1  A    between atoms: C_1  and  C_2
REMARK    2  A    between atoms: C_2  and  C_3
REMARK    3  A    between atoms: C_3  and  C_4
REMARK    4  A    between atoms: C_4  and  C_5
REMARK    5  A    between atoms: C_9  and  O_10
REMARK    6  A    between atoms: C_11  and  C_12
REMARK    7  A    between atoms: C_12  and  C_13
REMARK    8  A    between atoms: C_16  and  C_17
REMARK    9  A    between atoms: C_22  and  C_23
REMARK   10  A    between atoms: C_23  and  O_25
REMARK                            x       y       z     vdW  Elec       q    Type
REMARK                         _______ _______ _______ _____ _____    ______ ____
ROOT
ATOM      1  C   UNL     1       2.614   7.179  18.620  0.00  0.00    +0.000 A 
ATOM      2  C   UNL     1       2.134   8.382  18.099  0.00  0.00    +0.000 A 
ATOM      3  C   UNL     1       1.353   9.243  18.873  0.00  0.00    +0.000 A 
ATOM      4  C   UNL     1       1.102   8.977  20.224  0.00  0.00    +0.000 A 
ATOM      5  C   UNL     1       1.588   7.763  20.742  0.00  0.00    +0.000 A 
ATOM      6  C   UNL     1       2.318   6.871  19.949  0.00  0.00    +0.000 A 
ENDROOT
BRANCH   4   7
ATOM      7  C   UNL     1       0.377   9.941  21.082  0.00  0.00    +0.000 A 
ATOM      8  C   UNL     1      -0.204   9.459  22.286  0.00  0.00    +0.000 A 
ATOM      9  C   UNL     1      -0.926  10.289  23.146  0.00  0.00    +0.000 A 
ATOM     10  C   UNL     1      -1.111  11.621  22.827  0.00  0.00    +0.000 A 
ATOM     11  C   UNL     1      -0.561  12.132  21.653  0.00  0.00    +0.000 A 
ATOM     12  C   UNL     1       0.188  11.313  20.783  0.00  0.00    +0.000 A 
BRANCH  12  13
ATOM     13  C   UNL     1       0.697  12.026  19.566  0.00  0.00    +0.000 C 
ATOM     14  O   UNL     1      -0.022  12.230  18.603  0.00  0.00    +0.000 OA
BRANCH  13  15
ATOM     15  O   UNL     1       1.951  12.513  19.644  0.00  0.00    +0.000 OA
ATOM     16  H   UNL     1       2.663  11.851  19.714  0.00  0.00    +0.000 HD
ENDBRANCH  13  15
ENDBRANCH  12  13
ENDBRANCH   4   7
BRANCH   1  17
ATOM     17  C   UNL     1       3.364   6.195  17.745  0.00  0.00    +0.000 C 
BRANCH  17  23
ATOM     18  C   UNL     1       4.739   4.422  18.984  0.00  0.00    +0.000 A 
ATOM     19  N   UNL     1       4.915   3.153  19.434  0.00  0.00    +0.000 NA
ATOM     20  C   UNL     1       3.940   2.269  19.184  0.00  0.00    +0.000 A 
ATOM     21  N   UNL     1       2.813   2.523  18.518  0.00  0.00    +0.000 NA
ATOM     22  C   UNL     1       2.685   3.789  18.104  0.00  0.00    +0.000 A 
ATOM     23  C   UNL     1       3.586   4.818  18.312  0.00  0.00    +0.000 A 
BRANCH  22  24
ATOM     24  O   UNL     1       1.561   3.965  17.366  0.00  0.00    +0.000 OA
ATOM     25  H   UNL     1       0.908   4.083  18.080  0.00  0.00    +0.000 HD
ENDBRANCH  22  24
BRANCH  18  26
ATOM     26  C   UNL     1       5.918   5.331  19.243  0.00  0.00    +0.000 C 
BRANCH  26  27
ATOM     27  C   UNL     1       7.072   5.172  18.254  0.00  0.00    +0.000 C 
BRANCH  27  29
ATOM     28  C   UNL     1       7.635   7.516  17.571  0.00  0.00    +0.000 C 
ATOM     29  C   UNL     1       7.070   6.181  17.106  0.00  0.00    +0.000 C 
ENDBRANCH  27  29
ENDBRANCH  26  27
ENDBRANCH  18  26
ENDBRANCH  17  23
ENDBRANCH   1  17
TORSDOF 9
ENDMDL
MODEL 5
REMARK VINA RESULT:      -8.0      3.714      8.491
REMARK  Name = 
REMARK  10 active torsions:
REMARK  status: ('A' for Active; 'I' for Inactive)
REMARK    1  A    between atoms: C_1  and  C_2
REMARK    2  A    between atoms: C_2  and  C_3
REMARK    3  A    between atoms: C_3  and  C_4
REMARK    4  A    between atoms: C_4  and  C_5
REMARK    5  A    between atoms: C_9  and  O_10
REMARK    6  A    between atoms: C_11  and  C_12
REMARK    7  A    between atoms: C_12  and  C_13
REMARK    8  A    between atoms: C_16  and  C_17
REMARK    9  A    between atoms: C_22  and  C_23
REMARK   10  A    between atoms: C_23  and  O_25
REMARK                            x       y       z     vdW  Elec       q    Type
REMARK                         _______ _______ _______ _____ _____    ______ ____
ROOT
ATOM      1  C   UNL     1       2.578   7.048  18.520  0.00  0.00    +0.000 A 
ATOM      2  C   UNL     1       2.350   6.823  19.878  0.00  0.00    +0.000 A 
ATOM      3  C   UNL     1       1.733   7.790  20.676  0.00  0.00    +0.000 A 
ATOM      4  C   UNL     1       1.238   8.977  20.124  0.00  0.00    +0.000 A 
ATOM      5  C   UNL     1       1.472   9.197  18.754  0.00  0.00    +0.000 A 
ATOM      6  C   UNL     1       2.144   8.255  17.968  0.00  0.00    +0.000 A 
ENDROOT
BRANCH   4   7
ATOM      7  C   UNL     1       0.478   9.953  20.937  0.00  0.00    +0.000 A 
ATOM      8  C   UNL     1      -0.138   9.493  22.131  0.00  0.00    +0.000 A 
ATOM      9  C   UNL     1      -0.894  10.334  22.950  0.00  0.00    +0.000 A 
ATOM     10  C   UNL     1      -1.081  11.658  22.595  0.00  0.00    +0.000 A 
ATOM     11  C   UNL     1      -0.498  12.147  21.428  0.00  0.00    +0.000 A 
ATOM     12  C   UNL     1       0.286  11.317  20.601  0.00  0.00    +0.000 A 
BRANCH  12  13
ATOM     13  C   UNL     1       0.827  12.007  19.385  0.00  0.00    +0.000 C 
ATOM     14  O   UNL     1       1.975  12.414  19.345  0.00  0.00    +0.000 OA
BRANCH  13  15
ATOM     15  O   UNL     1       0.009  12.055  18.315  0.00  0.00    +0.000 OA
ATOM     16  H   UNL     1      -0.071  11.232  17.800  0.00  0.00    +0.000 HD
ENDBRANCH  13  15
ENDBRANCH  12  13
ENDBRANCH   4   7
BRANCH   1  17
ATOM     17  C   UNL     1       3.348   6.047  17.683  0.00  0.00    +0.000 C 
BRANCH  17  23
ATOM     18  C   UNL     1       4.774   4.328  18.941  0.00  0.00    +0.000 A 
ATOM     19  N   UNL     1       4.969   3.080  19.438  0.00  0.00    +0.000 NA
ATOM     20  C   UNL     1       3.985   2.187  19.268  0.00  0.00    +0.000 A 
ATOM     21  N   UNL     1       2.831   2.413  18.638  0.00  0.00    +0.000 NA
ATOM     22  C   UNL     1       2.686   3.659  18.174  0.00  0.00    +0.000 A 
ATOM     23  C   UNL     1       3.594   4.696  18.300  0.00  0.00    +0.000 A 
BRANCH  22  24
ATOM     24  O   UNL     1       1.532   3.805  17.476  0.00  0.00    +0.000 OA
ATOM     25  H   UNL     1       1.693   3.174  16.752  0.00  0.00    +0.000 HD
ENDBRANCH  22  24
BRANCH  18  26
ATOM     26  C   UNL     1       5.962   5.246  19.111  0.00  0.00    +0.000 C 
BRANCH  26  27
ATOM     27  C   UNL     1       7.086   5.025  18.099  0.00  0.00    +0.000 C 
BRANCH  27  29
ATOM     28  C   UNL     1       7.534   7.449  17.645  0.00  0.00    +0.000 C 
ATOM     29  C   UNL     1       7.192   6.103  17.020  0.00  0.00    +0.000 C 
ENDBRANCH  27  29
ENDBRANCH  26  27
ENDBRANCH  18  26
ENDBRANCH  17  23
ENDBRANCH   1  17
TORSDOF 9
ENDMDL
MODEL 6
REMARK VINA RESULT:      -8.0      3.575      7.705
REMARK  Name = 
REMARK  10 active torsions:
REMARK  status: ('A' for Active; 'I' for Inactive)
REMARK    1  A    between atoms: C_1  and  C_2
REMARK    2  A    between atoms: C_2  and  C_3
REMARK    3  A    between atoms: C_3  and  C_4
REMARK    4  A    between atoms: C_4  and  C_5
REMARK    5  A    between atoms: C_9  and  O_10
REMARK    6  A    between atoms: C_11  and  C_12
REMARK    7  A    between atoms: C_12  and  C_13
REMARK    8  A    between atoms: C_16  and  C_17
REMARK    9  A    between atoms: C_22  and  C_23
REMARK   10  A    between atoms: C_23  and  O_25
REMARK                            x       y       z     vdW  Elec       q    Type
REMARK                         _______ _______ _______ _____ _____    ______ ____
ROOT
ATOM      1  C   UNL     1       2.382   7.151  19.602  0.00  0.00    +0.000 A 
ATOM      2  C   UNL     1       2.517   7.766  18.357  0.00  0.00    +0.000 A 
ATOM      3  C   UNL     1       1.899   8.989  18.086  0.00  0.00    +0.000 A 
ATOM      4  C   UNL     1       1.200   9.685  19.079  0.00  0.00    +0.000 A 
ATOM      5  C   UNL     1       1.067   9.058  20.331  0.00  0.00    +0.000 A 
ATOM      6  C   UNL     1       1.635   7.804  20.584  0.00  0.00    +0.000 A 
ENDROOT
BRANCH   4   7
ATOM      7  C   UNL     1       0.643  11.034  18.835  0.00  0.00    +0.000 A 
ATOM      8  C   UNL     1       1.416  12.158  19.232  0.00  0.00    +0.000 A 
ATOM      9  C   UNL     1       0.963  13.468  19.064  0.00  0.00    +0.000 A 
ATOM     10  C   UNL     1      -0.284  13.703  18.515  0.00  0.00    +0.000 A 
ATOM     11  C   UNL     1      -1.075  12.627  18.117  0.00  0.00    +0.000 A 
ATOM     12  C   UNL     1      -0.625  11.299  18.261  0.00  0.00    +0.000 A 
BRANCH  12  13
ATOM     13  C   UNL     1      -1.608  10.270  17.789  0.00  0.00    +0.000 C 
ATOM     14  O   UNL     1      -2.298   9.644  18.575  0.00  0.00    +0.000 OA
BRANCH  13  15
ATOM     15  O   UNL     1      -1.754  10.157  16.454  0.00  0.00    +0.000 OA
ATOM     16  H   UNL     1      -0.956   9.901  15.956  0.00  0.00    +0.000 HD
ENDBRANCH  13  15
ENDBRANCH  12  13
ENDBRANCH   4   7
BRANCH   1  17
ATOM     17  C   UNL     1       2.958   5.773  19.857  0.00  0.00    +0.000 C 
BRANCH  17  23
ATOM     18  C   UNL     1       2.951   4.291  17.765  0.00  0.00    +0.000 A 
ATOM     19  N   UNL     1       3.599   3.653  16.757  0.00  0.00    +0.000 NA
ATOM     20  C   UNL     1       4.929   3.795  16.693  0.00  0.00    +0.000 A 
ATOM     21  N   UNL     1       5.678   4.498  17.543  0.00  0.00    +0.000 NA
ATOM     22  C   UNL     1       4.991   5.113  18.512  0.00  0.00    +0.000 A 
ATOM     23  C   UNL     1       3.619   5.089  18.690  0.00  0.00    +0.000 A 
BRANCH  22  24
ATOM     24  O   UNL     1       5.812   5.744  19.388  0.00  0.00    +0.000 OA
ATOM     25  H   UNL     1       5.163   6.013  20.062  0.00  0.00    +0.000 HD
ENDBRANCH  22  24
BRANCH  18  26
ATOM     26  C   UNL     1       1.465   4.017  17.807  0.00  0.00    +0.000 C 
BRANCH  26  27
ATOM     27  C   UNL     1       1.063   2.830  18.681  0.00  0.00    +0.000 C 
BRANCH  27  29
ATOM     28  C   UNL     1       1.590   2.592  21.119  0.00  0.00    +0.000 C 
ATOM     29  C   UNL     1       0.636   3.202  20.102  0.00  0.00    +0.000 C 
ENDBRANCH  27  29
ENDBRANCH  26  27
ENDBRANCH  18  26
ENDBRANCH  17  23
ENDBRANCH   1  17
TORSDOF 9
ENDMDL
MODEL 7
REMARK VINA RESULT:      -7.9      3.501      8.266
REMARK  Name = 
REMARK  10 active torsions:
REMARK  status: ('A' for Active; 'I' for Inactive)
REMARK    1  A    between atoms: C_1  and  C_2
REMARK    2  A    between atoms: C_2  and  C_3
REMARK    3  A    between atoms: C_3  and  C_4
REMARK    4  A    between atoms: C_4  and  C_5
REMARK    5  A    between atoms: C_9  and  O_10
REMARK    6  A    between atoms: C_11  and  C_12
REMARK    7  A    between atoms: C_12  and  C_13
REMARK    8  A    between atoms: C_16  and  C_17
REMARK    9  A    between atoms: C_22  and  C_23
REMARK   10  A    between atoms: C_23  and  O_25
REMARK                            x       y       z     vdW  Elec       q    Type
REMARK                         _______ _______ _______ _____ _____    ______ ____
ROOT
ATOM      1  C   UNL     1       2.600   7.486  18.367  0.00  0.00    +0.000 A 
ATOM      2  C   UNL     1       2.202   7.351  19.698  0.00  0.00    +0.000 A 
ATOM      3  C   UNL     1       1.421   8.327  20.320  0.00  0.00    +0.000 A 
ATOM      4  C   UNL     1       0.932   9.428  19.607  0.00  0.00    +0.000 A 
ATOM      5  C   UNL     1       1.338   9.558  18.267  0.00  0.00    +0.000 A 
ATOM      6  C   UNL     1       2.171   8.611  17.661  0.00  0.00    +0.000 A 
ENDROOT
BRANCH   4   7
ATOM      7  C   UNL     1       0.007  10.404  20.225  0.00  0.00    +0.000 A 
ATOM      8  C   UNL     1      -0.521  11.437  19.405  0.00  0.00    +0.000 A 
ATOM      9  C   UNL     1      -1.382  12.416  19.906  0.00  0.00    +0.000 A 
ATOM     10  C   UNL     1      -1.729  12.412  21.244  0.00  0.00    +0.000 A 
ATOM     11  C   UNL     1      -1.228  11.419  22.083  0.00  0.00    +0.000 A 
ATOM     12  C   UNL     1      -0.374  10.411  21.590  0.00  0.00    +0.000 A 
BRANCH  12  13
ATOM     13  C   UNL     1       0.075   9.431  22.633  0.00  0.00    +0.000 C 
ATOM     14  O   UNL     1       1.080   9.625  23.295  0.00  0.00    +0.000 OA
BRANCH  13  15
ATOM     15  O   UNL     1      -0.748   8.390  22.862  0.00  0.00    +0.000 OA
ATOM     16  H   UNL     1      -0.331   7.509  22.878  0.00  0.00    +0.000 HD
ENDBRANCH  13  15
ENDBRANCH  12  13
ENDBRANCH   4   7
BRANCH   1  17
ATOM     17  C   UNL     1       3.540   6.483  17.730  0.00  0.00    +0.000 C 
BRANCH  17  23
ATOM     18  C   UNL     1       4.733   4.646  19.061  0.00  0.00    +0.000 A 
ATOM     19  N   UNL     1       4.777   3.394  19.583  0.00  0.00    +0.000 NA
ATOM     20  C   UNL     1       3.710   2.607  19.391  0.00  0.00    +0.000 A 
ATOM     21  N   UNL     1       2.608   2.943  18.718  0.00  0.00    +0.000 NA
ATOM     22  C   UNL     1       2.612   4.189  18.232  0.00  0.00    +0.000 A 
ATOM     23  C   UNL     1       3.621   5.125  18.374  0.00  0.00    +0.000 A 
BRANCH  22  24
ATOM     24  O   UNL     1       1.504   4.443  17.492  0.00  0.00    +0.000 OA
ATOM     25  H   UNL     1       1.651   5.384  17.287  0.00  0.00    +0.000 HD
ENDBRANCH  22  24
BRANCH  18  26
ATOM     26  C   UNL     1       6.006   5.436  19.259  0.00  0.00    +0.000 C 
BRANCH  26  27
ATOM     27  C   UNL     1       7.100   5.146  18.232  0.00  0.00    +0.000 C 
BRANCH  27  29
ATOM     28  C   UNL     1       7.667   7.512  17.634  0.00  0.00    +0.000 C 
ATOM     29  C   UNL     1       7.195   6.167  17.099  0.00  0.00    +0.000 C 
ENDBRANCH  27  29
ENDBRANCH  26  27
ENDBRANCH  18  26
ENDBRANCH  17  23
ENDBRANCH   1  17
TORSDOF 9
ENDMDL
MODEL 8
REMARK VINA RESULT:      -7.9      3.532      8.390
REMARK  Name = 
REMARK  10 active torsions:
REMARK  status: ('A' for Active; 'I' for Inactive)
REMARK    1  A    between atoms: C_1  and  C_2
REMARK    2  A    between atoms: C_2  and  C_3
REMARK    3  A    between atoms: C_3  and  C_4
REMARK    4  A    between atoms: C_4  and  C_5
REMARK    5  A    between atoms: C_9  and  O_10
REMARK    6  A    between atoms: C_11  and  C_12
REMARK    7  A    between atoms: C_12  and  C_13
REMARK    8  A    between atoms: C_16  and  C_17
REMARK    9  A    between atoms: C_22  and  C_23
REMARK   10  A    between atoms: C_23  and  O_25
REMARK                            x       y       z     vdW  Elec       q    Type
REMARK                         _______ _______ _______ _____ _____    ______ ____
ROOT
ATOM      1  C   UNL     1       2.700   7.311  18.374  0.00  0.00    +0.000 A 
ATOM      2  C   UNL     1       2.278   7.082  19.684  0.00  0.00    +0.000 A 
ATOM      3  C   UNL     1       1.515   8.028  20.372  0.00  0.00    +0.000 A 
ATOM      4  C   UNL     1       1.069   9.197  19.744  0.00  0.00    +0.000 A 
ATOM      5  C   UNL     1       1.499   9.421  18.423  0.00  0.00    +0.000 A 
ATOM      6  C   UNL     1       2.314   8.502  17.755  0.00  0.00    +0.000 A 
ENDROOT
BRANCH   4   7
ATOM      7  C   UNL     1       0.162  10.147  20.426  0.00  0.00    +0.000 A 
ATOM      8  C   UNL     1       0.283  10.294  21.834  0.00  0.00    +0.000 A 
ATOM      9  C   UNL     1      -0.544  11.148  22.565  0.00  0.00    +0.000 A 
ATOM     10  C   UNL     1      -1.533  11.870  21.923  0.00  0.00    +0.000 A 
ATOM     11  C   UNL     1      -1.688  11.751  20.544  0.00  0.00    +0.000 A 
ATOM     12  C   UNL     1      -0.849  10.908  19.786  0.00  0.00    +0.000 A 
BRANCH  12  13
ATOM     13  C   UNL     1      -1.162  10.896  18.320  0.00  0.00    +0.000 C 
ATOM     14  O   UNL     1      -1.800   9.989  17.814  0.00  0.00    +0.000 OA
BRANCH  13  15
ATOM     15  O   UNL     1      -0.789  11.989  17.625  0.00  0.00    +0.000 OA
ATOM     16  H   UNL     1      -0.269  12.651  18.115  0.00  0.00    +0.000 HD
ENDBRANCH  13  15
ENDBRANCH  12  13
ENDBRANCH   4   7
BRANCH   1  17
ATOM     17  C   UNL     1       3.621   6.336  17.670  0.00  0.00    +0.000 C 
BRANCH  17  23
ATOM     18  C   UNL     1       4.880   4.556  19.018  0.00  0.00    +0.000 A 
ATOM     19  N   UNL     1       4.988   3.299  19.518  0.00  0.00    +0.000 NA
ATOM     20  C   UNL     1       3.986   2.446  19.266  0.00  0.00    +0.000 A 
ATOM     21  N   UNL     1       2.893   2.720  18.552  0.00  0.00    +0.000 NA
ATOM     22  C   UNL     1       2.832   3.973  18.089  0.00  0.00    +0.000 A 
ATOM     23  C   UNL     1       3.767   4.973  18.293  0.00  0.00    +0.000 A 
BRANCH  22  24
ATOM     24  O   UNL     1       1.741   4.168  17.307  0.00  0.00    +0.000 OA
ATOM     25  H   UNL     1       1.918   5.073  16.995  0.00  0.00    +0.000 HD
ENDBRANCH  22  24
BRANCH  18  26
ATOM     26  C   UNL     1       6.086   5.426  19.286  0.00  0.00    +0.000 C 
BRANCH  26  27
ATOM     27  C   UNL     1       6.916   5.759  18.047  0.00  0.00    +0.000 C 
BRANCH  27  29
ATOM     28  C   UNL     1       6.908   4.620  15.815  0.00  0.00    +0.000 C 
ATOM     29  C   UNL     1       7.395   4.542  17.255  0.00  0.00    +0.000 C 
ENDBRANCH  27  29
ENDBRANCH  26  27
ENDBRANCH  18  26
ENDBRANCH  17  23
ENDBRANCH   1  17
TORSDOF 9
ENDMDL
MODEL 9
REMARK VINA RESULT:      -7.8      3.502      7.884
REMARK  Name = 
REMARK  10 active torsions:
REMARK  status: ('A' for Active; 'I' for Inactive)
REMARK    1  A    between atoms: C_1  and  C_2
REMARK    2  A    between atoms: C_2  and  C_3
REMARK    3  A    between atoms: C_3  and  C_4
REMARK    4  A    between atoms: C_4  and  C_5
REMARK    5  A    between atoms: C_9  and  O_10
REMARK    6  A    between atoms: C_11  and  C_12
REMARK    7  A    between atoms: C_12  and  C_13
REMARK    8  A    between atoms: C_16  and  C_17
REMARK    9  A    between atoms: C_22  and  C_23
REMARK   10  A    between atoms: C_23  and  O_25
REMARK                            x       y       z     vdW  Elec       q    Type
REMARK                         _______ _______ _______ _____ _____    ______ ____
ROOT
ATOM      1  C   UNL     1       2.882   6.934  19.215  0.00  0.00    +0.000 A 
ATOM      2  C   UNL     1       2.008   7.339  20.225  0.00  0.00    +0.000 A 
ATOM      3  C   UNL     1       1.164   8.438  20.051  0.00  0.00    +0.000 A 
ATOM      4  C   UNL     1       1.096   9.113  18.827  0.00  0.00    +0.000 A 
ATOM      5  C   UNL     1       1.980   8.700  17.814  0.00  0.00    +0.000 A 
ATOM      6  C   UNL     1       2.870   7.638  18.010  0.00  0.00    +0.000 A 
ENDROOT
BRANCH   4   7
ATOM      7  C   UNL     1       0.121  10.202  18.594  0.00  0.00    +0.000 A 
ATOM      8  C   UNL     1      -1.023   9.917  17.801  0.00  0.00    +0.000 A 
ATOM      9  C   UNL     1      -1.985  10.886  17.509  0.00  0.00    +0.000 A 
ATOM     10  C   UNL     1      -1.829  12.177  17.979  0.00  0.00    +0.000 A 
ATOM     11  C   UNL     1      -0.719  12.499  18.756  0.00  0.00    +0.000 A 
ATOM     12  C   UNL     1       0.252  11.528  19.078  0.00  0.00    +0.000 A 
BRANCH  12  13
ATOM     13  C   UNL     1       1.380  12.051  19.915  0.00  0.00    +0.000 C 
ATOM     14  O   UNL     1       1.428  11.845  21.116  0.00  0.00    +0.000 OA
BRANCH  13  15
ATOM     15  O   UNL     1       2.378  12.664  19.250  0.00  0.00    +0.000 OA
ATOM     16  H   UNL     1       2.156  13.006  18.364  0.00  0.00    +0.000 HD
ENDBRANCH  13  15
ENDBRANCH  12  13
ENDBRANCH   4   7
BRANCH   1  17
ATOM     17  C   UNL     1       3.876   5.814  19.447  0.00  0.00    +0.000 C 
BRANCH  17  23
ATOM     18  C   UNL     1       3.810   4.347  17.346  0.00  0.00    +0.000 A 
ATOM     19  N   UNL     1       4.420   3.766  16.282  0.00  0.00    +0.000 NA
ATOM     20  C   UNL     1       5.726   4.007  16.112  0.00  0.00    +0.000 A 
ATOM     21  N   UNL     1       6.488   4.760  16.908  0.00  0.00    +0.000 NA
ATOM     22  C   UNL     1       5.837   5.316  17.936  0.00  0.00    +0.000 A 
ATOM     23  C   UNL     1       4.490   5.188  18.223  0.00  0.00    +0.000 A 
BRANCH  22  24
ATOM     24  O   UNL     1       6.677   6.002  18.750  0.00  0.00    +0.000 OA
ATOM     25  H   UNL     1       6.049   6.286  19.438  0.00  0.00    +0.000 HD
ENDBRANCH  22  24
BRANCH  18  26
ATOM     26  C   UNL     1       2.357   3.962  17.503  0.00  0.00    +0.000 C 
BRANCH  26  27
ATOM     27  C   UNL     1       2.120   2.705  18.339  0.00  0.00    +0.000 C 
BRANCH  27  29
ATOM     28  C   UNL     1       1.011   3.680  20.364  0.00  0.00    +0.000 C 
ATOM     29  C   UNL     1       0.846   2.734  19.183  0.00  0.00    +0.000 C 
ENDBRANCH  27  29
ENDBRANCH  26  27
ENDBRANCH  18  26
ENDBRANCH  17  23
ENDBRANCH   1  17
TORSDOF 9
ENDMDL
