MODEL 1
REMARK VINA RESULT:      -8.2      0.000      0.000
REMARK  Name = 
REMARK  4 active torsions:
REMARK  status: ('A' for Active; 'I' for Inactive)
REMARK    1  A    between atoms: C_1  and  C_2
REMARK    2  A    between atoms: C_7  and  N_8
REMARK    3  A    between atoms: C_12  and  C_14
REMARK    4  A    between atoms: C_19  and  C_20
REMARK                            x       y       z     vdW  Elec       q    Type
REMARK                         _______ _______ _______ _____ _____    ______ ____
ROOT
ATOM      1  N   UNL     1       4.458   4.245  18.382  0.00  0.00    +0.000 N 
ATOM      2  C   UNL     1       4.330   3.309  17.270  0.00  0.00    +0.000 C 
ATOM      3  C   UNL     1       4.566   4.057  15.962  0.00  0.00    +0.000 C 
ATOM      4  N   UNL     1       5.823   4.824  15.927  0.00  0.00    +0.000 N 
ATOM      5  C   UNL     1       6.657   4.836  14.801  0.00  0.00    +0.000 C 
ATOM      6  O   UNL     1       7.774   5.346  14.826  0.00  0.00    +0.000 OA
ATOM      7  C   UNL     1       6.017   5.693  17.133  0.00  0.00    +0.000 C 
ATOM      8  C   UNL     1       7.311   6.497  17.260  0.00  0.00    +0.000 C 
ATOM      9  C   UNL     1       5.789   4.872  18.447  0.00  0.00    +0.000 C 
ENDROOT
BRANCH   1  16
ATOM     10  C   UNL     1       2.521   6.297  19.233  0.00  0.00    +0.000 C 
ATOM     11  C   UNL     1       2.714   4.974  19.927  0.00  0.00    +0.000 A 
ATOM     12  C   UNL     1       1.834   4.655  20.983  0.00  0.00    +0.000 A 
ATOM     13  C   UNL     1       1.885   3.414  21.613  0.00  0.00    +0.000 A 
ATOM     14  C   UNL     1       2.841   2.489  21.226  0.00  0.00    +0.000 A 
ATOM     15  C   UNL     1       3.732   2.805  20.201  0.00  0.00    +0.000 A 
ATOM     16  C   UNL     1       3.680   4.039  19.516  0.00  0.00    +0.000 A 
ENDBRANCH   1  16
BRANCH   5  17
ATOM     17  C   UNL     1       6.212   4.148  13.592  0.00  0.00    +0.000 A 
ATOM     18  C   UNL     1       4.994   4.091  12.916  0.00  0.00    +0.000 A 
ATOM     19  C   UNL     1       5.080   3.092  11.920  0.00  0.00    +0.000 A 
ATOM     20  C   UNL     1       6.392   2.687  11.876  0.00  0.00    +0.000 A 
ATOM     21  N   UNL     1       7.082   3.382  12.835  0.00  0.00    +0.000 N 
ATOM     22  H   UNL     1       8.072   3.309  13.026  0.00  0.00    +0.000 HD
ENDBRANCH   5  17
TORSDOF 2
ENDMDL
MODEL 2
REMARK VINA RESULT:      -7.8      0.881      1.697
REMARK  Name = 
REMARK  4 active torsions:
REMARK  status: ('A' for Active; 'I' for Inactive)
REMARK    1  A    between atoms: C_1  and  C_2
REMARK    2  A    between atoms: C_7  and  N_8
REMARK    3  A    between atoms: C_12  and  C_14
REMARK    4  A    between atoms: C_19  and  C_20
REMARK                            x       y       z     vdW  Elec       q    Type
REMARK                         _______ _______ _______ _____ _____    ______ ____
ROOT
ATOM      1  N   UNL     1       4.041   4.046  18.446  0.00  0.00    +0.000 N 
ATOM      2  C   UNL     1       4.175   3.225  17.248  0.00  0.00    +0.000 C 
ATOM      3  C   UNL     1       4.555   4.119  16.072  0.00  0.00    +0.000 C 
ATOM      4  N   UNL     1       5.731   4.970  16.320  0.00  0.00    +0.000 N 
ATOM      5  C   UNL     1       6.731   5.157  15.358  0.00  0.00    +0.000 C 
ATOM      6  O   UNL     1       7.782   5.738  15.618  0.00  0.00    +0.000 OA
ATOM      7  C   UNL     1       5.653   5.721  17.616  0.00  0.00    +0.000 C 
ATOM      8  C   UNL     1       6.836   6.594  18.033  0.00  0.00    +0.000 C 
ATOM      9  C   UNL     1       5.286   4.754  18.793  0.00  0.00    +0.000 C 
ENDROOT
BRANCH   1  16
ATOM     10  C   UNL     1       4.713   1.943  20.398  0.00  0.00    +0.000 C 
ATOM     11  C   UNL     1       3.411   2.702  20.384  0.00  0.00    +0.000 A 
ATOM     12  C   UNL     1       2.506   2.467  21.440  0.00  0.00    +0.000 A 
ATOM     13  C   UNL     1       1.324   3.196  21.551  0.00  0.00    +0.000 A 
ATOM     14  C   UNL     1       1.011   4.143  20.589  0.00  0.00    +0.000 A 
ATOM     15  C   UNL     1       1.888   4.364  19.528  0.00  0.00    +0.000 A 
ATOM     16  C   UNL     1       3.111   3.669  19.408  0.00  0.00    +0.000 A 
ENDBRANCH   1  16
BRANCH   5  17
ATOM     17  C   UNL     1       6.548   4.569  14.033  0.00  0.00    +0.000 A 
ATOM     18  C   UNL     1       5.604   3.695  13.496  0.00  0.00    +0.000 A 
ATOM     19  C   UNL     1       6.043   3.293  12.215  0.00  0.00    +0.000 A 
ATOM     20  C   UNL     1       7.140   4.064  11.911  0.00  0.00    +0.000 A 
ATOM     21  N   UNL     1       7.391   4.882  12.981  0.00  0.00    +0.000 N 
ATOM     22  H   UNL     1       8.126   5.573  13.042  0.00  0.00    +0.000 HD
ENDBRANCH   5  17
TORSDOF 2
ENDMDL
MODEL 3
REMARK VINA RESULT:      -7.7      1.137      1.256
REMARK  Name = 
REMARK  4 active torsions:
REMARK  status: ('A' for Active; 'I' for Inactive)
REMARK    1  A    between atoms: C_1  and  C_2
REMARK    2  A    between atoms: C_7  and  N_8
REMARK    3  A    between atoms: C_12  and  C_14
REMARK    4  A    between atoms: C_19  and  C_20
REMARK                            x       y       z     vdW  Elec       q    Type
REMARK                         _______ _______ _______ _____ _____    ______ ____
ROOT
ATOM      1  N   UNL     1       4.130   4.227  18.334  0.00  0.00    +0.000 N 
ATOM      2  C   UNL     1       4.410   3.329  17.219  0.00  0.00    +0.000 C 
ATOM      3  C   UNL     1       4.780   4.159  15.994  0.00  0.00    +0.000 C 
ATOM      4  N   UNL     1       5.860   5.133  16.232  0.00  0.00    +0.000 N 
ATOM      5  C   UNL     1       6.897   5.335  15.313  0.00  0.00    +0.000 C 
ATOM      6  O   UNL     1       7.875   6.029  15.579  0.00  0.00    +0.000 OA
ATOM      7  C   UNL     1       5.636   5.972  17.454  0.00  0.00    +0.000 C 
ATOM      8  C   UNL     1       6.710   6.982  17.860  0.00  0.00    +0.000 C 
ATOM      9  C   UNL     1       5.285   5.072  18.686  0.00  0.00    +0.000 C 
ENDROOT
BRANCH   1  16
ATOM     10  C   UNL     1       1.261   4.465  17.706  0.00  0.00    +0.000 C 
ATOM     11  C   UNL     1       1.803   3.900  18.993  0.00  0.00    +0.000 A 
ATOM     12  C   UNL     1       0.879   3.348  19.906  0.00  0.00    +0.000 A 
ATOM     13  C   UNL     1       1.306   2.722  21.074  0.00  0.00    +0.000 A 
ATOM     14  C   UNL     1       2.659   2.671  21.367  0.00  0.00    +0.000 A 
ATOM     15  C   UNL     1       3.579   3.236  20.483  0.00  0.00    +0.000 A 
ATOM     16  C   UNL     1       3.180   3.843  19.273  0.00  0.00    +0.000 A 
ENDBRANCH   1  16
BRANCH   5  17
ATOM     17  C   UNL     1       6.847   4.629  14.035  0.00  0.00    +0.000 A 
ATOM     18  C   UNL     1       7.395   4.884  12.778  0.00  0.00    +0.000 A 
ATOM     19  C   UNL     1       6.838   3.973  11.853  0.00  0.00    +0.000 A 
ATOM     20  C   UNL     1       6.109   3.063  12.581  0.00  0.00    +0.000 A 
ATOM     21  N   UNL     1       6.182   3.422  13.901  0.00  0.00    +0.000 N 
ATOM     22  H   UNL     1       5.759   2.929  14.676  0.00  0.00    +0.000 HD
ENDBRANCH   5  17
TORSDOF 2
ENDMDL
MODEL 4
REMARK VINA RESULT:      -7.4      1.686      2.736
REMARK  Name = 
REMARK  4 active torsions:
REMARK  status: ('A' for Active; 'I' for Inactive)
REMARK    1  A    between atoms: C_1  and  C_2
REMARK    2  A    between atoms: C_7  and  N_8
REMARK    3  A    between atoms: C_12  and  C_14
REMARK    4  A    between atoms: C_19  and  C_20
REMARK                            x       y       z     vdW  Elec       q    Type
REMARK                         _______ _______ _______ _____ _____    ______ ____
ROOT
ATOM      1  N   UNL     1       3.901   6.117  18.597  0.00  0.00    +0.000 N 
ATOM      2  C   UNL     1       3.681   5.534  17.278  0.00  0.00    +0.000 C 
ATOM      3  C   UNL     1       4.901   5.809  16.404  0.00  0.00    +0.000 C 
ATOM      4  N   UNL     1       6.179   5.396  17.010  0.00  0.00    +0.000 N 
ATOM      5  C   UNL     1       7.175   4.742  16.274  0.00  0.00    +0.000 C 
ATOM      6  O   UNL     1       8.170   4.263  16.812  0.00  0.00    +0.000 OA
ATOM      7  C   UNL     1       6.351   5.890  18.416  0.00  0.00    +0.000 C 
ATOM      8  C   UNL     1       7.604   5.482  19.190  0.00  0.00    +0.000 C 
ATOM      9  C   UNL     1       5.083   5.561  19.275  0.00  0.00    +0.000 C 
ENDROOT
BRANCH   1  16
ATOM     10  C   UNL     1       2.496   4.371  20.511  0.00  0.00    +0.000 C 
ATOM     11  C   UNL     1       2.135   5.811  20.255  0.00  0.00    +0.000 A 
ATOM     12  C   UNL     1       1.133   6.388  21.063  0.00  0.00    +0.000 A 
ATOM     13  C   UNL     1       0.807   7.737  20.953  0.00  0.00    +0.000 A 
ATOM     14  C   UNL     1       1.448   8.522  20.008  0.00  0.00    +0.000 A 
ATOM     15  C   UNL     1       2.422   7.954  19.187  0.00  0.00    +0.000 A 
ATOM     16  C   UNL     1       2.802   6.600  19.300  0.00  0.00    +0.000 A 
ENDBRANCH   1  16
BRANCH   5  17
ATOM     17  C   UNL     1       6.977   4.556  14.839  0.00  0.00    +0.000 A 
ATOM     18  C   UNL     1       6.165   3.710  14.086  0.00  0.00    +0.000 A 
ATOM     19  C   UNL     1       6.546   3.812  12.729  0.00  0.00    +0.000 A 
ATOM     20  C   UNL     1       7.447   4.846  12.647  0.00  0.00    +0.000 A 
ATOM     21  N   UNL     1       7.644   5.338  13.910  0.00  0.00    +0.000 N 
ATOM     22  H   UNL     1       8.241   6.115  14.161  0.00  0.00    +0.000 HD
ENDBRANCH   5  17
TORSDOF 2
ENDMDL
MODEL 5
REMARK VINA RESULT:      -7.1      2.265      4.593
REMARK  Name = 
REMARK  4 active torsions:
REMARK  status: ('A' for Active; 'I' for Inactive)
REMARK    1  A    between atoms: C_1  and  C_2
REMARK    2  A    between atoms: C_7  and  N_8
REMARK    3  A    between atoms: C_12  and  C_14
REMARK    4  A    between atoms: C_19  and  C_20
REMARK                            x       y       z     vdW  Elec       q    Type
REMARK                         _______ _______ _______ _____ _____    ______ ____
ROOT
ATOM      1  N   UNL     1       4.033   4.463  18.849  0.00  0.00    +0.000 N 
ATOM      2  C   UNL     1       4.319   5.849  19.203  0.00  0.00    +0.000 C 
ATOM      3  C   UNL     1       5.814   6.106  19.035  0.00  0.00    +0.000 C 
ATOM      4  N   UNL     1       6.343   5.728  17.713  0.00  0.00    +0.000 N 
ATOM      5  C   UNL     1       7.249   6.537  17.015  0.00  0.00    +0.000 C 
ATOM      6  O   UNL     1       7.569   6.300  15.853  0.00  0.00    +0.000 OA
ATOM      7  C   UNL     1       5.942   4.347  17.290  0.00  0.00    +0.000 C 
ATOM      8  C   UNL     1       6.368   3.847  15.910  0.00  0.00    +0.000 C 
ATOM      9  C   UNL     1       4.398   4.144  17.458  0.00  0.00    +0.000 C 
ENDROOT
BRANCH   1  16
ATOM     10  C   UNL     1       4.599   2.036  20.423  0.00  0.00    +0.000 C 
ATOM     11  C   UNL     1       3.239   2.674  20.309  0.00  0.00    +0.000 A 
ATOM     12  C   UNL     1       2.197   2.139  21.095  0.00  0.00    +0.000 A 
ATOM     13  C   UNL     1       0.936   2.729  21.119  0.00  0.00    +0.000 A 
ATOM     14  C   UNL     1       0.685   3.839  20.328  0.00  0.00    +0.000 A 
ATOM     15  C   UNL     1       1.702   4.360  19.528  0.00  0.00    +0.000 A 
ATOM     16  C   UNL     1       3.001   3.808  19.512  0.00  0.00    +0.000 A 
ENDBRANCH   1  16
BRANCH   5  17
ATOM     17  C   UNL     1       7.759   7.741  17.667  0.00  0.00    +0.000 A 
ATOM     18  C   UNL     1       7.611   9.104  17.412  0.00  0.00    +0.000 A 
ATOM     19  C   UNL     1       8.509   9.814  18.239  0.00  0.00    +0.000 A 
ATOM     20  C   UNL     1       9.052   8.903  19.112  0.00  0.00    +0.000 A 
ATOM     21  N   UNL     1       8.538   7.669  18.809  0.00  0.00    +0.000 N 
ATOM     22  H   UNL     1       8.740   6.805  19.293  0.00  0.00    +0.000 HD
ENDBRANCH   5  17
TORSDOF 2
ENDMDL
MODEL 6
REMARK VINA RESULT:      -6.9      2.899      4.852
REMARK  Name = 
REMARK  4 active torsions:
REMARK  status: ('A' for Active; 'I' for Inactive)
REMARK    1  A    between atoms: C_1  and  C_2
REMARK    2  A    between atoms: C_7  and  N_8
REMARK    3  A    between atoms: C_12  and  C_14
REMARK    4  A    between atoms: C_19  and  C_20
REMARK                            x       y       z     vdW  Elec       q    Type
REMARK                         _______ _______ _______ _____ _____    ______ ____
ROOT
ATOM      1  N   UNL     1       2.188   7.124  19.730  0.00  0.00    +0.000 N 
ATOM      2  C   UNL     1       2.768   7.210  18.395  0.00  0.00    +0.000 C 
ATOM      3  C   UNL     1       4.004   6.318  18.331  0.00  0.00    +0.000 C 
ATOM      4  N   UNL     1       3.766   4.931  18.767  0.00  0.00    +0.000 N 
ATOM      5  C   UNL     1       4.297   3.833  18.078  0.00  0.00    +0.000 C 
ATOM      6  O   UNL     1       3.974   2.679  18.348  0.00  0.00    +0.000 OA
ATOM      7  C   UNL     1       3.054   4.841  20.084  0.00  0.00    +0.000 C 
ATOM      8  C   UNL     1       2.684   3.460  20.626  0.00  0.00    +0.000 C 
ATOM      9  C   UNL     1       1.781   5.753  20.086  0.00  0.00    +0.000 C 
ENDROOT
BRANCH   1  16
ATOM     10  C   UNL     1       1.393   9.327  17.941  0.00  0.00    +0.000 C 
ATOM     11  C   UNL     1       1.114   9.295  19.421  0.00  0.00    +0.000 A 
ATOM     12  C   UNL     1       0.326  10.333  19.961  0.00  0.00    +0.000 A 
ATOM     13  C   UNL     1      -0.055  10.326  21.301  0.00  0.00    +0.000 A 
ATOM     14  C   UNL     1       0.376   9.303  22.130  0.00  0.00    +0.000 A 
ATOM     15  C   UNL     1       1.177   8.286  21.611  0.00  0.00    +0.000 A 
ATOM     16  C   UNL     1       1.548   8.244  20.250  0.00  0.00    +0.000 A 
ENDBRANCH   1  16
BRANCH   5  17
ATOM     17  C   UNL     1       5.196   4.080  16.953  0.00  0.00    +0.000 A 
ATOM     18  C   UNL     1       4.995   4.229  15.582  0.00  0.00    +0.000 A 
ATOM     19  C   UNL     1       6.255   4.233  14.942  0.00  0.00    +0.000 A 
ATOM     20  C   UNL     1       7.204   4.276  15.935  0.00  0.00    +0.000 A 
ATOM     21  N   UNL     1       6.556   4.260  17.141  0.00  0.00    +0.000 N 
ATOM     22  H   UNL     1       6.992   4.301  18.052  0.00  0.00    +0.000 HD
ENDBRANCH   5  17
TORSDOF 2
ENDMDL
MODEL 7
REMARK VINA RESULT:      -6.7      3.811      7.570
REMARK  Name = 
REMARK  4 active torsions:
REMARK  status: ('A' for Active; 'I' for Inactive)
REMARK    1  A    between atoms: C_1  and  C_2
REMARK    2  A    between atoms: C_7  and  N_8
REMARK    3  A    between atoms: C_12  and  C_14
REMARK    4  A    between atoms: C_19  and  C_20
REMARK                            x       y       z     vdW  Elec       q    Type
REMARK                         _______ _______ _______ _____ _____    ______ ____
ROOT
ATOM      1  N   UNL     1       4.020   6.184  17.923  0.00  0.00    +0.000 N 
ATOM      2  C   UNL     1       3.828   7.613  17.702  0.00  0.00    +0.000 C 
ATOM      3  C   UNL     1       2.392   7.983  18.062  0.00  0.00    +0.000 C 
ATOM      4  N   UNL     1       1.980   7.547  19.408  0.00  0.00    +0.000 N 
ATOM      5  C   UNL     1       1.237   8.372  20.262  0.00  0.00    +0.000 C 
ATOM      6  O   UNL     1       1.027   8.072  21.435  0.00  0.00    +0.000 OA
ATOM      7  C   UNL     1       2.293   6.107  19.684  0.00  0.00    +0.000 C 
ATOM      8  C   UNL     1       1.979   5.537  21.067  0.00  0.00    +0.000 C 
ATOM      9  C   UNL     1       3.783   5.787  19.321  0.00  0.00    +0.000 C 
ENDROOT
BRANCH   1  16
ATOM     10  C   UNL     1       3.370   3.460  17.003  0.00  0.00    +0.000 C 
ATOM     11  C   UNL     1       4.610   4.216  16.603  0.00  0.00    +0.000 A 
ATOM     12  C   UNL     1       5.455   3.624  15.642  0.00  0.00    +0.000 A 
ATOM     13  C   UNL     1       6.570   4.298  15.150  0.00  0.00    +0.000 A 
ATOM     14  C   UNL     1       6.880   5.557  15.639  0.00  0.00    +0.000 A 
ATOM     15  C   UNL     1       6.064   6.140  16.609  0.00  0.00    +0.000 A 
ATOM     16  C   UNL     1       4.906   5.499  17.099  0.00  0.00    +0.000 A 
ENDBRANCH   1  16
BRANCH   5  17
ATOM     17  C   UNL     1       0.773   9.663  19.761  0.00  0.00    +0.000 A 
ATOM     18  C   UNL     1      -0.274  10.046  18.923  0.00  0.00    +0.000 A 
ATOM     19  C   UNL     1      -0.117  11.413  18.606  0.00  0.00    +0.000 A 
ATOM     20  C   UNL     1       0.903  11.890  19.393  0.00  0.00    +0.000 A 
ATOM     21  N   UNL     1       1.383  10.847  20.141  0.00  0.00    +0.000 N 
ATOM     22  H   UNL     1       2.124  10.898  20.826  0.00  0.00    +0.000 HD
ENDBRANCH   5  17
TORSDOF 2
ENDMDL
MODEL 8
REMARK VINA RESULT:      -6.7      1.955      2.599
REMARK  Name = 
REMARK  4 active torsions:
REMARK  status: ('A' for Active; 'I' for Inactive)
REMARK    1  A    between atoms: C_1  and  C_2
REMARK    2  A    between atoms: C_7  and  N_8
REMARK    3  A    between atoms: C_12  and  C_14
REMARK    4  A    between atoms: C_19  and  C_20
REMARK                            x       y       z     vdW  Elec       q    Type
REMARK                         _______ _______ _______ _____ _____    ______ ____
ROOT
ATOM      1  N   UNL     1       3.994   6.225  18.657  0.00  0.00    +0.000 N 
ATOM      2  C   UNL     1       3.717   5.645  17.348  0.00  0.00    +0.000 C 
ATOM      3  C   UNL     1       4.920   5.873  16.439  0.00  0.00    +0.000 C 
ATOM      4  N   UNL     1       6.199   5.417  17.011  0.00  0.00    +0.000 N 
ATOM      5  C   UNL     1       7.150   4.725  16.251  0.00  0.00    +0.000 C 
ATOM      6  O   UNL     1       8.142   4.213  16.762  0.00  0.00    +0.000 OA
ATOM      7  C   UNL     1       6.428   5.909  18.409  0.00  0.00    +0.000 C 
ATOM      8  C   UNL     1       7.687   5.460  19.150  0.00  0.00    +0.000 C 
ATOM      9  C   UNL     1       5.174   5.629  19.305  0.00  0.00    +0.000 C 
ENDROOT
BRANCH   1  16
ATOM     10  C   UNL     1       2.758   8.773  17.841  0.00  0.00    +0.000 C 
ATOM     11  C   UNL     1       2.289   7.939  19.004  0.00  0.00    +0.000 A 
ATOM     12  C   UNL     1       1.117   8.349  19.673  0.00  0.00    +0.000 A 
ATOM     13  C   UNL     1       0.566   7.582  20.696  0.00  0.00    +0.000 A 
ATOM     14  C   UNL     1       1.198   6.415  21.093  0.00  0.00    +0.000 A 
ATOM     15  C   UNL     1       2.372   6.015  20.455  0.00  0.00    +0.000 A 
ATOM     16  C   UNL     1       2.933   6.749  19.389  0.00  0.00    +0.000 A 
ENDBRANCH   1  16
BRANCH   5  17
ATOM     17  C   UNL     1       6.906   4.541  14.822  0.00  0.00    +0.000 A 
ATOM     18  C   UNL     1       6.042   3.722  14.096  0.00  0.00    +0.000 A 
ATOM     19  C   UNL     1       6.388   3.806  12.729  0.00  0.00    +0.000 A 
ATOM     20  C   UNL     1       7.325   4.805  12.617  0.00  0.00    +0.000 A 
ATOM     21  N   UNL     1       7.575   5.294  13.872  0.00  0.00    +0.000 N 
ATOM     22  H   UNL     1       8.207   6.049  14.102  0.00  0.00    +0.000 HD
ENDBRANCH   5  17
TORSDOF 2
ENDMDL
MODEL 9
REMARK VINA RESULT:      -6.5      3.250      5.432
REMARK  Name = 
REMARK  4 active torsions:
REMARK  status: ('A' for Active; 'I' for Inactive)
REMARK    1  A    between atoms: C_1  and  C_2
REMARK    2  A    between atoms: C_7  and  N_8
REMARK    3  A    between atoms: C_12  and  C_14
REMARK    4  A    between atoms: C_19  and  C_20
REMARK                            x       y       z     vdW  Elec       q    Type
REMARK                         _______ _______ _______ _____ _____    ______ ____
ROOT
ATOM      1  N   UNL     1       1.972   7.845  19.194  0.00  0.00    +0.000 N 
ATOM      2  C   UNL     1       2.627   7.670  17.902  0.00  0.00    +0.000 C 
ATOM      3  C   UNL     1       3.871   6.807  18.089  0.00  0.00    +0.000 C 
ATOM      4  N   UNL     1       3.619   5.533  18.785  0.00  0.00    +0.000 N 
ATOM      5  C   UNL     1       4.197   4.329  18.364  0.00  0.00    +0.000 C 
ATOM      6  O   UNL     1       3.867   3.248  18.845  0.00  0.00    +0.000 OA
ATOM      7  C   UNL     1       2.834   5.698  20.051  0.00  0.00    +0.000 C 
ATOM      8  C   UNL     1       2.444   4.450  20.843  0.00  0.00    +0.000 C 
ATOM      9  C   UNL     1       1.556   6.568  19.799  0.00  0.00    +0.000 C 
ENDROOT
BRANCH   1  16
ATOM     10  C   UNL     1       1.401   8.671  21.965  0.00  0.00    +0.000 C 
ATOM     11  C   UNL     1       1.045   9.485  20.748  0.00  0.00    +0.000 A 
ATOM     12  C   UNL     1       0.505  10.771  20.956  0.00  0.00    +0.000 A 
ATOM     13  C   UNL     1       0.238  11.622  19.886  0.00  0.00    +0.000 A 
ATOM     14  C   UNL     1       0.469  11.187  18.591  0.00  0.00    +0.000 A 
ATOM     15  C   UNL     1       0.978   9.906  18.375  0.00  0.00    +0.000 A 
ATOM     16  C   UNL     1       1.296   9.036  19.439  0.00  0.00    +0.000 A 
ENDBRANCH   1  16
BRANCH   5  17
ATOM     17  C   UNL     1       5.156   4.359  17.263  0.00  0.00    +0.000 A 
ATOM     18  C   UNL     1       5.024   4.321  15.875  0.00  0.00    +0.000 A 
ATOM     19  C   UNL     1       6.307   4.161  15.307  0.00  0.00    +0.000 A 
ATOM     20  C   UNL     1       7.215   4.289  16.331  0.00  0.00    +0.000 A 
ATOM     21  N   UNL     1       6.516   4.484  17.493  0.00  0.00    +0.000 N 
ATOM     22  H   UNL     1       6.915   4.630  18.410  0.00  0.00    +0.000 HD
ENDBRANCH   5  17
TORSDOF 2
ENDMDL
