MODEL 1
REMARK VINA RESULT:      -8.1      0.000      0.000
REMARK  Name = 
REMARK  7 active torsions:
REMARK  status: ('A' for Active; 'I' for Inactive)
REMARK    1  A    between atoms: C_1  and  C_2
REMARK    2  A    between atoms: C_5  and  C_6
REMARK    3  A    between atoms: C_6  and  C_8
REMARK    4  A    between atoms: N_11  and  C_12
REMARK    5  A    between atoms: C_15  and  S_16
REMARK    6  A    between atoms: S_16  and  N_17
REMARK    7  A    between atoms: C_22  and  C_23
REMARK                            x       y       z     vdW  Elec       q    Type
REMARK                         _______ _______ _______ _____ _____    ______ ____
ROOT
ATOM      1  C   UNL     1       1.335   9.889  18.793  0.00  0.00    +0.000 A 
ATOM      2  N   UNL     1       2.013   9.874  17.605  0.00  0.00    +0.000 NA
ATOM      3  N   UNL     1       2.585   8.690  17.471  0.00  0.00    +0.000 NA
ATOM      4  N   UNL     1       2.182   7.899  18.495  0.00  0.00    +0.000 N 
ATOM      5  C   UNL     1       1.453   8.650  19.392  0.00  0.00    +0.000 A 
ENDROOT
BRANCH   4   6
ATOM      6  C   UNL     1       2.608   6.548  18.554  0.00  0.00    +0.000 A 
ATOM      7  C   UNL     1       3.787   6.229  19.249  0.00  0.00    +0.000 A 
ATOM      8  C   UNL     1       4.127   4.890  19.462  0.00  0.00    +0.000 A 
ATOM      9  C   UNL     1       3.301   3.883  18.958  0.00  0.00    +0.000 A 
ATOM     10  C   UNL     1       2.191   4.195  18.171  0.00  0.00    +0.000 A 
ATOM     11  C   UNL     1       1.852   5.530  17.962  0.00  0.00    +0.000 A 
BRANCH   9  12
ATOM     12  S   UNL     1       3.653   2.187  19.311  0.00  0.00    +0.000 S 
ATOM     13  O   UNL     1       4.802   2.112  20.186  0.00  0.00    +0.000 OA
ATOM     14  O   UNL     1       2.415   1.492  19.586  0.00  0.00    +0.000 OA
BRANCH  12  15
ATOM     15  N   UNL     1       4.172   1.643  17.811  0.00  0.00    +0.000 NA
ATOM     16  H   UNL     1       5.072   1.166  17.899  0.00  0.00    +0.000 HD
ATOM     17  H   UNL     1       3.446   1.078  17.371  0.00  0.00    +0.000 HD
ENDBRANCH  12  15
ENDBRANCH   9  12
ENDBRANCH   4   6
BRANCH   5  18
ATOM     18  C   UNL     1       1.118   8.210  20.745  0.00  0.00    +0.000 C 
ATOM     19  F   UNL     1       1.178   6.868  20.902  0.00  0.00    +0.000 F 
ATOM     20  F   UNL     1       1.929   8.753  21.684  0.00  0.00    +0.000 F 
ATOM     21  F   UNL     1      -0.155   8.554  21.073  0.00  0.00    +0.000 F 
ENDBRANCH   5  18
BRANCH   1  22
ATOM     22  C   UNL     1       0.679  11.079  19.316  0.00  0.00    +0.000 C 
ATOM     23  O   UNL     1       1.291  11.928  19.956  0.00  0.00    +0.000 OA
BRANCH  22  28
ATOM     24  C   UNL     1      -4.963  11.766  18.160  0.00  0.00    +0.000 C 
ATOM     25  C   UNL     1      -3.516  11.563  18.496  0.00  0.00    +0.000 A 
ATOM     26  C   UNL     1      -2.925  12.271  19.547  0.00  0.00    +0.000 A 
ATOM     27  C   UNL     1      -1.570  12.105  19.833  0.00  0.00    +0.000 A 
ATOM     28  C   UNL     1      -0.781  11.243  19.059  0.00  0.00    +0.000 A 
ATOM     29  C   UNL     1      -1.377  10.505  18.031  0.00  0.00    +0.000 A 
ATOM     30  C   UNL     1      -2.736  10.671  17.747  0.00  0.00    +0.000 A 
ENDBRANCH  22  28
ENDBRANCH   1  22
TORSDOF 6
ENDMDL
MODEL 2
REMARK VINA RESULT:      -8.0      0.088      1.153
REMARK  Name = 
REMARK  7 active torsions:
REMARK  status: ('A' for Active; 'I' for Inactive)
REMARK    1  A    between atoms: C_1  and  C_2
REMARK    2  A    between atoms: C_5  and  C_6
REMARK    3  A    between atoms: C_6  and  C_8
REMARK    4  A    between atoms: N_11  and  C_12
REMARK    5  A    between atoms: C_15  and  S_16
REMARK    6  A    between atoms: S_16  and  N_17
REMARK    7  A    between atoms: C_22  and  C_23
REMARK                            x       y       z     vdW  Elec       q    Type
REMARK                         _______ _______ _______ _____ _____    ______ ____
ROOT
ATOM      1  C   UNL     1       1.370   9.861  18.745  0.00  0.00    +0.000 A 
ATOM      2  N   UNL     1       2.070   9.838  17.571  0.00  0.00    +0.000 NA
ATOM      3  N   UNL     1       2.644   8.653  17.453  0.00  0.00    +0.000 NA
ATOM      4  N   UNL     1       2.220   7.867  18.473  0.00  0.00    +0.000 N 
ATOM      5  C   UNL     1       1.475   8.624  19.352  0.00  0.00    +0.000 A 
ENDROOT
BRANCH   4   6
ATOM      6  C   UNL     1       2.643   6.516  18.548  0.00  0.00    +0.000 A 
ATOM      7  C   UNL     1       3.854   6.210  19.191  0.00  0.00    +0.000 A 
ATOM      8  C   UNL     1       4.199   4.875  19.422  0.00  0.00    +0.000 A 
ATOM      9  C   UNL     1       3.344   3.859  18.989  0.00  0.00    +0.000 A 
ATOM     10  C   UNL     1       2.196   4.156  18.252  0.00  0.00    +0.000 A 
ATOM     11  C   UNL     1       1.852   5.487  18.024  0.00  0.00    +0.000 A 
BRANCH   9  12
ATOM     12  S   UNL     1       3.706   2.172  19.370  0.00  0.00    +0.000 S 
ATOM     13  O   UNL     1       4.887   2.115  20.202  0.00  0.00    +0.000 OA
ATOM     14  O   UNL     1       2.478   1.486  19.709  0.00  0.00    +0.000 OA
BRANCH  12  15
ATOM     15  N   UNL     1       4.167   1.589  17.866  0.00  0.00    +0.000 NA
ATOM     16  H   UNL     1       5.089   1.153  17.922  0.00  0.00    +0.000 HD
ATOM     17  H   UNL     1       3.442   0.979  17.487  0.00  0.00    +0.000 HD
ENDBRANCH  12  15
ENDBRANCH   9  12
ENDBRANCH   4   6
BRANCH   5  18
ATOM     18  C   UNL     1       1.113   8.192  20.702  0.00  0.00    +0.000 C 
ATOM     19  F   UNL     1      -0.163   8.493  21.036  0.00  0.00    +0.000 F 
ATOM     20  F   UNL     1       1.262   6.858  20.877  0.00  0.00    +0.000 F 
ATOM     21  F   UNL     1       1.884   8.805  21.638  0.00  0.00    +0.000 F 
ENDBRANCH   5  18
BRANCH   1  22
ATOM     22  C   UNL     1       0.707  11.054  19.249  0.00  0.00    +0.000 C 
ATOM     23  O   UNL     1       1.309  11.909  19.891  0.00  0.00    +0.000 OA
BRANCH  22  28
ATOM     24  C   UNL     1      -4.990  11.628  18.321  0.00  0.00    +0.000 C 
ATOM     25  C   UNL     1      -3.509  11.505  18.523  0.00  0.00    +0.000 A 
ATOM     26  C   UNL     1      -2.757  10.625  17.739  0.00  0.00    +0.000 A 
ATOM     27  C   UNL     1      -1.386  10.487  17.953  0.00  0.00    +0.000 A 
ATOM     28  C   UNL     1      -0.750  11.214  18.970  0.00  0.00    +0.000 A 
ATOM     29  C   UNL     1      -1.492  12.124  19.731  0.00  0.00    +0.000 A 
ATOM     30  C   UNL     1      -2.866  12.261  19.512  0.00  0.00    +0.000 A 
ENDBRANCH  22  28
ENDBRANCH   1  22
TORSDOF 6
ENDMDL
MODEL 3
REMARK VINA RESULT:      -7.9      0.639      1.031
REMARK  Name = 
REMARK  7 active torsions:
REMARK  status: ('A' for Active; 'I' for Inactive)
REMARK    1  A    between atoms: C_1  and  C_2
REMARK    2  A    between atoms: C_5  and  C_6
REMARK    3  A    between atoms: C_6  and  C_8
REMARK    4  A    between atoms: N_11  and  C_12
REMARK    5  A    between atoms: C_15  and  S_16
REMARK    6  A    between atoms: S_16  and  N_17
REMARK    7  A    between atoms: C_22  and  C_23
REMARK                            x       y       z     vdW  Elec       q    Type
REMARK                         _______ _______ _______ _____ _____    ______ ____
ROOT
ATOM      1  C   UNL     1       1.334   9.968  18.843  0.00  0.00    +0.000 A 
ATOM      2  N   UNL     1       2.021   9.970  17.660  0.00  0.00    +0.000 NA
ATOM      3  N   UNL     1       2.571   8.779  17.498  0.00  0.00    +0.000 NA
ATOM      4  N   UNL     1       2.145   7.969  18.498  0.00  0.00    +0.000 N 
ATOM      5  C   UNL     1       1.423   8.711  19.409  0.00  0.00    +0.000 A 
ENDROOT
BRANCH   4   6
ATOM      6  C   UNL     1       2.543   6.609  18.524  0.00  0.00    +0.000 A 
ATOM      7  C   UNL     1       3.746   6.258  19.161  0.00  0.00    +0.000 A 
ATOM      8  C   UNL     1       4.066   4.910  19.345  0.00  0.00    +0.000 A 
ATOM      9  C   UNL     1       3.196   3.926  18.871  0.00  0.00    +0.000 A 
ATOM     10  C   UNL     1       2.057   4.270  18.140  0.00  0.00    +0.000 A 
ATOM     11  C   UNL     1       1.738   5.614  17.960  0.00  0.00    +0.000 A 
BRANCH   9  12
ATOM     12  S   UNL     1       3.527   2.220  19.192  0.00  0.00    +0.000 S 
ATOM     13  O   UNL     1       2.628   1.746  20.220  0.00  0.00    +0.000 OA
ATOM     14  O   UNL     1       3.712   1.526  17.936  0.00  0.00    +0.000 OA
BRANCH  12  15
ATOM     15  N   UNL     1       5.043   2.310  19.904  0.00  0.00    +0.000 NA
ATOM     16  H   UNL     1       5.010   1.945  20.858  0.00  0.00    +0.000 HD
ATOM     17  H   UNL     1       5.739   1.856  19.311  0.00  0.00    +0.000 HD
ENDBRANCH  12  15
ENDBRANCH   9  12
ENDBRANCH   4   6
BRANCH   5  18
ATOM     18  C   UNL     1       1.068   8.243  20.748  0.00  0.00    +0.000 C 
ATOM     19  F   UNL     1       1.843   8.772  21.723  0.00  0.00    +0.000 F 
ATOM     20  F   UNL     1      -0.216   8.520  21.073  0.00  0.00    +0.000 F 
ATOM     21  F   UNL     1       1.224   6.897  20.856  0.00  0.00    +0.000 F 
ENDBRANCH   5  18
BRANCH   1  22
ATOM     22  C   UNL     1       0.698  11.156  19.392  0.00  0.00    +0.000 C 
ATOM     23  O   UNL     1       1.329  11.994  20.028  0.00  0.00    +0.000 OA
BRANCH  22  28
ATOM     24  C   UNL     1      -4.963  11.891  18.362  0.00  0.00    +0.000 C 
ATOM     25  C   UNL     1      -3.510  11.676  18.666  0.00  0.00    +0.000 A 
ATOM     26  C   UNL     1      -2.888  12.384  19.698  0.00  0.00    +0.000 A 
ATOM     27  C   UNL     1      -1.529  12.207  19.955  0.00  0.00    +0.000 A 
ATOM     28  C   UNL     1      -0.766  11.332  19.167  0.00  0.00    +0.000 A 
ATOM     29  C   UNL     1      -1.392  10.593  18.159  0.00  0.00    +0.000 A 
ATOM     30  C   UNL     1      -2.756  10.771  17.905  0.00  0.00    +0.000 A 
ENDBRANCH  22  28
ENDBRANCH   1  22
TORSDOF 6
ENDMDL
MODEL 4
REMARK VINA RESULT:      -7.7      1.062      1.295
REMARK  Name = 
REMARK  7 active torsions:
REMARK  status: ('A' for Active; 'I' for Inactive)
REMARK    1  A    between atoms: C_1  and  C_2
REMARK    2  A    between atoms: C_5  and  C_6
REMARK    3  A    between atoms: C_6  and  C_8
REMARK    4  A    between atoms: N_11  and  C_12
REMARK    5  A    between atoms: C_15  and  S_16
REMARK    6  A    between atoms: S_16  and  N_17
REMARK    7  A    between atoms: C_22  and  C_23
REMARK                            x       y       z     vdW  Elec       q    Type
REMARK                         _______ _______ _______ _____ _____    ______ ____
ROOT
ATOM      1  C   UNL     1       0.989  10.120  18.854  0.00  0.00    +0.000 A 
ATOM      2  N   UNL     1       1.747   9.863  17.744  0.00  0.00    +0.000 NA
ATOM      3  N   UNL     1       2.362   8.706  17.922  0.00  0.00    +0.000 NA
ATOM      4  N   UNL     1       1.914   8.153  19.075  0.00  0.00    +0.000 N 
ATOM      5  C   UNL     1       1.103   9.056  19.728  0.00  0.00    +0.000 A 
ENDROOT
BRANCH   4   6
ATOM      6  C   UNL     1       2.374   6.872  19.470  0.00  0.00    +0.000 A 
ATOM      7  C   UNL     1       1.568   6.080  20.305  0.00  0.00    +0.000 A 
ATOM      8  C   UNL     1       1.928   4.754  20.563  0.00  0.00    +0.000 A 
ATOM      9  C   UNL     1       3.100   4.238  20.004  0.00  0.00    +0.000 A 
ATOM     10  C   UNL     1       3.960   5.055  19.267  0.00  0.00    +0.000 A 
ATOM     11  C   UNL     1       3.599   6.376  19.010  0.00  0.00    +0.000 A 
BRANCH   9  12
ATOM     12  S   UNL     1       3.515   2.535  20.226  0.00  0.00    +0.000 S 
ATOM     13  O   UNL     1       3.457   2.210  21.633  0.00  0.00    +0.000 OA
ATOM     14  O   UNL     1       2.845   1.747  19.215  0.00  0.00    +0.000 OA
BRANCH  12  15
ATOM     15  N   UNL     1       5.141   2.539  19.815  0.00  0.00    +0.000 NA
ATOM     16  H   UNL     1       5.717   2.396  20.646  0.00  0.00    +0.000 HD
ATOM     17  H   UNL     1       5.318   1.866  19.068  0.00  0.00    +0.000 HD
ENDBRANCH  12  15
ENDBRANCH   9  12
ENDBRANCH   4   6
BRANCH   5  18
ATOM     18  C   UNL     1       0.689   8.924  21.124  0.00  0.00    +0.000 C 
ATOM     19  F   UNL     1      -0.263   7.980  21.313  0.00  0.00    +0.000 F 
ATOM     20  F   UNL     1       1.719   8.613  21.945  0.00  0.00    +0.000 F 
ATOM     21  F   UNL     1       0.145  10.080  21.588  0.00  0.00    +0.000 F 
ENDBRANCH   5  18
BRANCH   1  22
ATOM     22  C   UNL     1       0.265  11.367  19.047  0.00  0.00    +0.000 C 
ATOM     23  O   UNL     1       0.831  12.399  19.395  0.00  0.00    +0.000 OA
BRANCH  22  28
ATOM     24  C   UNL     1      -5.439  11.389  17.991  0.00  0.00    +0.000 C 
ATOM     25  C   UNL     1      -3.972  11.360  18.303  0.00  0.00    +0.000 A 
ATOM     26  C   UNL     1      -3.437  12.207  19.278  0.00  0.00    +0.000 A 
ATOM     27  C   UNL     1      -2.067  12.202  19.541  0.00  0.00    +0.000 A 
ATOM     28  C   UNL     1      -1.209  11.362  18.816  0.00  0.00    +0.000 A 
ATOM     29  C   UNL     1      -1.745  10.486  17.867  0.00  0.00    +0.000 A 
ATOM     30  C   UNL     1      -3.119  10.493  17.607  0.00  0.00    +0.000 A 
ENDBRANCH  22  28
ENDBRANCH   1  22
TORSDOF 6
ENDMDL
MODEL 5
REMARK VINA RESULT:      -7.7      1.845      2.204
REMARK  Name = 
REMARK  7 active torsions:
REMARK  status: ('A' for Active; 'I' for Inactive)
REMARK    1  A    between atoms: C_1  and  C_2
REMARK    2  A    between atoms: C_5  and  C_6
REMARK    3  A    between atoms: C_6  and  C_8
REMARK    4  A    between atoms: N_11  and  C_12
REMARK    5  A    between atoms: C_15  and  S_16
REMARK    6  A    between atoms: S_16  and  N_17
REMARK    7  A    between atoms: C_22  and  C_23
REMARK                            x       y       z     vdW  Elec       q    Type
REMARK                         _______ _______ _______ _____ _____    ______ ____
ROOT
ATOM      1  C   UNL     1       0.798   9.689  20.164  0.00  0.00    +0.000 A 
ATOM      2  N   UNL     1       0.444   9.192  21.388  0.00  0.00    +0.000 NA
ATOM      3  N   UNL     1       0.857   7.938  21.460  0.00  0.00    +0.000 NA
ATOM      4  N   UNL     1       1.582   7.659  20.350  0.00  0.00    +0.000 N 
ATOM      5  C   UNL     1       1.499   8.720  19.473  0.00  0.00    +0.000 A 
ENDROOT
BRANCH   4   6
ATOM      6  C   UNL     1       2.194   6.389  20.206  0.00  0.00    +0.000 A 
ATOM      7  C   UNL     1       1.478   5.236  20.573  0.00  0.00    +0.000 A 
ATOM      8  C   UNL     1       1.999   3.973  20.279  0.00  0.00    +0.000 A 
ATOM      9  C   UNL     1       3.239   3.871  19.643  0.00  0.00    +0.000 A 
ATOM     10  C   UNL     1       4.002   5.010  19.379  0.00  0.00    +0.000 A 
ATOM     11  C   UNL     1       3.481   6.269  19.671  0.00  0.00    +0.000 A 
BRANCH   9  12
ATOM     12  S   UNL     1       3.862   2.289  19.162  0.00  0.00    +0.000 S 
ATOM     13  O   UNL     1       4.945   1.917  20.044  0.00  0.00    +0.000 OA
ATOM     14  O   UNL     1       2.752   1.408  18.873  0.00  0.00    +0.000 OA
BRANCH  12  15
ATOM     15  N   UNL     1       4.568   2.652  17.684  0.00  0.00    +0.000 NA
ATOM     16  H   UNL     1       4.467   1.866  17.040  0.00  0.00    +0.000 HD
ATOM     17  H   UNL     1       4.199   3.533  17.324  0.00  0.00    +0.000 HD
ENDBRANCH  12  15
ENDBRANCH   9  12
ENDBRANCH   4   6
BRANCH   5  18
ATOM     18  C   UNL     1       1.899   8.654  18.068  0.00  0.00    +0.000 C 
ATOM     19  F   UNL     1       1.532   9.744  17.355  0.00  0.00    +0.000 F 
ATOM     20  F   UNL     1       3.238   8.517  17.915  0.00  0.00    +0.000 F 
ATOM     21  F   UNL     1       1.317   7.600  17.440  0.00  0.00    +0.000 F 
ENDBRANCH   5  18
BRANCH   1  22
ATOM     22  C   UNL     1       0.400  11.011  19.700  0.00  0.00    +0.000 C 
ATOM     23  O   UNL     1       1.171  11.965  19.721  0.00  0.00    +0.000 OA
BRANCH  22  28
ATOM     24  C   UNL     1      -4.959  11.731  17.601  0.00  0.00    +0.000 C 
ATOM     25  C   UNL     1      -3.591  11.521  18.179  0.00  0.00    +0.000 A 
ATOM     26  C   UNL     1      -3.171  12.254  19.292  0.00  0.00    +0.000 A 
ATOM     27  C   UNL     1      -1.886  12.081  19.805  0.00  0.00    +0.000 A 
ATOM     28  C   UNL     1      -0.994  11.184  19.198  0.00  0.00    +0.000 A 
ATOM     29  C   UNL     1      -1.424  10.421  18.109  0.00  0.00    +0.000 A 
ATOM     30  C   UNL     1      -2.714  10.595  17.597  0.00  0.00    +0.000 A 
ENDBRANCH  22  28
ENDBRANCH   1  22
TORSDOF 6
ENDMDL
MODEL 6
REMARK VINA RESULT:      -7.7      1.142      1.418
REMARK  Name = 
REMARK  7 active torsions:
REMARK  status: ('A' for Active; 'I' for Inactive)
REMARK    1  A    between atoms: C_1  and  C_2
REMARK    2  A    between atoms: C_5  and  C_6
REMARK    3  A    between atoms: C_6  and  C_8
REMARK    4  A    between atoms: N_11  and  C_12
REMARK    5  A    between atoms: C_15  and  S_16
REMARK    6  A    between atoms: S_16  and  N_17
REMARK    7  A    between atoms: C_22  and  C_23
REMARK                            x       y       z     vdW  Elec       q    Type
REMARK                         _______ _______ _______ _____ _____    ______ ____
ROOT
ATOM      1  C   UNL     1       0.981  10.076  18.713  0.00  0.00    +0.000 A 
ATOM      2  N   UNL     1       1.731   9.747  17.618  0.00  0.00    +0.000 NA
ATOM      3  N   UNL     1       2.349   8.605  17.867  0.00  0.00    +0.000 NA
ATOM      4  N   UNL     1       1.909   8.129  19.058  0.00  0.00    +0.000 N 
ATOM      5  C   UNL     1       1.102   9.073  19.656  0.00  0.00    +0.000 A 
ENDROOT
BRANCH   4   6
ATOM      6  C   UNL     1       2.375   6.877  19.533  0.00  0.00    +0.000 A 
ATOM      7  C   UNL     1       1.543   6.105  20.362  0.00  0.00    +0.000 A 
ATOM      8  C   UNL     1       1.916   4.801  20.698  0.00  0.00    +0.000 A 
ATOM      9  C   UNL     1       3.125   4.287  20.223  0.00  0.00    +0.000 A 
ATOM     10  C   UNL     1       4.004   5.089  19.493  0.00  0.00    +0.000 A 
ATOM     11  C   UNL     1       3.630   6.388  19.157  0.00  0.00    +0.000 A 
BRANCH   9  12
ATOM     12  S   UNL     1       3.561   2.604  20.542  0.00  0.00    +0.000 S 
ATOM     13  O   UNL     1       4.929   2.382  20.135  0.00  0.00    +0.000 OA
ATOM     14  O   UNL     1       3.062   2.222  21.845  0.00  0.00    +0.000 OA
BRANCH  12  15
ATOM     15  N   UNL     1       2.604   1.801  19.422  0.00  0.00    +0.000 NA
ATOM     16  H   UNL     1       2.807   0.800  19.435  0.00  0.00    +0.000 HD
ATOM     17  H   UNL     1       1.621   2.027  19.571  0.00  0.00    +0.000 HD
ENDBRANCH  12  15
ENDBRANCH   9  12
ENDBRANCH   4   6
BRANCH   5  18
ATOM     18  C   UNL     1       0.698   9.033  21.061  0.00  0.00    +0.000 C 
ATOM     19  F   UNL     1       1.700   8.670  21.895  0.00  0.00    +0.000 F 
ATOM     20  F   UNL     1       0.230  10.224  21.501  0.00  0.00    +0.000 F 
ATOM     21  F   UNL     1      -0.287   8.119  21.264  0.00  0.00    +0.000 F 
ENDBRANCH   5  18
BRANCH   1  22
ATOM     22  C   UNL     1       0.256  11.333  18.829  0.00  0.00    +0.000 C 
ATOM     23  O   UNL     1       0.828  12.391  19.071  0.00  0.00    +0.000 OA
BRANCH  22  28
ATOM     24  C   UNL     1      -5.482  11.258  17.979  0.00  0.00    +0.000 C 
ATOM     25  C   UNL     1      -4.004  11.255  18.239  0.00  0.00    +0.000 A 
ATOM     26  C   UNL     1      -3.445  12.139  19.167  0.00  0.00    +0.000 A 
ATOM     27  C   UNL     1      -2.067  12.157  19.380  0.00  0.00    +0.000 A 
ATOM     28  C   UNL     1      -1.225  11.304  18.652  0.00  0.00    +0.000 A 
ATOM     29  C   UNL     1      -1.784  10.392  17.751  0.00  0.00    +0.000 A 
ATOM     30  C   UNL     1      -3.166  10.375  17.541  0.00  0.00    +0.000 A 
ENDBRANCH  22  28
ENDBRANCH   1  22
TORSDOF 6
ENDMDL
MODEL 7
REMARK VINA RESULT:      -7.7      1.147      1.820
REMARK  Name = 
REMARK  7 active torsions:
REMARK  status: ('A' for Active; 'I' for Inactive)
REMARK    1  A    between atoms: C_1  and  C_2
REMARK    2  A    between atoms: C_5  and  C_6
REMARK    3  A    between atoms: C_6  and  C_8
REMARK    4  A    between atoms: N_11  and  C_12
REMARK    5  A    between atoms: C_15  and  S_16
REMARK    6  A    between atoms: S_16  and  N_17
REMARK    7  A    between atoms: C_22  and  C_23
REMARK                            x       y       z     vdW  Elec       q    Type
REMARK                         _______ _______ _______ _____ _____    ______ ____
ROOT
ATOM      1  C   UNL     1       0.986  10.077  18.773  0.00  0.00    +0.000 A 
ATOM      2  N   UNL     1       1.717   9.739  17.667  0.00  0.00    +0.000 NA
ATOM      3  N   UNL     1       2.328   8.592  17.909  0.00  0.00    +0.000 NA
ATOM      4  N   UNL     1       1.903   8.122  19.107  0.00  0.00    +0.000 N 
ATOM      5  C   UNL     1       1.113   9.074  19.716  0.00  0.00    +0.000 A 
ENDROOT
BRANCH   4   6
ATOM      6  C   UNL     1       2.364   6.868  19.578  0.00  0.00    +0.000 A 
ATOM      7  C   UNL     1       1.522   6.086  20.388  0.00  0.00    +0.000 A 
ATOM      8  C   UNL     1       1.893   4.779  20.717  0.00  0.00    +0.000 A 
ATOM      9  C   UNL     1       3.110   4.272  20.255  0.00  0.00    +0.000 A 
ATOM     10  C   UNL     1       3.998   5.083  19.545  0.00  0.00    +0.000 A 
ATOM     11  C   UNL     1       3.626   6.385  19.215  0.00  0.00    +0.000 A 
BRANCH   9  12
ATOM     12  S   UNL     1       3.545   2.588  20.565  0.00  0.00    +0.000 S 
ATOM     13  O   UNL     1       4.904   2.360  20.129  0.00  0.00    +0.000 OA
ATOM     14  O   UNL     1       3.072   2.208  21.878  0.00  0.00    +0.000 OA
BRANCH  12  15
ATOM     15  N   UNL     1       2.562   1.789  19.465  0.00  0.00    +0.000 NA
ATOM     16  H   UNL     1       2.582   0.782  19.637  0.00  0.00    +0.000 HD
ATOM     17  H   UNL     1       1.625   2.192  19.472  0.00  0.00    +0.000 HD
ENDBRANCH  12  15
ENDBRANCH   9  12
ENDBRANCH   4   6
BRANCH   5  18
ATOM     18  C   UNL     1       0.730   9.040  21.126  0.00  0.00    +0.000 C 
ATOM     19  F   UNL     1       0.246  10.220  21.579  0.00  0.00    +0.000 F 
ATOM     20  F   UNL     1      -0.213   8.104  21.387  0.00  0.00    +0.000 F 
ATOM     21  F   UNL     1       1.797   8.761  21.919  0.00  0.00    +0.000 F 
ENDBRANCH   5  18
BRANCH   1  22
ATOM     22  C   UNL     1       0.275  11.340  18.897  0.00  0.00    +0.000 C 
ATOM     23  O   UNL     1       0.845  12.377  19.219  0.00  0.00    +0.000 OA
BRANCH  22  28
ATOM     24  C   UNL     1      -5.457  11.301  18.004  0.00  0.00    +0.000 C 
ATOM     25  C   UNL     1      -3.970  11.338  18.197  0.00  0.00    +0.000 A 
ATOM     26  C   UNL     1      -3.128  10.579  17.379  0.00  0.00    +0.000 A 
ATOM     27  C   UNL     1      -1.749  10.589  17.585  0.00  0.00    +0.000 A 
ATOM     28  C   UNL     1      -1.193  11.345  18.628  0.00  0.00    +0.000 A 
ATOM     29  C   UNL     1      -2.028  12.135  19.424  0.00  0.00    +0.000 A 
ATOM     30  C   UNL     1      -3.410  12.124  19.214  0.00  0.00    +0.000 A 
ENDBRANCH  22  28
ENDBRANCH   1  22
TORSDOF 6
ENDMDL
MODEL 8
REMARK VINA RESULT:      -7.5      1.159      1.805
REMARK  Name = 
REMARK  7 active torsions:
REMARK  status: ('A' for Active; 'I' for Inactive)
REMARK    1  A    between atoms: C_1  and  C_2
REMARK    2  A    between atoms: C_5  and  C_6
REMARK    3  A    between atoms: C_6  and  C_8
REMARK    4  A    between atoms: N_11  and  C_12
REMARK    5  A    between atoms: C_15  and  S_16
REMARK    6  A    between atoms: S_16  and  N_17
REMARK    7  A    between atoms: C_22  and  C_23
REMARK                            x       y       z     vdW  Elec       q    Type
REMARK                         _______ _______ _______ _____ _____    ______ ____
ROOT
ATOM      1  C   UNL     1       1.112   9.932  18.657  0.00  0.00    +0.000 A 
ATOM      2  N   UNL     1       1.827   9.624  17.532  0.00  0.00    +0.000 NA
ATOM      3  N   UNL     1       2.452   8.478  17.740  0.00  0.00    +0.000 NA
ATOM      4  N   UNL     1       2.052   7.979  18.935  0.00  0.00    +0.000 N 
ATOM      5  C   UNL     1       1.264   8.912  19.576  0.00  0.00    +0.000 A 
ENDROOT
BRANCH   4   6
ATOM      6  C   UNL     1       2.532   6.720  19.372  0.00  0.00    +0.000 A 
ATOM      7  C   UNL     1       1.743   5.947  20.241  0.00  0.00    +0.000 A 
ATOM      8  C   UNL     1       2.122   4.636  20.543  0.00  0.00    +0.000 A 
ATOM      9  C   UNL     1       3.297   4.116  19.994  0.00  0.00    +0.000 A 
ATOM     10  C   UNL     1       4.140   4.917  19.221  0.00  0.00    +0.000 A 
ATOM     11  C   UNL     1       3.759   6.223  18.919  0.00  0.00    +0.000 A 
BRANCH   9  12
ATOM     12  S   UNL     1       3.735   2.427  20.272  0.00  0.00    +0.000 S 
ATOM     13  O   UNL     1       3.027   1.590  19.330  0.00  0.00    +0.000 OA
ATOM     14  O   UNL     1       5.163   2.334  20.480  0.00  0.00    +0.000 OA
BRANCH  12  15
ATOM     15  N   UNL     1       3.027   2.149  21.768  0.00  0.00    +0.000 NA
ATOM     16  H   UNL     1       3.588   2.571  22.510  0.00  0.00    +0.000 HD
ATOM     17  H   UNL     1       2.054   2.456  21.759  0.00  0.00    +0.000 HD
ENDBRANCH  12  15
ENDBRANCH   9  12
ENDBRANCH   4   6
BRANCH   5  18
ATOM     18  C   UNL     1       0.906   8.845  20.993  0.00  0.00    +0.000 C 
ATOM     19  F   UNL     1       1.951   8.532  21.794  0.00  0.00    +0.000 F 
ATOM     20  F   UNL     1       0.391  10.009  21.454  0.00  0.00    +0.000 F 
ATOM     21  F   UNL     1      -0.023   7.880  21.220  0.00  0.00    +0.000 F 
ENDBRANCH   5  18
BRANCH   1  22
ATOM     22  C   UNL     1       0.392  11.186  18.820  0.00  0.00    +0.000 C 
ATOM     23  O   UNL     1       0.955  12.216  19.175  0.00  0.00    +0.000 OA
BRANCH  22  28
ATOM     24  C   UNL     1      -5.339  11.160  17.921  0.00  0.00    +0.000 C 
ATOM     25  C   UNL     1      -3.851  11.189  18.113  0.00  0.00    +0.000 A 
ATOM     26  C   UNL     1      -3.025  10.326  17.389  0.00  0.00    +0.000 A 
ATOM     27  C   UNL     1      -1.646  10.332  17.596  0.00  0.00    +0.000 A 
ATOM     28  C   UNL     1      -1.074  11.189  18.548  0.00  0.00    +0.000 A 
ATOM     29  C   UNL     1      -1.894  12.081  19.247  0.00  0.00    +0.000 A 
ATOM     30  C   UNL     1      -3.276  12.074  19.036  0.00  0.00    +0.000 A 
ENDBRANCH  22  28
ENDBRANCH   1  22
TORSDOF 6
ENDMDL
MODEL 9
REMARK VINA RESULT:      -7.5      0.743      1.554
REMARK  Name = 
REMARK  7 active torsions:
REMARK  status: ('A' for Active; 'I' for Inactive)
REMARK    1  A    between atoms: C_1  and  C_2
REMARK    2  A    between atoms: C_5  and  C_6
REMARK    3  A    between atoms: C_6  and  C_8
REMARK    4  A    between atoms: N_11  and  C_12
REMARK    5  A    between atoms: C_15  and  S_16
REMARK    6  A    between atoms: S_16  and  N_17
REMARK    7  A    between atoms: C_22  and  C_23
REMARK                            x       y       z     vdW  Elec       q    Type
REMARK                         _______ _______ _______ _____ _____    ______ ____
ROOT
ATOM      1  C   UNL     1       1.416   9.977  18.726  0.00  0.00    +0.000 A 
ATOM      2  N   UNL     1       2.132   9.826  17.570  0.00  0.00    +0.000 NA
ATOM      3  N   UNL     1       2.621   8.598  17.544  0.00  0.00    +0.000 NA
ATOM      4  N   UNL     1       2.125   7.915  18.604  0.00  0.00    +0.000 N 
ATOM      5  C   UNL     1       1.422   8.780  19.415  0.00  0.00    +0.000 A 
ENDROOT
BRANCH   4   6
ATOM      6  C   UNL     1       2.449   6.546  18.776  0.00  0.00    +0.000 A 
ATOM      7  C   UNL     1       1.591   5.565  18.250  0.00  0.00    +0.000 A 
ATOM      8  C   UNL     1       1.981   4.223  18.261  0.00  0.00    +0.000 A 
ATOM      9  C   UNL     1       3.212   3.869  18.818  0.00  0.00    +0.000 A 
ATOM     10  C   UNL     1       4.016   4.825  19.442  0.00  0.00    +0.000 A 
ATOM     11  C   UNL     1       3.627   6.163  19.428  0.00  0.00    +0.000 A 
BRANCH   9  12
ATOM     12  S   UNL     1       3.772   2.195  18.741  0.00  0.00    +0.000 S 
ATOM     13  O   UNL     1       4.143   1.879  17.380  0.00  0.00    +0.000 OA
ATOM     14  O   UNL     1       4.639   1.931  19.868  0.00  0.00    +0.000 OA
BRANCH  12  15
ATOM     15  N   UNL     1       2.348   1.360  19.041  0.00  0.00    +0.000 NA
ATOM     16  H   UNL     1       2.249   0.580  18.389  0.00  0.00    +0.000 HD
ATOM     17  H   UNL     1       2.300   1.087  20.023  0.00  0.00    +0.000 HD
ENDBRANCH  12  15
ENDBRANCH   9  12
ENDBRANCH   4   6
BRANCH   5  18
ATOM     18  C   UNL     1       1.009   8.466  20.783  0.00  0.00    +0.000 C 
ATOM     19  F   UNL     1       1.095   7.149  21.079  0.00  0.00    +0.000 F 
ATOM     20  F   UNL     1       1.739   9.127  21.711  0.00  0.00    +0.000 F 
ATOM     21  F   UNL     1      -0.293   8.796  20.991  0.00  0.00    +0.000 F 
ENDBRANCH   5  18
BRANCH   1  22
ATOM     22  C   UNL     1       0.832  11.245  19.136  0.00  0.00    +0.000 C 
ATOM     23  O   UNL     1       1.513  12.154  19.600  0.00  0.00    +0.000 OA
BRANCH  22  28
ATOM     24  C   UNL     1      -4.921  11.857  18.705  0.00  0.00    +0.000 C 
ATOM     25  C   UNL     1      -3.428  11.725  18.779  0.00  0.00    +0.000 A 
ATOM     26  C   UNL     1      -2.747  10.876  17.903  0.00  0.00    +0.000 A 
ATOM     27  C   UNL     1      -1.363  10.729  17.997  0.00  0.00    +0.000 A 
ATOM     28  C   UNL     1      -0.642  11.417  18.985  0.00  0.00    +0.000 A 
ATOM     29  C   UNL     1      -1.316  12.296  19.839  0.00  0.00    +0.000 A 
ATOM     30  C   UNL     1      -2.703  12.442  19.740  0.00  0.00    +0.000 A 
ENDBRANCH  22  28
ENDBRANCH   1  22
TORSDOF 6
ENDMDL
