MODEL 1
REMARK VINA RESULT:      -8.1      0.000      0.000
REMARK  Name = 
REMARK  9 active torsions:
REMARK  status: ('A' for Active; 'I' for Inactive)
REMARK    1  A    between atoms: C_1  and  C_2
REMARK    2  A    between atoms: C_6  and  C_7
REMARK    3  A    between atoms: P_11  and  O_13
REMARK    4  A    between atoms: O_13  and  C_14
REMARK    5  A    between atoms: C_14  and  C_15
REMARK    6  A    between atoms: C_17  and  N_18
REMARK    7  A    between atoms: C_28  and  C_29
REMARK    8  A    between atoms: C_28  and  O_30
REMARK    9  A    between atoms: C_31  and  O_32
REMARK                            x       y       z     vdW  Elec       q    Type
REMARK                         _______ _______ _______ _____ _____    ______ ____
ROOT
ATOM      1  C   UNL     1       2.046   8.447  20.562  0.00  0.00    +0.000 C 
ATOM      2  O   UNL     1       1.303   9.456  19.823  0.00  0.00    +0.000 OA
ATOM      3  C   UNL     1       0.532  10.233  20.766  0.00  0.00    +0.000 C 
ATOM      4  C   UNL     1       0.333   9.356  22.018  0.00  0.00    +0.000 C 
ATOM      5  C   UNL     1      -0.843   8.384  21.967  0.00  0.00    +0.000 C 
ATOM      6  C   UNL     1       1.689   8.636  22.041  0.00  0.00    +0.000 C 
ENDROOT
BRANCH   3   7
ATOM      7  N   UNL     1      -0.657  10.781  20.151  0.00  0.00    +0.000 N 
ATOM      8  C   UNL     1      -1.231  10.490  18.943  0.00  0.00    +0.000 A 
ATOM      9  N   UNL     1      -2.320  11.208  18.732  0.00  0.00    +0.000 NA
ATOM     10  C   UNL     1      -2.448  12.011  19.854  0.00  0.00    +0.000 A 
ATOM     11  C   UNL     1      -3.378  12.989  20.254  0.00  0.00    +0.000 A 
ATOM     12  N   UNL     1      -4.486  13.379  19.511  0.00  0.00    +0.000 N 
ATOM     13  N   UNL     1      -3.190  13.618  21.437  0.00  0.00    +0.000 NA
ATOM     14  C   UNL     1      -2.114  13.279  22.179  0.00  0.00    +0.000 A 
ATOM     15  N   UNL     1      -1.161  12.384  21.898  0.00  0.00    +0.000 NA
ATOM     16  C   UNL     1      -1.403  11.773  20.730  0.00  0.00    +0.000 A 
ATOM     17  H   UNL     1      -4.360  13.268  18.512  0.00  0.00    +0.000 HD
ATOM     18  H   UNL     1      -4.837  14.271  19.839  0.00  0.00    +0.000 HD
ENDBRANCH   3   7
BRANCH   4  19
ATOM     19  O   UNL     1       0.166  10.127  23.214  0.00  0.00    +0.000 OA
ATOM     20  H   UNL     1      -0.199  10.994  22.943  0.00  0.00    +0.000 HD
ENDBRANCH   4  19
BRANCH   6  21
ATOM     21  O   UNL     1       2.633   9.534  22.679  0.00  0.00    +0.000 OA
ATOM     22  H   UNL     1       2.983  10.165  22.022  0.00  0.00    +0.000 HD
ENDBRANCH   6  21
BRANCH   1  23
ATOM     23  C   UNL     1       1.706   7.091  19.943  0.00  0.00    +0.000 C 
BRANCH  23  24
ATOM     24  O   UNL     1       1.436   6.071  20.885  0.00  0.00    +0.000 OA
BRANCH  24  29
ATOM     25  C   UNL     1       4.008   3.925  19.060  0.00  0.00    +0.000 C 
ATOM     26  C   UNL     1       3.133   2.707  18.773  0.00  0.00    +0.000 C 
ATOM     27  C   UNL     1       1.682   3.059  18.461  0.00  0.00    +0.000 C 
ATOM     28  O   UNL     1       1.218   4.204  19.160  0.00  0.00    +0.000 OA
ATOM     29  P   UNL     1       1.959   4.577  20.538  0.00  0.00    +0.000 P 
ATOM     30  O   UNL     1       1.801   3.563  21.622  0.00  0.00    +0.000 OA
ATOM     31  O   UNL     1       3.469   4.802  20.040  0.00  0.00    +0.000 OA
BRANCH  25  37
ATOM     32  C   UNL     1       5.923   4.205  14.411  0.00  0.00    +0.000 C 
ATOM     33  C   UNL     1       5.322   4.869  15.607  0.00  0.00    +0.000 A 
ATOM     34  C   UNL     1       5.243   6.251  15.710  0.00  0.00    +0.000 A 
ATOM     35  N   UNL     1       4.715   6.893  16.773  0.00  0.00    +0.000 NA
ATOM     36  C   UNL     1       4.287   6.118  17.791  0.00  0.00    +0.000 A 
ATOM     37  C   UNL     1       4.369   4.730  17.832  0.00  0.00    +0.000 A 
ATOM     38  C   UNL     1       4.856   4.104  16.681  0.00  0.00    +0.000 A 
ENDBRANCH  25  37
ENDBRANCH  24  29
ENDBRANCH  23  24
ENDBRANCH   1  23
TORSDOF 7
ENDMDL
MODEL 2
REMARK VINA RESULT:      -7.9      1.419      2.238
REMARK  Name = 
REMARK  9 active torsions:
REMARK  status: ('A' for Active; 'I' for Inactive)
REMARK    1  A    between atoms: C_1  and  C_2
REMARK    2  A    between atoms: C_6  and  C_7
REMARK    3  A    between atoms: P_11  and  O_13
REMARK    4  A    between atoms: O_13  and  C_14
REMARK    5  A    between atoms: C_14  and  C_15
REMARK    6  A    between atoms: C_17  and  N_18
REMARK    7  A    between atoms: C_28  and  C_29
REMARK    8  A    between atoms: C_28  and  O_30
REMARK    9  A    between atoms: C_31  and  O_32
REMARK                            x       y       z     vdW  Elec       q    Type
REMARK                         _______ _______ _______ _____ _____    ______ ____
ROOT
ATOM      1  C   UNL     1       1.955   8.758  20.572  0.00  0.00    +0.000 C 
ATOM      2  O   UNL     1       1.224   9.868  19.981  0.00  0.00    +0.000 OA
ATOM      3  C   UNL     1       0.443  10.501  21.019  0.00  0.00    +0.000 C 
ATOM      4  C   UNL     1       0.225   9.449  22.124  0.00  0.00    +0.000 C 
ATOM      5  C   UNL     1      -0.953   8.501  21.915  0.00  0.00    +0.000 C 
ATOM      6  C   UNL     1       1.578   8.727  22.058  0.00  0.00    +0.000 C 
ENDROOT
BRANCH   3   7
ATOM      7  N   UNL     1      -0.737  11.139  20.477  0.00  0.00    +0.000 N 
ATOM      8  C   UNL     1      -1.557  12.081  21.036  0.00  0.00    +0.000 A 
ATOM      9  N   UNL     1      -2.541  12.419  20.221  0.00  0.00    +0.000 NA
ATOM     10  C   UNL     1      -2.353  11.648  19.086  0.00  0.00    +0.000 A 
ATOM     11  C   UNL     1      -3.041  11.526  17.863  0.00  0.00    +0.000 A 
ATOM     12  N   UNL     1      -4.176  12.250  17.518  0.00  0.00    +0.000 N 
ATOM     13  N   UNL     1      -2.590  10.634  16.951  0.00  0.00    +0.000 NA
ATOM     14  C   UNL     1      -1.501   9.899  17.259  0.00  0.00    +0.000 A 
ATOM     15  N   UNL     1      -0.779   9.915  18.384  0.00  0.00    +0.000 NA
ATOM     16  C   UNL     1      -1.250  10.828  19.246  0.00  0.00    +0.000 A 
ATOM     17  H   UNL     1      -4.735  12.528  18.315  0.00  0.00    +0.000 HD
ATOM     18  H   UNL     1      -4.658  11.806  16.745  0.00  0.00    +0.000 HD
ENDBRANCH   3   7
BRANCH   4  19
ATOM     19  O   UNL     1       0.044  10.036  23.420  0.00  0.00    +0.000 OA
ATOM     20  H   UNL     1       0.806   9.755  23.966  0.00  0.00    +0.000 HD
ENDBRANCH   4  19
BRANCH   6  21
ATOM     21  O   UNL     1       2.516   9.517  22.834  0.00  0.00    +0.000 OA
ATOM     22  H   UNL     1       2.225   9.556  23.764  0.00  0.00    +0.000 HD
ENDBRANCH   6  21
BRANCH   1  23
ATOM     23  C   UNL     1       1.619   7.511  19.755  0.00  0.00    +0.000 C 
BRANCH  23  24
ATOM     24  O   UNL     1       2.704   6.991  19.009  0.00  0.00    +0.000 OA
BRANCH  24  29
ATOM     25  C   UNL     1       5.023   4.082  18.164  0.00  0.00    +0.000 C 
ATOM     26  C   UNL     1       3.970   2.991  17.984  0.00  0.00    +0.000 C 
ATOM     27  C   UNL     1       2.676   3.490  17.351  0.00  0.00    +0.000 C 
ATOM     28  O   UNL     1       2.358   4.829  17.701  0.00  0.00    +0.000 OA
ATOM     29  P   UNL     1       2.961   5.393  19.081  0.00  0.00    +0.000 P 
ATOM     30  O   UNL     1       2.456   4.706  20.306  0.00  0.00    +0.000 OA
ATOM     31  O   UNL     1       4.540   5.243  18.826  0.00  0.00    +0.000 OA
BRANCH  25  37
ATOM     32  C   UNL     1       5.712   3.573  13.202  0.00  0.00    +0.000 C 
ATOM     33  C   UNL     1       6.058   4.232  14.497  0.00  0.00    +0.000 A 
ATOM     34  C   UNL     1       7.129   5.110  14.606  0.00  0.00    +0.000 A 
ATOM     35  N   UNL     1       7.481   5.721  15.754  0.00  0.00    +0.000 NA
ATOM     36  C   UNL     1       6.756   5.409  16.848  0.00  0.00    +0.000 A 
ATOM     37  C   UNL     1       5.703   4.502  16.880  0.00  0.00    +0.000 A 
ATOM     38  C   UNL     1       5.327   3.947  15.654  0.00  0.00    +0.000 A 
ENDBRANCH  25  37
ENDBRANCH  24  29
ENDBRANCH  23  24
ENDBRANCH   1  23
TORSDOF 7
ENDMDL
MODEL 3
REMARK VINA RESULT:      -7.9      0.939      1.931
REMARK  Name = 
REMARK  9 active torsions:
REMARK  status: ('A' for Active; 'I' for Inactive)
REMARK    1  A    between atoms: C_1  and  C_2
REMARK    2  A    between atoms: C_6  and  C_7
REMARK    3  A    between atoms: P_11  and  O_13
REMARK    4  A    between atoms: O_13  and  C_14
REMARK    5  A    between atoms: C_14  and  C_15
REMARK    6  A    between atoms: C_17  and  N_18
REMARK    7  A    between atoms: C_28  and  C_29
REMARK    8  A    between atoms: C_28  and  O_30
REMARK    9  A    between atoms: C_31  and  O_32
REMARK                            x       y       z     vdW  Elec       q    Type
REMARK                         _______ _______ _______ _____ _____    ______ ____
ROOT
ATOM      1  C   UNL     1       1.991   8.480  20.680  0.00  0.00    +0.000 C 
ATOM      2  O   UNL     1       1.300   9.540  19.962  0.00  0.00    +0.000 OA
ATOM      3  C   UNL     1       0.569  10.336  20.922  0.00  0.00    +0.000 C 
ATOM      4  C   UNL     1       0.325   9.444  22.155  0.00  0.00    +0.000 C 
ATOM      5  C   UNL     1      -0.898   8.534  22.084  0.00  0.00    +0.000 C 
ATOM      6  C   UNL     1       1.643   8.656  22.163  0.00  0.00    +0.000 C 
ENDROOT
BRANCH   3   7
ATOM      7  N   UNL     1      -0.591  10.955  20.319  0.00  0.00    +0.000 N 
ATOM      8  C   UNL     1      -1.444  11.897  20.827  0.00  0.00    +0.000 A 
ATOM      9  N   UNL     1      -2.394  12.215  19.965  0.00  0.00    +0.000 NA
ATOM     10  C   UNL     1      -2.148  11.430  18.850  0.00  0.00    +0.000 A 
ATOM     11  C   UNL     1      -2.780  11.285  17.600  0.00  0.00    +0.000 A 
ATOM     12  N   UNL     1      -3.905  11.994  17.194  0.00  0.00    +0.000 N 
ATOM     13  N   UNL     1      -2.281  10.385  16.722  0.00  0.00    +0.000 NA
ATOM     14  C   UNL     1      -1.200   9.664  17.088  0.00  0.00    +0.000 A 
ATOM     15  N   UNL     1      -0.529   9.703  18.244  0.00  0.00    +0.000 NA
ATOM     16  C   UNL     1      -1.047  10.623  19.070  0.00  0.00    +0.000 A 
ATOM     17  H   UNL     1      -4.501  12.278  17.963  0.00  0.00    +0.000 HD
ATOM     18  H   UNL     1      -4.348  11.535  16.408  0.00  0.00    +0.000 HD
ENDBRANCH   3   7
BRANCH   4  19
ATOM     19  O   UNL     1       0.196  10.198  23.367  0.00  0.00    +0.000 OA
ATOM     20  H   UNL     1       1.076  10.196  23.796  0.00  0.00    +0.000 HD
ENDBRANCH   4  19
BRANCH   6  21
ATOM     21  O   UNL     1       2.630   9.493  22.819  0.00  0.00    +0.000 OA
ATOM     22  H   UNL     1       2.535   9.418  23.787  0.00  0.00    +0.000 HD
ENDBRANCH   6  21
BRANCH   1  23
ATOM     23  C   UNL     1       1.583   7.157  20.033  0.00  0.00    +0.000 C 
BRANCH  23  24
ATOM     24  O   UNL     1       1.336   6.109  20.952  0.00  0.00    +0.000 OA
BRANCH  24  29
ATOM     25  C   UNL     1       3.940   4.044  19.078  0.00  0.00    +0.000 C 
ATOM     26  C   UNL     1       3.077   2.828  18.748  0.00  0.00    +0.000 C 
ATOM     27  C   UNL     1       1.625   3.176  18.438  0.00  0.00    +0.000 C 
ATOM     28  O   UNL     1       1.147   4.295  19.169  0.00  0.00    +0.000 OA
ATOM     29  P   UNL     1       1.875   4.632  20.562  0.00  0.00    +0.000 P 
ATOM     30  O   UNL     1       1.720   3.583  21.613  0.00  0.00    +0.000 OA
ATOM     31  O   UNL     1       3.387   4.886  20.081  0.00  0.00    +0.000 OA
BRANCH  25  37
ATOM     32  C   UNL     1       5.981   4.507  14.498  0.00  0.00    +0.000 C 
ATOM     33  C   UNL     1       5.314   5.118  15.687  0.00  0.00    +0.000 A 
ATOM     34  C   UNL     1       5.169   6.493  15.815  0.00  0.00    +0.000 A 
ATOM     35  N   UNL     1       4.580   7.088  16.873  0.00  0.00    +0.000 NA
ATOM     36  C   UNL     1       4.157   6.273  17.862  0.00  0.00    +0.000 A 
ATOM     37  C   UNL     1       4.301   4.890  17.878  0.00  0.00    +0.000 A 
ATOM     38  C   UNL     1       4.851   4.311  16.731  0.00  0.00    +0.000 A 
ENDBRANCH  25  37
ENDBRANCH  24  29
ENDBRANCH  23  24
ENDBRANCH   1  23
TORSDOF 7
ENDMDL
MODEL 4
REMARK VINA RESULT:      -7.8      1.376      1.541
REMARK  Name = 
REMARK  9 active torsions:
REMARK  status: ('A' for Active; 'I' for Inactive)
REMARK    1  A    between atoms: C_1  and  C_2
REMARK    2  A    between atoms: C_6  and  C_7
REMARK    3  A    between atoms: P_11  and  O_13
REMARK    4  A    between atoms: O_13  and  C_14
REMARK    5  A    between atoms: C_14  and  C_15
REMARK    6  A    between atoms: C_17  and  N_18
REMARK    7  A    between atoms: C_28  and  C_29
REMARK    8  A    between atoms: C_28  and  O_30
REMARK    9  A    between atoms: C_31  and  O_32
REMARK                            x       y       z     vdW  Elec       q    Type
REMARK                         _______ _______ _______ _____ _____    ______ ____
ROOT
ATOM      1  C   UNL     1       1.937   9.138  20.584  0.00  0.00    +0.000 C 
ATOM      2  O   UNL     1       1.172  10.317  20.208  0.00  0.00    +0.000 OA
ATOM      3  C   UNL     1       0.392  10.735  21.350  0.00  0.00    +0.000 C 
ATOM      4  C   UNL     1       0.215   9.498  22.253  0.00  0.00    +0.000 C 
ATOM      5  C   UNL     1      -0.944   8.573  21.891  0.00  0.00    +0.000 C 
ATOM      6  C   UNL     1       1.583   8.835  22.045  0.00  0.00    +0.000 C 
ENDROOT
BRANCH   3   7
ATOM      7  N   UNL     1      -0.810  11.429  20.943  0.00  0.00    +0.000 N 
ATOM      8  C   UNL     1      -1.475  11.399  19.747  0.00  0.00    +0.000 A 
ATOM      9  N   UNL     1      -2.543  12.178  19.761  0.00  0.00    +0.000 NA
ATOM     10  C   UNL     1      -2.560  12.749  21.023  0.00  0.00    +0.000 A 
ATOM     11  C   UNL     1      -3.417  13.657  21.672  0.00  0.00    +0.000 A 
ATOM     12  N   UNL     1      -4.553  14.220  21.103  0.00  0.00    +0.000 N 
ATOM     13  N   UNL     1      -3.122  14.036  22.938  0.00  0.00    +0.000 NA
ATOM     14  C   UNL     1      -2.015  13.525  23.518  0.00  0.00    +0.000 A 
ATOM     15  N   UNL     1      -1.125  12.673  23.000  0.00  0.00    +0.000 NA
ATOM     16  C   UNL     1      -1.471  12.312  21.756  0.00  0.00    +0.000 A 
ATOM     17  H   UNL     1      -4.499  14.304  20.095  0.00  0.00    +0.000 HD
ATOM     18  H   UNL     1      -4.841  15.040  21.622  0.00  0.00    +0.000 HD
ENDBRANCH   3   7
BRANCH   4  19
ATOM     19  O   UNL     1       0.040   9.841  23.634  0.00  0.00    +0.000 OA
ATOM     20  H   UNL     1       0.255   9.040  24.154  0.00  0.00    +0.000 HD
ENDBRANCH   4  19
BRANCH   6  21
ATOM     21  O   UNL     1       2.514   9.498  22.939  0.00  0.00    +0.000 OA
ATOM     22  H   UNL     1       2.692   8.929  23.711  0.00  0.00    +0.000 HD
ENDBRANCH   6  21
BRANCH   1  23
ATOM     23  C   UNL     1       1.617   8.047  19.562  0.00  0.00    +0.000 C 
BRANCH  23  24
ATOM     24  O   UNL     1       2.755   7.448  18.971  0.00  0.00    +0.000 OA
BRANCH  24  29
ATOM     25  C   UNL     1       4.919   4.377  18.314  0.00  0.00    +0.000 C 
ATOM     26  C   UNL     1       3.810   3.335  18.184  0.00  0.00    +0.000 C 
ATOM     27  C   UNL     1       2.550   3.867  17.509  0.00  0.00    +0.000 C 
ATOM     28  O   UNL     1       2.303   5.238  17.781  0.00  0.00    +0.000 OA
ATOM     29  P   UNL     1       2.924   5.845  19.134  0.00  0.00    +0.000 P 
ATOM     30  O   UNL     1       2.373   5.256  20.390  0.00  0.00    +0.000 OA
ATOM     31  O   UNL     1       4.494   5.597  18.906  0.00  0.00    +0.000 OA
BRANCH  25  37
ATOM     32  C   UNL     1       5.609   3.565  13.393  0.00  0.00    +0.000 C 
ATOM     33  C   UNL     1       5.985   4.270  14.655  0.00  0.00    +0.000 A 
ATOM     34  C   UNL     1       7.106   5.087  14.727  0.00  0.00    +0.000 A 
ATOM     35  N   UNL     1       7.487   5.737  15.846  0.00  0.00    +0.000 NA
ATOM     36  C   UNL     1       6.737   5.527  16.948  0.00  0.00    +0.000 A 
ATOM     37  C   UNL     1       5.631   4.686  17.017  0.00  0.00    +0.000 A 
ATOM     38  C   UNL     1       5.231   4.090  15.818  0.00  0.00    +0.000 A 
ENDBRANCH  25  37
ENDBRANCH  24  29
ENDBRANCH  23  24
ENDBRANCH   1  23
TORSDOF 7
ENDMDL
MODEL 5
REMARK VINA RESULT:      -7.7      1.850      2.340
REMARK  Name = 
REMARK  9 active torsions:
REMARK  status: ('A' for Active; 'I' for Inactive)
REMARK    1  A    between atoms: C_1  and  C_2
REMARK    2  A    between atoms: C_6  and  C_7
REMARK    3  A    between atoms: P_11  and  O_13
REMARK    4  A    between atoms: O_13  and  C_14
REMARK    5  A    between atoms: C_14  and  C_15
REMARK    6  A    between atoms: C_17  and  N_18
REMARK    7  A    between atoms: C_28  and  C_29
REMARK    8  A    between atoms: C_28  and  O_30
REMARK    9  A    between atoms: C_31  and  O_32
REMARK                            x       y       z     vdW  Elec       q    Type
REMARK                         _______ _______ _______ _____ _____    ______ ____
ROOT
ATOM      1  C   UNL     1       1.612   9.812  19.191  0.00  0.00    +0.000 C 
ATOM      2  O   UNL     1       0.538  10.274  18.326  0.00  0.00    +0.000 OA
ATOM      3  C   UNL     1      -0.516  10.809  19.157  0.00  0.00    +0.000 C 
ATOM      4  C   UNL     1      -0.368  10.160  20.547  0.00  0.00    +0.000 C 
ATOM      5  C   UNL     1      -1.028   8.794  20.715  0.00  0.00    +0.000 C 
ATOM      6  C   UNL     1       1.163  10.087  20.631  0.00  0.00    +0.000 C 
ENDROOT
BRANCH   3   7
ATOM      7  N   UNL     1      -1.806  10.696  18.512  0.00  0.00    +0.000 N 
ATOM      8  C   UNL     1      -2.189   9.920  17.452  0.00  0.00    +0.000 A 
ATOM      9  N   UNL     1      -3.464  10.097  17.150  0.00  0.00    +0.000 NA
ATOM     10  C   UNL     1      -3.922  11.042  18.053  0.00  0.00    +0.000 A 
ATOM     11  C   UNL     1      -5.167  11.662  18.270  0.00  0.00    +0.000 A 
ATOM     12  N   UNL     1      -6.318  11.407  17.533  0.00  0.00    +0.000 N 
ATOM     13  N   UNL     1      -5.269  12.587  19.252  0.00  0.00    +0.000 NA
ATOM     14  C   UNL     1      -4.168  12.875  19.977  0.00  0.00    +0.000 A 
ATOM     15  N   UNL     1      -2.937  12.368  19.855  0.00  0.00    +0.000 NA
ATOM     16  C   UNL     1      -2.892  11.442  18.886  0.00  0.00    +0.000 A 
ATOM     17  H   UNL     1      -6.130  11.108  16.583  0.00  0.00    +0.000 HD
ATOM     18  H   UNL     1      -6.993  12.150  17.661  0.00  0.00    +0.000 HD
ENDBRANCH   3   7
BRANCH   4  19
ATOM     19  O   UNL     1      -0.879  10.986  21.601  0.00  0.00    +0.000 OA
ATOM     20  H   UNL     1      -0.360  11.815  21.588  0.00  0.00    +0.000 HD
ENDBRANCH   4  19
BRANCH   6  21
ATOM     21  O   UNL     1       1.624  11.393  21.064  0.00  0.00    +0.000 OA
ATOM     22  H   UNL     1       1.753  11.971  20.289  0.00  0.00    +0.000 HD
ENDBRANCH   6  21
BRANCH   1  23
ATOM     23  C   UNL     1       1.889   8.353  18.827  0.00  0.00    +0.000 C 
BRANCH  23  24
ATOM     24  O   UNL     1       2.364   7.563  19.901  0.00  0.00    +0.000 OA
BRANCH  24  29
ATOM     25  C   UNL     1       4.233   4.334  19.106  0.00  0.00    +0.000 C 
ATOM     26  C   UNL     1       3.081   3.547  18.485  0.00  0.00    +0.000 C 
ATOM     27  C   UNL     1       2.125   4.408  17.667  0.00  0.00    +0.000 C 
ATOM     28  O   UNL     1       1.983   5.727  18.172  0.00  0.00    +0.000 OA
ATOM     29  P   UNL     1       2.286   5.953  19.735  0.00  0.00    +0.000 P 
ATOM     30  O   UNL     1       1.348   5.248  20.658  0.00  0.00    +0.000 OA
ATOM     31  O   UNL     1       3.817   5.479  19.838  0.00  0.00    +0.000 OA
BRANCH  25  37
ATOM     32  C   UNL     1       7.689   7.635  17.520  0.00  0.00    +0.000 C 
ATOM     33  C   UNL     1       6.940   6.355  17.338  0.00  0.00    +0.000 A 
ATOM     34  C   UNL     1       7.059   5.599  16.179  0.00  0.00    +0.000 A 
ATOM     35  N   UNL     1       6.398   4.443  15.969  0.00  0.00    +0.000 NA
ATOM     36  C   UNL     1       5.551   4.049  16.944  0.00  0.00    +0.000 A 
ATOM     37  C   UNL     1       5.301   4.749  18.119  0.00  0.00    +0.000 A 
ATOM     38  C   UNL     1       6.060   5.903  18.326  0.00  0.00    +0.000 A 
ENDBRANCH  25  37
ENDBRANCH  24  29
ENDBRANCH  23  24
ENDBRANCH   1  23
TORSDOF 7
ENDMDL
MODEL 6
REMARK VINA RESULT:      -7.7      1.721      2.102
REMARK  Name = 
REMARK  9 active torsions:
REMARK  status: ('A' for Active; 'I' for Inactive)
REMARK    1  A    between atoms: C_1  and  C_2
REMARK    2  A    between atoms: C_6  and  C_7
REMARK    3  A    between atoms: P_11  and  O_13
REMARK    4  A    between atoms: O_13  and  C_14
REMARK    5  A    between atoms: C_14  and  C_15
REMARK    6  A    between atoms: C_17  and  N_18
REMARK    7  A    between atoms: C_28  and  C_29
REMARK    8  A    between atoms: C_28  and  O_30
REMARK    9  A    between atoms: C_31  and  O_32
REMARK                            x       y       z     vdW  Elec       q    Type
REMARK                         _______ _______ _______ _____ _____    ______ ____
ROOT
ATOM      1  C   UNL     1       1.567   9.935  19.058  0.00  0.00    +0.000 C 
ATOM      2  O   UNL     1       0.452  10.357  18.224  0.00  0.00    +0.000 OA
ATOM      3  C   UNL     1      -0.580  10.891  19.082  0.00  0.00    +0.000 C 
ATOM      4  C   UNL     1      -0.367  10.276  20.480  0.00  0.00    +0.000 C 
ATOM      5  C   UNL     1      -0.993   8.902  20.703  0.00  0.00    +0.000 C 
ATOM      6  C   UNL     1       1.167  10.234  20.508  0.00  0.00    +0.000 C 
ENDROOT
BRANCH   3   7
ATOM      7  N   UNL     1      -1.891  10.738  18.489  0.00  0.00    +0.000 N 
ATOM      8  C   UNL     1      -2.298   9.930  17.463  0.00  0.00    +0.000 A 
ATOM      9  N   UNL     1      -3.586  10.076  17.205  0.00  0.00    +0.000 NA
ATOM     10  C   UNL     1      -4.028  11.035  18.101  0.00  0.00    +0.000 A 
ATOM     11  C   UNL     1      -5.276  11.638  18.349  0.00  0.00    +0.000 A 
ATOM     12  N   UNL     1      -6.448  11.344  17.662  0.00  0.00    +0.000 N 
ATOM     13  N   UNL     1      -5.359  12.585  19.312  0.00  0.00    +0.000 NA
ATOM     14  C   UNL     1      -4.237  12.911  19.988  0.00  0.00    +0.000 A 
ATOM     15  N   UNL     1      -3.002  12.423  19.832  0.00  0.00    +0.000 NA
ATOM     16  C   UNL     1      -2.976  11.474  18.885  0.00  0.00    +0.000 A 
ATOM     17  H   UNL     1      -6.290  11.025  16.714  0.00  0.00    +0.000 HD
ATOM     18  H   UNL     1      -7.132  12.078  17.798  0.00  0.00    +0.000 HD
ENDBRANCH   3   7
BRANCH   4  19
ATOM     19  O   UNL     1      -0.855  11.116  21.534  0.00  0.00    +0.000 OA
ATOM     20  H   UNL     1      -0.112  11.250  22.157  0.00  0.00    +0.000 HD
ENDBRANCH   4  19
BRANCH   6  21
ATOM     21  O   UNL     1       1.618  11.558  20.894  0.00  0.00    +0.000 OA
ATOM     22  H   UNL     1       1.227  12.226  20.300  0.00  0.00    +0.000 HD
ENDBRANCH   6  21
BRANCH   1  23
ATOM     23  C   UNL     1       1.859   8.473  18.717  0.00  0.00    +0.000 C 
BRANCH  23  24
ATOM     24  O   UNL     1       2.446   7.733  19.770  0.00  0.00    +0.000 OA
BRANCH  24  29
ATOM     25  C   UNL     1       4.287   4.554  18.742  0.00  0.00    +0.000 C 
ATOM     26  C   UNL     1       3.080   3.705  18.347  0.00  0.00    +0.000 C 
ATOM     27  C   UNL     1       1.962   4.504  17.686  0.00  0.00    +0.000 C 
ATOM     28  O   UNL     1       1.853   5.832  18.177  0.00  0.00    +0.000 OA
ATOM     29  P   UNL     1       2.409   6.117  19.658  0.00  0.00    +0.000 P 
ATOM     30  O   UNL     1       1.674   5.406  20.746  0.00  0.00    +0.000 OA
ATOM     31  O   UNL     1       3.954   5.704  19.508  0.00  0.00    +0.000 OA
BRANCH  25  37
ATOM     32  C   UNL     1       5.984   3.835  14.057  0.00  0.00    +0.000 C 
ATOM     33  C   UNL     1       5.993   4.610  15.333  0.00  0.00    +0.000 A 
ATOM     34  C   UNL     1       6.915   5.623  15.565  0.00  0.00    +0.000 A 
ATOM     35  N   UNL     1       6.965   6.344  16.703  0.00  0.00    +0.000 NA
ATOM     36  C   UNL     1       6.080   6.009  17.665  0.00  0.00    +0.000 A 
ATOM     37  C   UNL     1       5.152   4.978  17.577  0.00  0.00    +0.000 A 
ATOM     38  C   UNL     1       5.088   4.305  16.354  0.00  0.00    +0.000 A 
ENDBRANCH  25  37
ENDBRANCH  24  29
ENDBRANCH  23  24
ENDBRANCH   1  23
TORSDOF 7
ENDMDL
MODEL 7
REMARK VINA RESULT:      -7.6      2.047      3.014
REMARK  Name = 
REMARK  9 active torsions:
REMARK  status: ('A' for Active; 'I' for Inactive)
REMARK    1  A    between atoms: C_1  and  C_2
REMARK    2  A    between atoms: C_6  and  C_7
REMARK    3  A    between atoms: P_11  and  O_13
REMARK    4  A    between atoms: O_13  and  C_14
REMARK    5  A    between atoms: C_14  and  C_15
REMARK    6  A    between atoms: C_17  and  N_18
REMARK    7  A    between atoms: C_28  and  C_29
REMARK    8  A    between atoms: C_28  and  O_30
REMARK    9  A    between atoms: C_31  and  O_32
REMARK                            x       y       z     vdW  Elec       q    Type
REMARK                         _______ _______ _______ _____ _____    ______ ____
ROOT
ATOM      1  C   UNL     1       1.315   9.448  18.398  0.00  0.00    +0.000 C 
ATOM      2  O   UNL     1      -0.095   9.780  18.268  0.00  0.00    +0.000 OA
ATOM      3  C   UNL     1      -0.230  11.217  18.331  0.00  0.00    +0.000 C 
ATOM      4  C   UNL     1       1.006  11.755  19.078  0.00  0.00    +0.000 C 
ATOM      5  C   UNL     1       0.914  11.752  20.602  0.00  0.00    +0.000 C 
ATOM      6  C   UNL     1       2.065  10.777  18.552  0.00  0.00    +0.000 C 
ENDROOT
BRANCH   3   7
ATOM      7  N   UNL     1      -1.528  11.604  18.843  0.00  0.00    +0.000 N 
ATOM      8  C   UNL     1      -1.880  12.047  20.089  0.00  0.00    +0.000 A 
ATOM      9  N   UNL     1      -3.175  12.300  20.171  0.00  0.00    +0.000 NA
ATOM     10  C   UNL     1      -3.684  11.992  18.920  0.00  0.00    +0.000 A 
ATOM     11  C   UNL     1      -4.972  12.036  18.353  0.00  0.00    +0.000 A 
ATOM     12  N   UNL     1      -6.117  12.455  19.019  0.00  0.00    +0.000 N 
ATOM     13  N   UNL     1      -5.130  11.631  17.071  0.00  0.00    +0.000 NA
ATOM     14  C   UNL     1      -4.043  11.199  16.397  0.00  0.00    +0.000 A 
ATOM     15  N   UNL     1      -2.783  11.099  16.831  0.00  0.00    +0.000 NA
ATOM     16  C   UNL     1      -2.673  11.531  18.096  0.00  0.00    +0.000 A 
ATOM     17  H   UNL     1      -6.078  12.305  20.020  0.00  0.00    +0.000 HD
ATOM     18  H   UNL     1      -6.946  12.137  18.533  0.00  0.00    +0.000 HD
ENDBRANCH   3   7
BRANCH   4  19
ATOM     19  O   UNL     1       1.343  13.095  18.698  0.00  0.00    +0.000 OA
ATOM     20  H   UNL     1       2.026  13.405  19.329  0.00  0.00    +0.000 HD
ENDBRANCH   4  19
BRANCH   6  21
ATOM     21  O   UNL     1       2.489  11.271  17.256  0.00  0.00    +0.000 OA
ATOM     22  H   UNL     1       1.779  11.135  16.602  0.00  0.00    +0.000 HD
ENDBRANCH   6  21
BRANCH   1  23
ATOM     23  C   UNL     1       1.441   8.453  19.551  0.00  0.00    +0.000 C 
BRANCH  23  24
ATOM     24  O   UNL     1       2.628   7.683  19.531  0.00  0.00    +0.000 OA
BRANCH  24  29
ATOM     25  C   UNL     1       4.279   4.317  18.826  0.00  0.00    +0.000 C 
ATOM     26  C   UNL     1       3.040   3.538  18.389  0.00  0.00    +0.000 C 
ATOM     27  C   UNL     1       2.039   4.376  17.601  0.00  0.00    +0.000 C 
ATOM     28  O   UNL     1       2.001   5.736  18.007  0.00  0.00    +0.000 OA
ATOM     29  P   UNL     1       2.471   6.070  19.508  0.00  0.00    +0.000 P 
ATOM     30  O   UNL     1       1.605   5.485  20.575  0.00  0.00    +0.000 OA
ATOM     31  O   UNL     1       3.984   5.534  19.498  0.00  0.00    +0.000 OA
BRANCH  25  37
ATOM     32  C   UNL     1       5.705   3.822  14.023  0.00  0.00    +0.000 C 
ATOM     33  C   UNL     1       5.958   4.334  15.403  0.00  0.00    +0.000 A 
ATOM     34  C   UNL     1       7.166   4.922  15.753  0.00  0.00    +0.000 A 
ATOM     35  N   UNL     1       7.441   5.392  16.986  0.00  0.00    +0.000 NA
ATOM     36  C   UNL     1       6.479   5.228  17.919  0.00  0.00    +0.000 A 
ATOM     37  C   UNL     1       5.256   4.602  17.708  0.00  0.00    +0.000 A 
ATOM     38  C   UNL     1       4.986   4.195  16.398  0.00  0.00    +0.000 A 
ENDBRANCH  25  37
ENDBRANCH  24  29
ENDBRANCH  23  24
ENDBRANCH   1  23
TORSDOF 7
ENDMDL
MODEL 8
REMARK VINA RESULT:      -7.6      1.121      1.408
REMARK  Name = 
REMARK  9 active torsions:
REMARK  status: ('A' for Active; 'I' for Inactive)
REMARK    1  A    between atoms: C_1  and  C_2
REMARK    2  A    between atoms: C_6  and  C_7
REMARK    3  A    between atoms: P_11  and  O_13
REMARK    4  A    between atoms: O_13  and  C_14
REMARK    5  A    between atoms: C_14  and  C_15
REMARK    6  A    between atoms: C_17  and  N_18
REMARK    7  A    between atoms: C_28  and  C_29
REMARK    8  A    between atoms: C_28  and  O_30
REMARK    9  A    between atoms: C_31  and  O_32
REMARK                            x       y       z     vdW  Elec       q    Type
REMARK                         _______ _______ _______ _____ _____    ______ ____
ROOT
ATOM      1  C   UNL     1       1.963   8.507  20.610  0.00  0.00    +0.000 C 
ATOM      2  O   UNL     1       1.238   9.544  19.891  0.00  0.00    +0.000 OA
ATOM      3  C   UNL     1       0.495  10.327  20.851  0.00  0.00    +0.000 C 
ATOM      4  C   UNL     1       0.284   9.438  22.092  0.00  0.00    +0.000 C 
ATOM      5  C   UNL     1      -0.916   8.496  22.038  0.00  0.00    +0.000 C 
ATOM      6  C   UNL     1       1.622   8.685  22.095  0.00  0.00    +0.000 C 
ENDROOT
BRANCH   3   7
ATOM      7  N   UNL     1      -0.686  10.912  20.253  0.00  0.00    +0.000 N 
ATOM      8  C   UNL     1      -1.275  10.653  19.045  0.00  0.00    +0.000 A 
ATOM      9  N   UNL     1      -2.349  11.400  18.853  0.00  0.00    +0.000 NA
ATOM     10  C   UNL     1      -2.449  12.188  19.988  0.00  0.00    +0.000 A 
ATOM     11  C   UNL     1      -3.353  13.182  20.409  0.00  0.00    +0.000 A 
ATOM     12  N   UNL     1      -4.457  13.609  19.680  0.00  0.00    +0.000 N 
ATOM     13  N   UNL     1      -3.142  13.788  21.601  0.00  0.00    +0.000 NA
ATOM     14  C   UNL     1      -2.069  13.413  22.329  0.00  0.00    +0.000 A 
ATOM     15  N   UNL     1      -1.140  12.500  22.028  0.00  0.00    +0.000 NA
ATOM     16  C   UNL     1      -1.404  11.913  20.852  0.00  0.00    +0.000 A 
ATOM     17  H   UNL     1      -4.341  13.510  18.679  0.00  0.00    +0.000 HD
ATOM     18  H   UNL     1      -4.784  14.503  20.024  0.00  0.00    +0.000 HD
ENDBRANCH   3   7
BRANCH   4  19
ATOM     19  O   UNL     1       0.145  10.197  23.300  0.00  0.00    +0.000 OA
ATOM     20  H   UNL     1       0.005  11.129  23.034  0.00  0.00    +0.000 HD
ENDBRANCH   4  19
BRANCH   6  21
ATOM     21  O   UNL     1       2.592   9.551  22.736  0.00  0.00    +0.000 OA
ATOM     22  H   UNL     1       2.157  10.374  23.030  0.00  0.00    +0.000 HD
ENDBRANCH   6  21
BRANCH   1  23
ATOM     23  C   UNL     1       1.584   7.169  19.976  0.00  0.00    +0.000 C 
BRANCH  23  24
ATOM     24  O   UNL     1       2.009   6.035  20.708  0.00  0.00    +0.000 OA
BRANCH  24  29
ATOM     25  C   UNL     1       3.837   3.257  18.839  0.00  0.00    +0.000 C 
ATOM     26  C   UNL     1       2.686   2.772  17.960  0.00  0.00    +0.000 C 
ATOM     27  C   UNL     1       1.764   3.892  17.490  0.00  0.00    +0.000 C 
ATOM     28  O   UNL     1       1.635   4.947  18.432  0.00  0.00    +0.000 OA
ATOM     29  P   UNL     1       1.906   4.593  19.976  0.00  0.00    +0.000 P 
ATOM     30  O   UNL     1       0.934   3.628  20.572  0.00  0.00    +0.000 OA
ATOM     31  O   UNL     1       3.425   4.075  19.926  0.00  0.00    +0.000 OA
BRANCH  25  37
ATOM     32  C   UNL     1       7.826   6.330  18.764  0.00  0.00    +0.000 C 
ATOM     33  C   UNL     1       6.834   5.476  18.044  0.00  0.00    +0.000 A 
ATOM     34  C   UNL     1       6.765   5.451  16.657  0.00  0.00    +0.000 A 
ATOM     35  N   UNL     1       5.883   4.702  15.965  0.00  0.00    +0.000 NA
ATOM     36  C   UNL     1       5.006   3.980  16.694  0.00  0.00    +0.000 A 
ATOM     37  C   UNL     1       4.935   3.970  18.082  0.00  0.00    +0.000 A 
ATOM     38  C   UNL     1       5.913   4.704  18.758  0.00  0.00    +0.000 A 
ENDBRANCH  25  37
ENDBRANCH  24  29
ENDBRANCH  23  24
ENDBRANCH   1  23
TORSDOF 7
ENDMDL
MODEL 9
REMARK VINA RESULT:      -7.6      1.808      2.890
REMARK  Name = 
REMARK  9 active torsions:
REMARK  status: ('A' for Active; 'I' for Inactive)
REMARK    1  A    between atoms: C_1  and  C_2
REMARK    2  A    between atoms: C_6  and  C_7
REMARK    3  A    between atoms: P_11  and  O_13
REMARK    4  A    between atoms: O_13  and  C_14
REMARK    5  A    between atoms: C_14  and  C_15
REMARK    6  A    between atoms: C_17  and  N_18
REMARK    7  A    between atoms: C_28  and  C_29
REMARK    8  A    between atoms: C_28  and  O_30
REMARK    9  A    between atoms: C_31  and  O_32
REMARK                            x       y       z     vdW  Elec       q    Type
REMARK                         _______ _______ _______ _____ _____    ______ ____
ROOT
ATOM      1  C   UNL     1       0.472   8.871  19.275  0.00  0.00    +0.000 C 
ATOM      2  O   UNL     1      -0.377   9.278  20.385  0.00  0.00    +0.000 OA
ATOM      3  C   UNL     1      -0.878  10.605  20.109  0.00  0.00    +0.000 C 
ATOM      4  C   UNL     1       0.107  11.263  19.123  0.00  0.00    +0.000 C 
ATOM      5  C   UNL     1       1.327  11.932  19.751  0.00  0.00    +0.000 C 
ATOM      6  C   UNL     1       0.478  10.037  18.279  0.00  0.00    +0.000 C 
ENDROOT
BRANCH   3   7
ATOM      7  N   UNL     1      -1.165  11.324  21.332  0.00  0.00    +0.000 N 
ATOM      8  C   UNL     1      -0.655  11.150  22.589  0.00  0.00    +0.000 A 
ATOM      9  N   UNL     1      -1.170  12.011  23.451  0.00  0.00    +0.000 NA
ATOM     10  C   UNL     1      -2.065  12.769  22.714  0.00  0.00    +0.000 A 
ATOM     11  C   UNL     1      -2.927  13.837  23.026  0.00  0.00    +0.000 A 
ATOM     12  N   UNL     1      -3.057  14.408  24.286  0.00  0.00    +0.000 N 
ATOM     13  N   UNL     1      -3.707  14.349  22.044  0.00  0.00    +0.000 NA
ATOM     14  C   UNL     1      -3.622  13.807  20.811  0.00  0.00    +0.000 A 
ATOM     15  N   UNL     1      -2.858  12.789  20.402  0.00  0.00    +0.000 NA
ATOM     16  C   UNL     1      -2.090  12.332  21.401  0.00  0.00    +0.000 A 
ATOM     17  H   UNL     1      -2.856  13.765  25.042  0.00  0.00    +0.000 HD
ATOM     18  H   UNL     1      -3.916  14.942  24.346  0.00  0.00    +0.000 HD
ENDBRANCH   3   7
BRANCH   4  19
ATOM     19  O   UNL     1      -0.517  12.257  18.299  0.00  0.00    +0.000 OA
ATOM     20  H   UNL     1      -0.391  11.973  17.370  0.00  0.00    +0.000 HD
ENDBRANCH   4  19
BRANCH   6  21
ATOM     21  O   UNL     1      -0.574   9.867  17.295  0.00  0.00    +0.000 OA
ATOM     22  H   UNL     1      -0.679  10.688  16.779  0.00  0.00    +0.000 HD
ENDBRANCH   6  21
BRANCH   1  23
ATOM     23  C   UNL     1       1.823   8.468  19.865  0.00  0.00    +0.000 C 
BRANCH  23  24
ATOM     24  O   UNL     1       2.658   7.749  18.976  0.00  0.00    +0.000 OA
BRANCH  24  29
ATOM     25  C   UNL     1       4.738   4.590  18.480  0.00  0.00    +0.000 C 
ATOM     26  C   UNL     1       3.599   3.584  18.332  0.00  0.00    +0.000 C 
ATOM     27  C   UNL     1       2.385   4.140  17.596  0.00  0.00    +0.000 C 
ATOM     28  O   UNL     1       2.175   5.525  17.824  0.00  0.00    +0.000 OA
ATOM     29  P   UNL     1       2.766   6.146  19.185  0.00  0.00    +0.000 P 
ATOM     30  O   UNL     1       2.146   5.608  20.433  0.00  0.00    +0.000 OA
ATOM     31  O   UNL     1       4.334   5.840  19.025  0.00  0.00    +0.000 OA
BRANCH  25  37
ATOM     32  C   UNL     1       5.585   3.630  13.610  0.00  0.00    +0.000 C 
ATOM     33  C   UNL     1       5.938   4.354  14.869  0.00  0.00    +0.000 A 
ATOM     34  C   UNL     1       7.083   5.134  14.965  0.00  0.00    +0.000 A 
ATOM     35  N   UNL     1       7.444   5.798  16.081  0.00  0.00    +0.000 NA
ATOM     36  C   UNL     1       6.646   5.642  17.158  0.00  0.00    +0.000 A 
ATOM     37  C   UNL     1       5.510   4.843  17.204  0.00  0.00    +0.000 A 
ATOM     38  C   UNL     1       5.134   4.230  16.006  0.00  0.00    +0.000 A 
ENDBRANCH  25  37
ENDBRANCH  24  29
ENDBRANCH  23  24
ENDBRANCH   1  23
TORSDOF 7
ENDMDL
