MODEL 1
REMARK VINA RESULT:      -6.8      0.000      0.000
REMARK  Name = 
REMARK  9 active torsions:
REMARK  status: ('A' for Active; 'I' for Inactive)
REMARK    1  A    between atoms: C_1  and  C_2
REMARK    2  A    between atoms: C_2  and  N_3
REMARK    3  A    between atoms: N_6  and  C_7
REMARK    4  A    between atoms: C_13  and  C_14
REMARK    5  A    between atoms: C_15  and  C_16
REMARK    6  A    between atoms: C_16  and  C_17
REMARK    7  A    between atoms: C_17  and  C_18
REMARK    8  A    between atoms: C_18  and  O_20
REMARK    9  A    between atoms: C_24  and  C_25
REMARK                            x       y       z     vdW  Elec       q    Type
REMARK                         _______ _______ _______ _____ _____    ______ ____
ROOT
ATOM      1  C   UNL     1      -2.312  13.994  23.826  0.00  0.00    +0.000 A 
ATOM      2  C   UNL     1      -1.404  13.065  23.383  0.00  0.00    +0.000 A 
ATOM      3  N   UNL     1      -1.769  12.614  22.128  0.00  0.00    +0.000 N 
ATOM      4  C   UNL     1      -0.992  11.705  21.339  0.00  0.00    +0.000 A 
ATOM      5  N   UNL     1       0.107  11.183  21.914  0.00  0.00    +0.000 NA
ATOM      6  C   UNL     1       0.834  10.338  21.165  0.00  0.00    +0.000 A 
ATOM      7  C   UNL     1       0.531   9.996  19.862  0.00  0.00    +0.000 A 
ATOM      8  C   UNL     1       1.400   9.048  19.105  0.00  0.00    +0.000 C 
ATOM      9  C   UNL     1      -0.606  10.599  19.337  0.00  0.00    +0.000 A 
ATOM     10  N   UNL     1      -1.375  11.439  20.070  0.00  0.00    +0.000 NA
ATOM     11  C   UNL     1      -2.984  13.202  21.796  0.00  0.00    +0.000 A 
ATOM     12  C   UNL     1      -3.824  13.071  20.682  0.00  0.00    +0.000 A 
ATOM     13  C   UNL     1      -5.015  13.804  20.645  0.00  0.00    +0.000 A 
ATOM     14  C   UNL     1      -5.251  14.644  21.738  0.00  0.00    +0.000 A 
ATOM     15  N   UNL     1      -4.463  14.812  22.833  0.00  0.00    +0.000 NA
ATOM     16  C   UNL     1      -3.334  14.058  22.841  0.00  0.00    +0.000 A 
ENDROOT
BRANCH   1  20
ATOM     17  N   UNL     1      -1.360  16.156  26.566  0.00  0.00    +0.000 N 
ATOM     18  C   UNL     1      -1.185  15.530  25.346  0.00  0.00    +0.000 C 
ATOM     19  O   UNL     1      -0.188  15.732  24.659  0.00  0.00    +0.000 OA
ATOM     20  N   UNL     1      -2.251  14.724  25.009  0.00  0.00    +0.000 N 
ATOM     21  H   UNL     1      -1.802  15.583  27.272  0.00  0.00    +0.000 HD
ATOM     22  H   UNL     1      -3.134  14.875  25.478  0.00  0.00    +0.000 HD
BRANCH  17  24
ATOM     23  C   UNL     1      -0.717  18.519  26.933  0.00  0.00    +0.000 C 
ATOM     24  C   UNL     1      -0.308  17.062  26.994  0.00  0.00    +0.000 C 
ENDBRANCH  17  24
ENDBRANCH   1  20
BRANCH  13  25
ATOM     25  C   UNL     1      -5.950  13.674  19.506  0.00  0.00    +0.000 A 
ATOM     26  C   UNL     1      -6.473  14.781  18.825  0.00  0.00    +0.000 A 
ATOM     27  C   UNL     1      -7.335  14.607  17.740  0.00  0.00    +0.000 A 
ATOM     28  C   UNL     1      -7.653  13.319  17.349  0.00  0.00    +0.000 A 
ATOM     29  N   UNL     1      -7.183  12.221  17.966  0.00  0.00    +0.000 NA
ATOM     30  C   UNL     1      -6.358  12.424  19.023  0.00  0.00    +0.000 A 
ENDBRANCH  13  25
BRANCH   9  31
ATOM     31  C   UNL     1      -1.074  10.331  17.926  0.00  0.00    +0.000 C 
BRANCH  31  32
ATOM     32  C   UNL     1      -2.598  10.275  17.813  0.00  0.00    +0.000 C 
BRANCH  32  33
ATOM     33  C   UNL     1      -3.061  11.044  16.600  0.00  0.00    +0.000 C 
ATOM     34  O   UNL     1      -2.659  10.866  15.460  0.00  0.00    +0.000 OA
BRANCH  33  35
ATOM     35  O   UNL     1      -3.976  11.992  16.900  0.00  0.00    +0.000 OA
ATOM     36  H   UNL     1      -4.146  12.623  16.174  0.00  0.00    +0.000 HD
ENDBRANCH  33  35
ENDBRANCH  32  33
ENDBRANCH  31  32
ENDBRANCH   9  31
TORSDOF 7
ENDMDL
MODEL 2
REMARK VINA RESULT:      -6.7      2.891      7.101
REMARK  Name = 
REMARK  9 active torsions:
REMARK  status: ('A' for Active; 'I' for Inactive)
REMARK    1  A    between atoms: C_1  and  C_2
REMARK    2  A    between atoms: C_2  and  N_3
REMARK    3  A    between atoms: N_6  and  C_7
REMARK    4  A    between atoms: C_13  and  C_14
REMARK    5  A    between atoms: C_15  and  C_16
REMARK    6  A    between atoms: C_16  and  C_17
REMARK    7  A    between atoms: C_17  and  C_18
REMARK    8  A    between atoms: C_18  and  O_20
REMARK    9  A    between atoms: C_24  and  C_25
REMARK                            x       y       z     vdW  Elec       q    Type
REMARK                         _______ _______ _______ _____ _____    ______ ____
ROOT
ATOM      1  C   UNL     1       0.653  10.500  18.407  0.00  0.00    +0.000 A 
ATOM      2  C   UNL     1       1.049  11.513  19.244  0.00  0.00    +0.000 A 
ATOM      3  N   UNL     1      -0.058  12.215  19.687  0.00  0.00    +0.000 N 
ATOM      4  C   UNL     1      -0.010  13.280  20.643  0.00  0.00    +0.000 A 
ATOM      5  N   UNL     1       1.209  13.683  21.047  0.00  0.00    +0.000 NA
ATOM      6  C   UNL     1       1.246  14.676  21.950  0.00  0.00    +0.000 A 
ATOM      7  C   UNL     1       0.126  15.282  22.486  0.00  0.00    +0.000 A 
ATOM      8  C   UNL     1       0.264  16.380  23.487  0.00  0.00    +0.000 C 
ATOM      9  C   UNL     1      -1.091  14.789  22.033  0.00  0.00    +0.000 A 
ATOM     10  N   UNL     1      -1.167  13.804  21.107  0.00  0.00    +0.000 NA
ATOM     11  C   UNL     1      -1.179  11.695  19.050  0.00  0.00    +0.000 A 
ATOM     12  C   UNL     1      -2.536  12.048  19.087  0.00  0.00    +0.000 A 
ATOM     13  C   UNL     1      -3.443  11.324  18.306  0.00  0.00    +0.000 A 
ATOM     14  C   UNL     1      -2.904  10.268  17.562  0.00  0.00    +0.000 A 
ATOM     15  N   UNL     1      -1.602   9.883  17.503  0.00  0.00    +0.000 NA
ATOM     16  C   UNL     1      -0.753  10.632  18.252  0.00  0.00    +0.000 A 
ENDROOT
BRANCH   1  20
ATOM     17  N   UNL     1       2.765   7.648  17.707  0.00  0.00    +0.000 N 
ATOM     18  C   UNL     1       1.996   8.469  18.510  0.00  0.00    +0.000 C 
ATOM     19  O   UNL     1       1.805   8.211  19.695  0.00  0.00    +0.000 OA
ATOM     20  N   UNL     1       1.466   9.537  17.818  0.00  0.00    +0.000 N 
ATOM     21  H   UNL     1       3.329   8.136  17.026  0.00  0.00    +0.000 HD
ATOM     22  H   UNL     1       1.421   9.481  16.809  0.00  0.00    +0.000 HD
BRANCH  17  24
ATOM     23  C   UNL     1       2.617   5.189  17.958  0.00  0.00    +0.000 C 
ATOM     24  C   UNL     1       3.336   6.468  18.334  0.00  0.00    +0.000 C 
ENDBRANCH  17  24
ENDBRANCH   1  20
BRANCH  13  25
ATOM     25  C   UNL     1      -4.878  11.680  18.287  0.00  0.00    +0.000 A 
ATOM     26  C   UNL     1      -5.722  11.485  19.387  0.00  0.00    +0.000 A 
ATOM     27  C   UNL     1      -7.066  11.858  19.328  0.00  0.00    +0.000 A 
ATOM     28  C   UNL     1      -7.543  12.430  18.162  0.00  0.00    +0.000 A 
ATOM     29  N   UNL     1      -6.780  12.637  17.075  0.00  0.00    +0.000 NA
ATOM     30  C   UNL     1      -5.482  12.254  17.160  0.00  0.00    +0.000 A 
ENDBRANCH  13  25
BRANCH   9  31
ATOM     31  C   UNL     1      -2.410  15.344  22.520  0.00  0.00    +0.000 C 
BRANCH  31  32
ATOM     32  C   UNL     1      -3.576  14.384  22.281  0.00  0.00    +0.000 C 
BRANCH  32  33
ATOM     33  C   UNL     1      -3.798  13.519  23.498  0.00  0.00    +0.000 C 
ATOM     34  O   UNL     1      -4.227  12.375  23.477  0.00  0.00    +0.000 OA
BRANCH  33  35
ATOM     35  O   UNL     1      -3.488  14.150  24.652  0.00  0.00    +0.000 OA
ATOM     36  H   UNL     1      -2.531  14.304  24.775  0.00  0.00    +0.000 HD
ENDBRANCH  33  35
ENDBRANCH  32  33
ENDBRANCH  31  32
ENDBRANCH   9  31
TORSDOF 7
ENDMDL
MODEL 3
REMARK VINA RESULT:      -6.7      2.935      7.182
REMARK  Name = 
REMARK  9 active torsions:
REMARK  status: ('A' for Active; 'I' for Inactive)
REMARK    1  A    between atoms: C_1  and  C_2
REMARK    2  A    between atoms: C_2  and  N_3
REMARK    3  A    between atoms: N_6  and  C_7
REMARK    4  A    between atoms: C_13  and  C_14
REMARK    5  A    between atoms: C_15  and  C_16
REMARK    6  A    between atoms: C_16  and  C_17
REMARK    7  A    between atoms: C_17  and  C_18
REMARK    8  A    between atoms: C_18  and  O_20
REMARK    9  A    between atoms: C_24  and  C_25
REMARK                            x       y       z     vdW  Elec       q    Type
REMARK                         _______ _______ _______ _____ _____    ______ ____
ROOT
ATOM      1  C   UNL     1       0.671  10.675  18.476  0.00  0.00    +0.000 A 
ATOM      2  C   UNL     1       1.104  11.701  19.279  0.00  0.00    +0.000 A 
ATOM      3  N   UNL     1       0.019  12.422  19.745  0.00  0.00    +0.000 N 
ATOM      4  C   UNL     1       0.109  13.504  20.678  0.00  0.00    +0.000 A 
ATOM      5  N   UNL     1       1.344  13.904  21.032  0.00  0.00    +0.000 NA
ATOM      6  C   UNL     1       1.420  14.914  21.913  0.00  0.00    +0.000 A 
ATOM      7  C   UNL     1       0.325  15.540  22.475  0.00  0.00    +0.000 A 
ATOM      8  C   UNL     1       0.506  16.656  23.449  0.00  0.00    +0.000 C 
ATOM      9  C   UNL     1      -0.911  15.050  22.074  0.00  0.00    +0.000 A 
ATOM     10  N   UNL     1      -1.027  14.048  21.170  0.00  0.00    +0.000 NA
ATOM     11  C   UNL     1      -1.128  11.899  19.157  0.00  0.00    +0.000 A 
ATOM     12  C   UNL     1      -2.479  12.266  19.234  0.00  0.00    +0.000 A 
ATOM     13  C   UNL     1      -3.418  11.535  18.498  0.00  0.00    +0.000 A 
ATOM     14  C   UNL     1      -2.915  10.460  17.757  0.00  0.00    +0.000 A 
ATOM     15  N   UNL     1      -1.618  10.062  17.661  0.00  0.00    +0.000 NA
ATOM     16  C   UNL     1      -0.739  10.818  18.367  0.00  0.00    +0.000 A 
ENDROOT
BRANCH   1  20
ATOM     17  N   UNL     1       2.674   7.753  17.745  0.00  0.00    +0.000 N 
ATOM     18  C   UNL     1       1.923   8.586  18.553  0.00  0.00    +0.000 C 
ATOM     19  O   UNL     1       1.694   8.305  19.726  0.00  0.00    +0.000 OA
ATOM     20  N   UNL     1       1.456   9.693  17.879  0.00  0.00    +0.000 N 
ATOM     21  H   UNL     1       3.275   8.234  17.090  0.00  0.00    +0.000 HD
ATOM     22  H   UNL     1       1.432   9.666  16.868  0.00  0.00    +0.000 HD
BRANCH  17  24
ATOM     23  C   UNL     1       2.349   5.313  18.012  0.00  0.00    +0.000 C 
ATOM     24  C   UNL     1       3.179   6.533  18.351  0.00  0.00    +0.000 C 
ENDBRANCH  17  24
ENDBRANCH   1  20
BRANCH  13  25
ATOM     25  C   UNL     1      -4.851  11.903  18.520  0.00  0.00    +0.000 A 
ATOM     26  C   UNL     1      -5.576  12.200  17.359  0.00  0.00    +0.000 A 
ATOM     27  C   UNL     1      -6.932  12.521  17.429  0.00  0.00    +0.000 A 
ATOM     28  C   UNL     1      -7.545  12.532  18.669  0.00  0.00    +0.000 A 
ATOM     29  N   UNL     1      -6.900  12.259  19.816  0.00  0.00    +0.000 NA
ATOM     30  C   UNL     1      -5.580  11.962  19.715  0.00  0.00    +0.000 A 
ENDBRANCH  13  25
BRANCH   9  31
ATOM     31  C   UNL     1      -2.207  15.626  22.594  0.00  0.00    +0.000 C 
BRANCH  31  32
ATOM     32  C   UNL     1      -3.268  14.554  22.847  0.00  0.00    +0.000 C 
BRANCH  32  33
ATOM     33  C   UNL     1      -3.568  14.454  24.323  0.00  0.00    +0.000 C 
ATOM     34  O   UNL     1      -2.820  14.816  25.218  0.00  0.00    +0.000 OA
BRANCH  33  35
ATOM     35  O   UNL     1      -4.771  13.891  24.574  0.00  0.00    +0.000 OA
ATOM     36  H   UNL     1      -5.173  13.452  23.800  0.00  0.00    +0.000 HD
ENDBRANCH  33  35
ENDBRANCH  32  33
ENDBRANCH  31  32
ENDBRANCH   9  31
TORSDOF 7
ENDMDL
MODEL 4
REMARK VINA RESULT:      -6.6      2.953      6.956
REMARK  Name = 
REMARK  9 active torsions:
REMARK  status: ('A' for Active; 'I' for Inactive)
REMARK    1  A    between atoms: C_1  and  C_2
REMARK    2  A    between atoms: C_2  and  N_3
REMARK    3  A    between atoms: N_6  and  C_7
REMARK    4  A    between atoms: C_13  and  C_14
REMARK    5  A    between atoms: C_15  and  C_16
REMARK    6  A    between atoms: C_16  and  C_17
REMARK    7  A    between atoms: C_17  and  C_18
REMARK    8  A    between atoms: C_18  and  O_20
REMARK    9  A    between atoms: C_24  and  C_25
REMARK                            x       y       z     vdW  Elec       q    Type
REMARK                         _______ _______ _______ _____ _____    ______ ____
ROOT
ATOM      1  C   UNL     1       0.654  10.573  18.450  0.00  0.00    +0.000 A 
ATOM      2  C   UNL     1       1.107  11.603  19.237  0.00  0.00    +0.000 A 
ATOM      3  N   UNL     1       0.036  12.351  19.694  0.00  0.00    +0.000 N 
ATOM      4  C   UNL     1       0.149  13.446  20.610  0.00  0.00    +0.000 A 
ATOM      5  N   UNL     1       1.392  13.828  20.956  0.00  0.00    +0.000 NA
ATOM      6  C   UNL     1       1.488  14.849  21.821  0.00  0.00    +0.000 A 
ATOM      7  C   UNL     1       0.406  15.504  22.375  0.00  0.00    +0.000 A 
ATOM      8  C   UNL     1       0.610  16.632  23.332  0.00  0.00    +0.000 C 
ATOM      9  C   UNL     1      -0.840  15.032  21.983  0.00  0.00    +0.000 A 
ATOM     10  N   UNL     1      -0.976  14.018  21.096  0.00  0.00    +0.000 NA
ATOM     11  C   UNL     1      -1.121  11.841  19.116  0.00  0.00    +0.000 A 
ATOM     12  C   UNL     1      -2.465  12.234  19.189  0.00  0.00    +0.000 A 
ATOM     13  C   UNL     1      -3.419  11.509  18.466  0.00  0.00    +0.000 A 
ATOM     14  C   UNL     1      -2.937  10.414  17.741  0.00  0.00    +0.000 A 
ATOM     15  N   UNL     1      -1.649   9.990  17.649  0.00  0.00    +0.000 NA
ATOM     16  C   UNL     1      -0.753  10.740  18.341  0.00  0.00    +0.000 A 
ENDROOT
BRANCH   1  20
ATOM     17  N   UNL     1       2.661   7.640  17.776  0.00  0.00    +0.000 N 
ATOM     18  C   UNL     1       1.944   8.510  18.576  0.00  0.00    +0.000 C 
ATOM     19  O   UNL     1       1.790   8.298  19.776  0.00  0.00    +0.000 OA
ATOM     20  N   UNL     1       1.419   9.568  17.867  0.00  0.00    +0.000 N 
ATOM     21  H   UNL     1       3.213   8.089  17.058  0.00  0.00    +0.000 HD
ATOM     22  H   UNL     1       1.335   9.479  16.863  0.00  0.00    +0.000 HD
BRANCH  17  24
ATOM     23  C   UNL     1       2.667   5.166  17.881  0.00  0.00    +0.000 C 
ATOM     24  C   UNL     1       3.222   6.467  18.423  0.00  0.00    +0.000 C 
ENDBRANCH  17  24
ENDBRANCH   1  20
BRANCH  13  25
ATOM     25  C   UNL     1      -4.844  11.905  18.486  0.00  0.00    +0.000 A 
ATOM     26  C   UNL     1      -5.566  12.195  17.321  0.00  0.00    +0.000 A 
ATOM     27  C   UNL     1      -6.917  12.542  17.389  0.00  0.00    +0.000 A 
ATOM     28  C   UNL     1      -7.527  12.585  18.630  0.00  0.00    +0.000 A 
ATOM     29  N   UNL     1      -6.883  12.319  19.780  0.00  0.00    +0.000 NA
ATOM     30  C   UNL     1      -5.570  11.996  19.681  0.00  0.00    +0.000 A 
ENDBRANCH  13  25
BRANCH   9  31
ATOM     31  C   UNL     1      -2.124  15.639  22.498  0.00  0.00    +0.000 C 
BRANCH  31  32
ATOM     32  C   UNL     1      -3.253  14.615  22.619  0.00  0.00    +0.000 C 
BRANCH  32  33
ATOM     33  C   UNL     1      -4.352  14.929  21.633  0.00  0.00    +0.000 C 
ATOM     34  O   UNL     1      -5.546  14.926  21.889  0.00  0.00    +0.000 OA
BRANCH  33  35
ATOM     35  O   UNL     1      -3.881  15.206  20.397  0.00  0.00    +0.000 OA
ATOM     36  H   UNL     1      -3.187  15.893  20.381  0.00  0.00    +0.000 HD
ENDBRANCH  33  35
ENDBRANCH  32  33
ENDBRANCH  31  32
ENDBRANCH   9  31
TORSDOF 7
ENDMDL
MODEL 5
REMARK VINA RESULT:      -6.5      3.147      7.353
REMARK  Name = 
REMARK  9 active torsions:
REMARK  status: ('A' for Active; 'I' for Inactive)
REMARK    1  A    between atoms: C_1  and  C_2
REMARK    2  A    between atoms: C_2  and  N_3
REMARK    3  A    between atoms: N_6  and  C_7
REMARK    4  A    between atoms: C_13  and  C_14
REMARK    5  A    between atoms: C_15  and  C_16
REMARK    6  A    between atoms: C_16  and  C_17
REMARK    7  A    between atoms: C_17  and  C_18
REMARK    8  A    between atoms: C_18  and  O_20
REMARK    9  A    between atoms: C_24  and  C_25
REMARK                            x       y       z     vdW  Elec       q    Type
REMARK                         _______ _______ _______ _____ _____    ______ ____
ROOT
ATOM      1  C   UNL     1       1.124  10.187  18.299  0.00  0.00    +0.000 A 
ATOM      2  C   UNL     1       1.655  11.271  18.953  0.00  0.00    +0.000 A 
ATOM      3  N   UNL     1       0.641  12.126  19.344  0.00  0.00    +0.000 N 
ATOM      4  C   UNL     1       0.839  13.309  20.127  0.00  0.00    +0.000 A 
ATOM      5  N   UNL     1       2.110  13.655  20.399  0.00  0.00    +0.000 NA
ATOM      6  C   UNL     1       2.287  14.761  21.140  0.00  0.00    +0.000 A 
ATOM      7  C   UNL     1       1.258  15.536  21.638  0.00  0.00    +0.000 A 
ATOM      8  C   UNL     1       1.550  16.750  22.455  0.00  0.00    +0.000 C 
ATOM      9  C   UNL     1      -0.023  15.094  21.331  0.00  0.00    +0.000 A 
ATOM     10  N   UNL     1      -0.239  13.996  20.568  0.00  0.00    +0.000 NA
ATOM     11  C   UNL     1      -0.559  11.622  18.854  0.00  0.00    +0.000 A 
ATOM     12  C   UNL     1      -1.877  12.097  18.911  0.00  0.00    +0.000 A 
ATOM     13  C   UNL     1      -2.889  11.352  18.297  0.00  0.00    +0.000 A 
ATOM     14  C   UNL     1      -2.488  10.156  17.692  0.00  0.00    +0.000 A 
ATOM     15  N   UNL     1      -1.228   9.651  17.621  0.00  0.00    +0.000 NA
ATOM     16  C   UNL     1      -0.274  10.421  18.203  0.00  0.00    +0.000 A 
ENDROOT
BRANCH   1  20
ATOM     17  N   UNL     1       2.869   7.042  17.908  0.00  0.00    +0.000 N 
ATOM     18  C   UNL     1       2.201   8.024  18.615  0.00  0.00    +0.000 C 
ATOM     19  O   UNL     1       1.967   7.902  19.814  0.00  0.00    +0.000 OA
ATOM     20  N   UNL     1       1.816   9.080  17.818  0.00  0.00    +0.000 N 
ATOM     21  H   UNL     1       3.497   7.391  17.197  0.00  0.00    +0.000 HD
ATOM     22  H   UNL     1       1.775   8.937  16.818  0.00  0.00    +0.000 HD
BRANCH  17  24
ATOM     23  C   UNL     1       4.731   5.494  18.425  0.00  0.00    +0.000 C 
ATOM     24  C   UNL     1       3.280   5.864  18.651  0.00  0.00    +0.000 C 
ENDBRANCH  17  24
ENDBRANCH   1  20
BRANCH  13  25
ATOM     25  C   UNL     1      -4.289  11.828  18.302  0.00  0.00    +0.000 A 
ATOM     26  C   UNL     1      -5.074  11.887  17.144  0.00  0.00    +0.000 A 
ATOM     27  C   UNL     1      -6.399  12.324  17.203  0.00  0.00    +0.000 A 
ATOM     28  C   UNL     1      -6.920  12.688  18.432  0.00  0.00    +0.000 A 
ATOM     29  N   UNL     1      -6.214  12.654  19.575  0.00  0.00    +0.000 NA
ATOM     30  C   UNL     1      -4.927  12.236  19.481  0.00  0.00    +0.000 A 
ENDBRANCH  13  25
BRANCH   9  31
ATOM     31  C   UNL     1      -1.257  15.829  21.801  0.00  0.00    +0.000 C 
BRANCH  31  32
ATOM     32  C   UNL     1      -2.154  14.965  22.687  0.00  0.00    +0.000 C 
BRANCH  32  33
ATOM     33  C   UNL     1      -1.339  14.313  23.777  0.00  0.00    +0.000 C 
ATOM     34  O   UNL     1      -0.876  14.891  24.749  0.00  0.00    +0.000 OA
BRANCH  33  35
ATOM     35  O   UNL     1      -1.146  12.993  23.566  0.00  0.00    +0.000 OA
ATOM     36  H   UNL     1      -1.442  12.684  22.688  0.00  0.00    +0.000 HD
ENDBRANCH  33  35
ENDBRANCH  32  33
ENDBRANCH  31  32
ENDBRANCH   9  31
TORSDOF 7
ENDMDL
MODEL 6
REMARK VINA RESULT:      -6.5      1.605      5.514
REMARK  Name = 
REMARK  9 active torsions:
REMARK  status: ('A' for Active; 'I' for Inactive)
REMARK    1  A    between atoms: C_1  and  C_2
REMARK    2  A    between atoms: C_2  and  N_3
REMARK    3  A    between atoms: N_6  and  C_7
REMARK    4  A    between atoms: C_13  and  C_14
REMARK    5  A    between atoms: C_15  and  C_16
REMARK    6  A    between atoms: C_16  and  C_17
REMARK    7  A    between atoms: C_17  and  C_18
REMARK    8  A    between atoms: C_18  and  O_20
REMARK    9  A    between atoms: C_24  and  C_25
REMARK                            x       y       z     vdW  Elec       q    Type
REMARK                         _______ _______ _______ _____ _____    ______ ____
ROOT
ATOM      1  C   UNL     1      -2.284  13.481  23.118  0.00  0.00    +0.000 A 
ATOM      2  C   UNL     1      -3.323  13.722  22.254  0.00  0.00    +0.000 A 
ATOM      3  N   UNL     1      -3.189  12.933  21.126  0.00  0.00    +0.000 N 
ATOM      4  C   UNL     1      -4.149  12.871  20.065  0.00  0.00    +0.000 A 
ATOM      5  N   UNL     1      -5.190  13.721  20.133  0.00  0.00    +0.000 NA
ATOM      6  C   UNL     1      -6.089  13.652  19.139  0.00  0.00    +0.000 A 
ATOM      7  C   UNL     1      -6.014  12.766  18.082  0.00  0.00    +0.000 A 
ATOM      8  C   UNL     1      -7.064  12.760  17.021  0.00  0.00    +0.000 C 
ATOM      9  C   UNL     1      -4.922  11.907  18.102  0.00  0.00    +0.000 A 
ATOM     10  N   UNL     1      -3.984  11.964  19.077  0.00  0.00    +0.000 NA
ATOM     11  C   UNL     1      -1.992  12.235  21.230  0.00  0.00    +0.000 A 
ATOM     12  C   UNL     1      -1.342  11.340  20.368  0.00  0.00    +0.000 A 
ATOM     13  C   UNL     1      -0.112  10.800  20.759  0.00  0.00    +0.000 A 
ATOM     14  C   UNL     1       0.355  11.189  22.019  0.00  0.00    +0.000 A 
ATOM     15  N   UNL     1      -0.244  12.042  22.892  0.00  0.00    +0.000 NA
ATOM     16  C   UNL     1      -1.419  12.566  22.458  0.00  0.00    +0.000 A 
ENDROOT
BRANCH   1  20
ATOM     17  N   UNL     1      -1.324  15.502  25.960  0.00  0.00    +0.000 N 
ATOM     18  C   UNL     1      -1.343  15.150  24.623  0.00  0.00    +0.000 C 
ATOM     19  O   UNL     1      -0.760  15.820  23.776  0.00  0.00    +0.000 OA
ATOM     20  N   UNL     1      -2.106  14.027  24.384  0.00  0.00    +0.000 N 
ATOM     21  H   UNL     1      -1.283  14.720  26.599  0.00  0.00    +0.000 HD
ATOM     22  H   UNL     1      -2.784  13.750  25.082  0.00  0.00    +0.000 HD
BRANCH  17  24
ATOM     23  C   UNL     1      -0.046  16.674  27.728  0.00  0.00    +0.000 C 
ATOM     24  C   UNL     1      -0.580  16.699  26.311  0.00  0.00    +0.000 C 
ENDBRANCH  17  24
ENDBRANCH   1  20
BRANCH  13  25
ATOM     25  C   UNL     1       0.628   9.878  19.870  0.00  0.00    +0.000 A 
ATOM     26  C   UNL     1       0.776  10.106  18.496  0.00  0.00    +0.000 A 
ATOM     27  C   UNL     1       1.503   9.218  17.701  0.00  0.00    +0.000 A 
ATOM     28  C   UNL     1       2.079   8.113  18.302  0.00  0.00    +0.000 A 
ATOM     29  N   UNL     1       1.968   7.842  19.614  0.00  0.00    +0.000 NA
ATOM     30  C   UNL     1       1.246   8.719  20.356  0.00  0.00    +0.000 A 
ENDBRANCH  13  25
BRANCH   9  31
ATOM     31  C   UNL     1      -4.694  10.878  17.020  0.00  0.00    +0.000 C 
BRANCH  31  32
ATOM     32  C   UNL     1      -3.849  11.417  15.865  0.00  0.00    +0.000 C 
BRANCH  32  33
ATOM     33  C   UNL     1      -2.978  10.322  15.299  0.00  0.00    +0.000 C 
ATOM     34  O   UNL     1      -2.431   9.449  15.957  0.00  0.00    +0.000 OA
BRANCH  33  35
ATOM     35  O   UNL     1      -2.836  10.407  13.958  0.00  0.00    +0.000 OA
ATOM     36  H   UNL     1      -3.573  10.008  13.456  0.00  0.00    +0.000 HD
ENDBRANCH  33  35
ENDBRANCH  32  33
ENDBRANCH  31  32
ENDBRANCH   9  31
TORSDOF 7
ENDMDL
MODEL 7
REMARK VINA RESULT:      -6.5      3.058      7.425
REMARK  Name = 
REMARK  9 active torsions:
REMARK  status: ('A' for Active; 'I' for Inactive)
REMARK    1  A    between atoms: C_1  and  C_2
REMARK    2  A    between atoms: C_2  and  N_3
REMARK    3  A    between atoms: N_6  and  C_7
REMARK    4  A    between atoms: C_13  and  C_14
REMARK    5  A    between atoms: C_15  and  C_16
REMARK    6  A    between atoms: C_16  and  C_17
REMARK    7  A    between atoms: C_17  and  C_18
REMARK    8  A    between atoms: C_18  and  O_20
REMARK    9  A    between atoms: C_24  and  C_25
REMARK                            x       y       z     vdW  Elec       q    Type
REMARK                         _______ _______ _______ _____ _____    ______ ____
ROOT
ATOM      1  C   UNL     1       1.038  10.247  18.308  0.00  0.00    +0.000 A 
ATOM      2  C   UNL     1       1.561  11.292  19.029  0.00  0.00    +0.000 A 
ATOM      3  N   UNL     1       0.541  12.115  19.471  0.00  0.00    +0.000 N 
ATOM      4  C   UNL     1       0.731  13.248  20.326  0.00  0.00    +0.000 A 
ATOM      5  N   UNL     1       2.000  13.584  20.621  0.00  0.00    +0.000 NA
ATOM      6  C   UNL     1       2.170  14.643  21.429  0.00  0.00    +0.000 A 
ATOM      7  C   UNL     1       1.136  15.379  21.974  0.00  0.00    +0.000 A 
ATOM      8  C   UNL     1       1.420  16.542  22.865  0.00  0.00    +0.000 C 
ATOM      9  C   UNL     1      -0.142  14.950  21.638  0.00  0.00    +0.000 A 
ATOM     10  N   UNL     1      -0.351  13.900  20.808  0.00  0.00    +0.000 NA
ATOM     11  C   UNL     1      -0.655  11.635  18.949  0.00  0.00    +0.000 A 
ATOM     12  C   UNL     1      -1.975  12.097  19.034  0.00  0.00    +0.000 A 
ATOM     13  C   UNL     1      -2.983  11.386  18.373  0.00  0.00    +0.000 A 
ATOM     14  C   UNL     1      -2.574  10.232  17.695  0.00  0.00    +0.000 A 
ATOM     15  N   UNL     1      -1.311   9.740  17.595  0.00  0.00    +0.000 NA
ATOM     16  C   UNL     1      -0.362  10.479  18.225  0.00  0.00    +0.000 A 
ENDROOT
BRANCH   1  20
ATOM     17  N   UNL     1       2.845   7.166  17.734  0.00  0.00    +0.000 N 
ATOM     18  C   UNL     1       2.183   8.105  18.503  0.00  0.00    +0.000 C 
ATOM     19  O   UNL     1       2.004   7.937  19.706  0.00  0.00    +0.000 OA
ATOM     20  N   UNL     1       1.737   9.176  17.760  0.00  0.00    +0.000 N 
ATOM     21  H   UNL     1       3.432   7.556  17.011  0.00  0.00    +0.000 HD
ATOM     22  H   UNL     1       1.656   9.065  16.758  0.00  0.00    +0.000 HD
BRANCH  17  24
ATOM     23  C   UNL     1       2.876   4.690  17.751  0.00  0.00    +0.000 C 
ATOM     24  C   UNL     1       3.319   5.976  18.418  0.00  0.00    +0.000 C 
ENDBRANCH  17  24
ENDBRANCH   1  20
BRANCH  13  25
ATOM     25  C   UNL     1      -4.386  11.852  18.406  0.00  0.00    +0.000 A 
ATOM     26  C   UNL     1      -5.004  12.315  19.575  0.00  0.00    +0.000 A 
ATOM     27  C   UNL     1      -6.325  12.767  19.551  0.00  0.00    +0.000 A 
ATOM     28  C   UNL     1      -7.006  12.754  18.347  0.00  0.00    +0.000 A 
ATOM     29  N   UNL     1      -6.465  12.319  17.196  0.00  0.00    +0.000 NA
ATOM     30  C   UNL     1      -5.184  11.877  17.255  0.00  0.00    +0.000 A 
ENDBRANCH  13  25
BRANCH   9  31
ATOM     31  C   UNL     1      -1.381  15.647  22.150  0.00  0.00    +0.000 C 
BRANCH  31  32
ATOM     32  C   UNL     1      -2.318  14.702  22.902  0.00  0.00    +0.000 C 
BRANCH  32  33
ATOM     33  C   UNL     1      -2.032  14.751  24.384  0.00  0.00    +0.000 C 
ATOM     34  O   UNL     1      -0.950  15.022  24.881  0.00  0.00    +0.000 OA
BRANCH  33  35
ATOM     35  O   UNL     1      -3.112  14.441  25.135  0.00  0.00    +0.000 OA
ATOM     36  H   UNL     1      -3.957  14.769  24.770  0.00  0.00    +0.000 HD
ENDBRANCH  33  35
ENDBRANCH  32  33
ENDBRANCH  31  32
ENDBRANCH   9  31
TORSDOF 7
ENDMDL
MODEL 8
REMARK VINA RESULT:      -6.4      2.940      8.010
REMARK  Name = 
REMARK  9 active torsions:
REMARK  status: ('A' for Active; 'I' for Inactive)
REMARK    1  A    between atoms: C_1  and  C_2
REMARK    2  A    between atoms: C_2  and  N_3
REMARK    3  A    between atoms: N_6  and  C_7
REMARK    4  A    between atoms: C_13  and  C_14
REMARK    5  A    between atoms: C_15  and  C_16
REMARK    6  A    between atoms: C_16  and  C_17
REMARK    7  A    between atoms: C_17  and  C_18
REMARK    8  A    between atoms: C_18  and  O_20
REMARK    9  A    between atoms: C_24  and  C_25
REMARK                            x       y       z     vdW  Elec       q    Type
REMARK                         _______ _______ _______ _____ _____    ______ ____
ROOT
ATOM      1  C   UNL     1       0.190  10.413  18.347  0.00  0.00    +0.000 A 
ATOM      2  C   UNL     1      -1.156  10.306  18.100  0.00  0.00    +0.000 A 
ATOM      3  N   UNL     1      -1.846  11.245  18.845  0.00  0.00    +0.000 N 
ATOM      4  C   UNL     1      -3.259  11.465  18.758  0.00  0.00    +0.000 A 
ATOM      5  N   UNL     1      -3.961  10.624  17.977  0.00  0.00    +0.000 NA
ATOM      6  C   UNL     1      -5.283  10.841  17.894  0.00  0.00    +0.000 A 
ATOM      7  C   UNL     1      -5.944  11.867  18.541  0.00  0.00    +0.000 A 
ATOM      8  C   UNL     1      -7.420  12.033  18.390  0.00  0.00    +0.000 C 
ATOM      9  C   UNL     1      -5.142  12.703  19.307  0.00  0.00    +0.000 A 
ATOM     10  N   UNL     1      -3.809  12.501  19.431  0.00  0.00    +0.000 NA
ATOM     11  C   UNL     1      -0.931  11.909  19.653  0.00  0.00    +0.000 A 
ATOM     12  C   UNL     1      -1.080  12.909  20.625  0.00  0.00    +0.000 A 
ATOM     13  C   UNL     1       0.058  13.376  21.291  0.00  0.00    +0.000 A 
ATOM     14  C   UNL     1       1.275  12.810  20.897  0.00  0.00    +0.000 A 
ATOM     15  N   UNL     1       1.469  11.848  19.956  0.00  0.00    +0.000 NA
ATOM     16  C   UNL     1       0.335  11.403  19.357  0.00  0.00    +0.000 A 
ENDROOT
BRANCH   1  20
ATOM     17  N   UNL     1       2.870   8.116  17.558  0.00  0.00    +0.000 N 
ATOM     18  C   UNL     1       1.909   8.686  18.371  0.00  0.00    +0.000 C 
ATOM     19  O   UNL     1       1.711   8.279  19.512  0.00  0.00    +0.000 OA
ATOM     20  N   UNL     1       1.212   9.692  17.738  0.00  0.00    +0.000 N 
ATOM     21  H   UNL     1       3.360   8.771  16.964  0.00  0.00    +0.000 HD
ATOM     22  H   UNL     1       1.233   9.729  16.727  0.00  0.00    +0.000 HD
BRANCH  17  24
ATOM     23  C   UNL     1       3.049   5.657  17.790  0.00  0.00    +0.000 C 
ATOM     24  C   UNL     1       3.633   7.015  18.119  0.00  0.00    +0.000 C 
ENDBRANCH  17  24
ENDBRANCH   1  20
BRANCH  13  25
ATOM     25  C   UNL     1      -0.052  14.407  22.347  0.00  0.00    +0.000 A 
ATOM     26  C   UNL     1      -1.055  14.386  23.324  0.00  0.00    +0.000 A 
ATOM     27  C   UNL     1      -1.104  15.369  24.314  0.00  0.00    +0.000 A 
ATOM     28  C   UNL     1      -0.137  16.358  24.312  0.00  0.00    +0.000 A 
ATOM     29  N   UNL     1       0.846  16.429  23.398  0.00  0.00    +0.000 NA
ATOM     30  C   UNL     1       0.860  15.466  22.444  0.00  0.00    +0.000 A 
ENDBRANCH  13  25
BRANCH   9  31
ATOM     31  C   UNL     1      -5.710  13.872  20.078  0.00  0.00    +0.000 C 
BRANCH  31  32
ATOM     32  C   UNL     1      -5.011  14.087  21.420  0.00  0.00    +0.000 C 
BRANCH  32  33
ATOM     33  C   UNL     1      -5.140  12.853  22.281  0.00  0.00    +0.000 C 
ATOM     34  O   UNL     1      -4.211  12.279  22.829  0.00  0.00    +0.000 OA
BRANCH  33  35
ATOM     35  O   UNL     1      -6.414  12.416  22.378  0.00  0.00    +0.000 OA
ATOM     36  H   UNL     1      -6.780  12.068  21.542  0.00  0.00    +0.000 HD
ENDBRANCH  33  35
ENDBRANCH  32  33
ENDBRANCH  31  32
ENDBRANCH   9  31
TORSDOF 7
ENDMDL
MODEL 9
REMARK VINA RESULT:      -6.4      2.790      7.982
REMARK  Name = 
REMARK  9 active torsions:
REMARK  status: ('A' for Active; 'I' for Inactive)
REMARK    1  A    between atoms: C_1  and  C_2
REMARK    2  A    between atoms: C_2  and  N_3
REMARK    3  A    between atoms: N_6  and  C_7
REMARK    4  A    between atoms: C_13  and  C_14
REMARK    5  A    between atoms: C_15  and  C_16
REMARK    6  A    between atoms: C_16  and  C_17
REMARK    7  A    between atoms: C_17  and  C_18
REMARK    8  A    between atoms: C_18  and  O_20
REMARK    9  A    between atoms: C_24  and  C_25
REMARK                            x       y       z     vdW  Elec       q    Type
REMARK                         _______ _______ _______ _____ _____    ______ ____
ROOT
ATOM      1  C   UNL     1       0.105  10.642  18.404  0.00  0.00    +0.000 A 
ATOM      2  C   UNL     1      -1.239  10.526  18.145  0.00  0.00    +0.000 A 
ATOM      3  N   UNL     1      -1.946  11.423  18.924  0.00  0.00    +0.000 N 
ATOM      4  C   UNL     1      -3.361  11.626  18.838  0.00  0.00    +0.000 A 
ATOM      5  N   UNL     1      -4.047  10.808  18.019  0.00  0.00    +0.000 NA
ATOM      6  C   UNL     1      -5.372  11.010  17.938  0.00  0.00    +0.000 A 
ATOM      7  C   UNL     1      -6.051  11.999  18.621  0.00  0.00    +0.000 A 
ATOM      8  C   UNL     1      -7.528  12.150  18.468  0.00  0.00    +0.000 C 
ATOM      9  C   UNL     1      -5.265  12.814  19.426  0.00  0.00    +0.000 A 
ATOM     10  N   UNL     1      -3.929  12.626  19.549  0.00  0.00    +0.000 NA
ATOM     11  C   UNL     1      -1.045  12.068  19.763  0.00  0.00    +0.000 A 
ATOM     12  C   UNL     1      -1.213  13.025  20.773  0.00  0.00    +0.000 A 
ATOM     13  C   UNL     1      -0.086  13.481  21.465  0.00  0.00    +0.000 A 
ATOM     14  C   UNL     1       1.141  12.948  21.055  0.00  0.00    +0.000 A 
ATOM     15  N   UNL     1       1.354  12.029  20.077  0.00  0.00    +0.000 NA
ATOM     16  C   UNL     1       0.230  11.592  19.454  0.00  0.00    +0.000 A 
ENDROOT
BRANCH   1  20
ATOM     17  N   UNL     1       2.788   8.383  17.518  0.00  0.00    +0.000 N 
ATOM     18  C   UNL     1       1.804   8.897  18.343  0.00  0.00    +0.000 C 
ATOM     19  O   UNL     1       1.563   8.399  19.438  0.00  0.00    +0.000 OA
ATOM     20  N   UNL     1       1.140   9.961  17.772  0.00  0.00    +0.000 N 
ATOM     21  H   UNL     1       3.304   9.079  16.998  0.00  0.00    +0.000 HD
ATOM     22  H   UNL     1       1.197  10.081  16.770  0.00  0.00    +0.000 HD
BRANCH  17  24
ATOM     23  C   UNL     1       4.541   6.706  17.023  0.00  0.00    +0.000 C 
ATOM     24  C   UNL     1       3.520   7.230  18.011  0.00  0.00    +0.000 C 
ENDBRANCH  17  24
ENDBRANCH   1  20
BRANCH  13  25
ATOM     25  C   UNL     1      -0.216  14.466  22.560  0.00  0.00    +0.000 A 
ATOM     26  C   UNL     1       0.424  15.712  22.540  0.00  0.00    +0.000 A 
ATOM     27  C   UNL     1       0.252  16.618  23.589  0.00  0.00    +0.000 A 
ATOM     28  C   UNL     1      -0.570  16.261  24.642  0.00  0.00    +0.000 A 
ATOM     29  N   UNL     1      -1.207  15.079  24.716  0.00  0.00    +0.000 NA
ATOM     30  C   UNL     1      -1.010  14.217  23.688  0.00  0.00    +0.000 A 
ENDBRANCH  13  25
BRANCH   9  31
ATOM     31  C   UNL     1      -5.854  13.943  20.240  0.00  0.00    +0.000 C 
BRANCH  31  32
ATOM     32  C   UNL     1      -6.176  13.527  21.675  0.00  0.00    +0.000 C 
BRANCH  32  33
ATOM     33  C   UNL     1      -4.933  13.587  22.528  0.00  0.00    +0.000 C 
ATOM     34  O   UNL     1      -4.442  14.610  22.982  0.00  0.00    +0.000 OA
BRANCH  33  35
ATOM     35  O   UNL     1      -4.383  12.371  22.738  0.00  0.00    +0.000 OA
ATOM     36  H   UNL     1      -4.790  11.873  23.474  0.00  0.00    +0.000 HD
ENDBRANCH  33  35
ENDBRANCH  32  33
ENDBRANCH  31  32
ENDBRANCH   9  31
TORSDOF 7
ENDMDL
