MODEL 1
REMARK VINA RESULT:      -8.1      0.000      0.000
REMARK  Name = 
REMARK  7 active torsions:
REMARK  status: ('A' for Active; 'I' for Inactive)
REMARK    1  A    between atoms: C_1  and  N_2
REMARK    2  A    between atoms: C_4  and  C_5
REMARK    3  A    between atoms: C_5  and  N_6
REMARK    4  A    between atoms: C_5  and  C_19
REMARK    5  A    between atoms: C_7  and  C_9
REMARK    6  A    between atoms: C_9  and  C_10
REMARK    7  A    between atoms: C_21  and  O_22
REMARK                            x       y       z     vdW  Elec       q    Type
REMARK                         _______ _______ _______ _____ _____    ______ ____
ROOT
ATOM      1  N   UNL     1       4.573   6.090  17.662  0.00  0.00    +0.000 N 
ATOM      2  C   UNL     1       3.554   7.020  17.706  0.00  0.00    +0.000 C 
ATOM      3  O   UNL     1       3.501   8.004  16.971  0.00  0.00    +0.000 OA
ATOM      4  H   UNL     1       4.613   5.362  18.364  0.00  0.00    +0.000 HD
ENDROOT
BRANCH   1   5
ATOM      5  C   UNL     1       5.713   6.278  16.784  0.00  0.00    +0.000 C 
BRANCH   5   9
ATOM      6  C   UNL     1       8.883   9.890  18.358  0.00  0.00    +0.000 C 
ATOM      7  N   UNL     1       8.151   8.660  18.171  0.00  0.00    +0.000 N 
ATOM      8  C   UNL     1       7.071   8.449  17.360  0.00  0.00    +0.000 A 
ATOM      9  C   UNL     1       6.758   7.103  17.462  0.00  0.00    +0.000 A 
ATOM     10  C   UNL     1       7.715   6.613  18.390  0.00  0.00    +0.000 A 
ATOM     11  N   UNL     1       8.545   7.558  18.830  0.00  0.00    +0.000 NA
ENDBRANCH   5   9
BRANCH   5  12
ATOM     12  C   UNL     1       6.242   4.920  16.294  0.00  0.00    +0.000 C 
ATOM     13  C   UNL     1       5.341   3.874  15.581  0.00  0.00    +0.000 C 
ATOM     14  C   UNL     1       5.958   4.308  14.237  0.00  0.00    +0.000 C 
ATOM     15  C   UNL     1       7.153   4.881  15.032  0.00  0.00    +0.000 C 
BRANCH  14  16
ATOM     16  O   UNL     1       6.255   3.261  13.297  0.00  0.00    +0.000 OA
ATOM     17  H   UNL     1       6.419   3.704  12.446  0.00  0.00    +0.000 HD
ENDBRANCH  14  16
ENDBRANCH   5  12
ENDBRANCH   1   5
BRANCH   2  18
ATOM     18  C   UNL     1       2.485   6.760  18.749  0.00  0.00    +0.000 C 
BRANCH  18  19
ATOM     19  C   UNL     1       2.174   5.291  18.882  0.00  0.00    +0.000 A 
ATOM     20  C   UNL     1       2.000   4.481  17.750  0.00  0.00    +0.000 A 
ATOM     21  C   UNL     1       1.676   3.130  17.895  0.00  0.00    +0.000 A 
ATOM     22  C   UNL     1       1.519   2.588  19.169  0.00  0.00    +0.000 A 
ATOM     23  F   UNL     1       1.202   1.289  19.279  0.00  0.00    +0.000 F 
ATOM     24  C   UNL     1       1.680   3.377  20.304  0.00  0.00    +0.000 A 
ATOM     25 CL   UNL     1       1.475   2.705  21.876  0.00  0.00    +0.000 Cl
ATOM     26  C   UNL     1       2.002   4.725  20.152  0.00  0.00    +0.000 A 
ATOM     27  F   UNL     1       2.144   5.511  21.232  0.00  0.00    +0.000 F 
ENDBRANCH  18  19
ENDBRANCH   2  18
TORSDOF 6
ENDMDL
MODEL 2
REMARK VINA RESULT:      -7.4      4.133      6.275
REMARK  Name = 
REMARK  7 active torsions:
REMARK  status: ('A' for Active; 'I' for Inactive)
REMARK    1  A    between atoms: C_1  and  N_2
REMARK    2  A    between atoms: C_4  and  C_5
REMARK    3  A    between atoms: C_5  and  N_6
REMARK    4  A    between atoms: C_5  and  C_19
REMARK    5  A    between atoms: C_7  and  C_9
REMARK    6  A    between atoms: C_9  and  C_10
REMARK    7  A    between atoms: C_21  and  O_22
REMARK                            x       y       z     vdW  Elec       q    Type
REMARK                         _______ _______ _______ _____ _____    ______ ____
ROOT
ATOM      1  N   UNL     1       4.008   6.033  18.538  0.00  0.00    +0.000 N 
ATOM      2  C   UNL     1       5.089   5.329  19.028  0.00  0.00    +0.000 C 
ATOM      3  O   UNL     1       5.037   4.614  20.027  0.00  0.00    +0.000 OA
ATOM      4  H   UNL     1       4.144   6.685  17.775  0.00  0.00    +0.000 HD
ENDROOT
BRANCH   1   5
ATOM      5  C   UNL     1       2.742   6.038  19.245  0.00  0.00    +0.000 C 
BRANCH   5   9
ATOM      6  C   UNL     1       0.490  10.405  20.441  0.00  0.00    +0.000 C 
ATOM      7  N   UNL     1       1.206   9.339  19.783  0.00  0.00    +0.000 N 
ATOM      8  C   UNL     1       1.576   8.134  20.312  0.00  0.00    +0.000 A 
ATOM      9  C   UNL     1       2.179   7.422  19.288  0.00  0.00    +0.000 A 
ATOM     10  C   UNL     1       2.130   8.321  18.190  0.00  0.00    +0.000 A 
ATOM     11  N   UNL     1       1.558   9.485  18.496  0.00  0.00    +0.000 NA
ENDBRANCH   5   9
BRANCH   5  12
ATOM     12  C   UNL     1       1.777   5.015  18.625  0.00  0.00    +0.000 C 
ATOM     13  C   UNL     1       2.236   3.939  17.602  0.00  0.00    +0.000 C 
ATOM     14  C   UNL     1       2.205   2.895  18.736  0.00  0.00    +0.000 C 
ATOM     15  C   UNL     1       1.258   3.842  19.507  0.00  0.00    +0.000 C 
BRANCH  14  16
ATOM     16  O   UNL     1       1.683   1.597  18.401  0.00  0.00    +0.000 OA
ATOM     17  H   UNL     1       1.961   1.425  17.485  0.00  0.00    +0.000 HD
ENDBRANCH  14  16
ENDBRANCH   5  12
ENDBRANCH   1   5
BRANCH   2  18
ATOM     18  C   UNL     1       6.382   5.504  18.255  0.00  0.00    +0.000 C 
BRANCH  18  19
ATOM     19  C   UNL     1       6.286   4.932  16.864  0.00  0.00    +0.000 A 
ATOM     20  C   UNL     1       5.469   3.825  16.589  0.00  0.00    +0.000 A 
ATOM     21  C   UNL     1       5.424   3.287  15.301  0.00  0.00    +0.000 A 
ATOM     22  C   UNL     1       6.197   3.849  14.287  0.00  0.00    +0.000 A 
ATOM     23  F   UNL     1       6.139   3.308  13.060  0.00  0.00    +0.000 F 
ATOM     24  C   UNL     1       7.020   4.942  14.542  0.00  0.00    +0.000 A 
ATOM     25 CL   UNL     1       7.984   5.626  13.289  0.00  0.00    +0.000 Cl
ATOM     26  C   UNL     1       7.063   5.473  15.831  0.00  0.00    +0.000 A 
ATOM     27  F   UNL     1       7.863   6.516  16.105  0.00  0.00    +0.000 F 
ENDBRANCH  18  19
ENDBRANCH   2  18
TORSDOF 6
ENDMDL
MODEL 3
REMARK VINA RESULT:      -7.2      4.389      6.611
REMARK  Name = 
REMARK  7 active torsions:
REMARK  status: ('A' for Active; 'I' for Inactive)
REMARK    1  A    between atoms: C_1  and  N_2
REMARK    2  A    between atoms: C_4  and  C_5
REMARK    3  A    between atoms: C_5  and  N_6
REMARK    4  A    between atoms: C_5  and  C_19
REMARK    5  A    between atoms: C_7  and  C_9
REMARK    6  A    between atoms: C_9  and  C_10
REMARK    7  A    between atoms: C_21  and  O_22
REMARK                            x       y       z     vdW  Elec       q    Type
REMARK                         _______ _______ _______ _____ _____    ______ ____
ROOT
ATOM      1  N   UNL     1       3.139   7.312  17.609  0.00  0.00    +0.000 N 
ATOM      2  C   UNL     1       2.284   8.016  18.433  0.00  0.00    +0.000 C 
ATOM      3  O   UNL     1       2.268   7.897  19.656  0.00  0.00    +0.000 OA
ATOM      4  H   UNL     1       3.028   7.376  16.605  0.00  0.00    +0.000 HD
ENDROOT
BRANCH   1   5
ATOM      5  C   UNL     1       4.027   6.300  18.151  0.00  0.00    +0.000 C 
BRANCH   5   9
ATOM      6  C   UNL     1       0.761   2.479  18.706  0.00  0.00    +0.000 C 
ATOM      7  N   UNL     1       1.834   3.432  18.862  0.00  0.00    +0.000 N 
ATOM      8  C   UNL     1       2.218   4.406  17.983  0.00  0.00    +0.000 A 
ATOM      9  C   UNL     1       3.243   5.108  18.596  0.00  0.00    +0.000 A 
ATOM     10  C   UNL     1       3.400   4.442  19.840  0.00  0.00    +0.000 A 
ATOM     11  N   UNL     1       2.560   3.419  19.992  0.00  0.00    +0.000 NA
ENDBRANCH   5   9
BRANCH   5  12
ATOM     12  C   UNL     1       5.127   5.953  17.135  0.00  0.00    +0.000 C 
ATOM     13  C   UNL     1       6.629   6.260  17.384  0.00  0.00    +0.000 C 
ATOM     14  C   UNL     1       6.841   4.773  17.732  0.00  0.00    +0.000 C 
ATOM     15  C   UNL     1       5.541   4.463  16.957  0.00  0.00    +0.000 C 
BRANCH  14  16
ATOM     16  O   UNL     1       8.045   4.162  17.238  0.00  0.00    +0.000 OA
ATOM     17  H   UNL     1       8.454   4.817  16.646  0.00  0.00    +0.000 HD
ENDBRANCH  14  16
ENDBRANCH   5  12
ENDBRANCH   1   5
BRANCH   2  18
ATOM     18  C   UNL     1       1.329   8.957  17.723  0.00  0.00    +0.000 C 
BRANCH  18  19
ATOM     19  C   UNL     1       0.898  10.096  18.611  0.00  0.00    +0.000 A 
ATOM     20  C   UNL     1      -0.271  10.013  19.381  0.00  0.00    +0.000 A 
ATOM     21  C   UNL     1      -0.672  11.094  20.169  0.00  0.00    +0.000 A 
ATOM     22  C   UNL     1       0.090  12.261  20.185  0.00  0.00    +0.000 A 
ATOM     23  F   UNL     1      -0.322  13.286  20.946  0.00  0.00    +0.000 F 
ATOM     24  C   UNL     1       1.249  12.365  19.422  0.00  0.00    +0.000 A 
ATOM     25 CL   UNL     1       2.182  13.812  19.435  0.00  0.00    +0.000 Cl
ATOM     26  C   UNL     1       1.642  11.282  18.636  0.00  0.00    +0.000 A 
ATOM     27  F   UNL     1       2.747  11.365  17.877  0.00  0.00    +0.000 F 
ENDBRANCH  18  19
ENDBRANCH   2  18
TORSDOF 6
ENDMDL
MODEL 4
REMARK VINA RESULT:      -7.2      4.575      6.900
REMARK  Name = 
REMARK  7 active torsions:
REMARK  status: ('A' for Active; 'I' for Inactive)
REMARK    1  A    between atoms: C_1  and  N_2
REMARK    2  A    between atoms: C_4  and  C_5
REMARK    3  A    between atoms: C_5  and  N_6
REMARK    4  A    between atoms: C_5  and  C_19
REMARK    5  A    between atoms: C_7  and  C_9
REMARK    6  A    between atoms: C_9  and  C_10
REMARK    7  A    between atoms: C_21  and  O_22
REMARK                            x       y       z     vdW  Elec       q    Type
REMARK                         _______ _______ _______ _____ _____    ______ ____
ROOT
ATOM      1  N   UNL     1       2.753   7.311  17.863  0.00  0.00    +0.000 N 
ATOM      2  C   UNL     1       2.015   8.200  18.617  0.00  0.00    +0.000 C 
ATOM      3  O   UNL     1       2.059   8.249  19.845  0.00  0.00    +0.000 OA
ATOM      4  H   UNL     1       2.591   7.251  16.865  0.00  0.00    +0.000 HD
ENDROOT
BRANCH   1   5
ATOM      5  C   UNL     1       3.574   6.299  18.501  0.00  0.00    +0.000 C 
BRANCH   5   9
ATOM      6  C   UNL     1       1.269   2.795  21.325  0.00  0.00    +0.000 C 
ATOM      7  N   UNL     1       1.691   3.672  20.260  0.00  0.00    +0.000 N 
ATOM      8  C   UNL     1       2.584   4.704  20.335  0.00  0.00    +0.000 A 
ATOM      9  C   UNL     1       2.715   5.207  19.051  0.00  0.00    +0.000 A 
ATOM     10  C   UNL     1       1.827   4.401  18.290  0.00  0.00    +0.000 A 
ATOM     11  N   UNL     1       1.196   3.486  19.025  0.00  0.00    +0.000 NA
ENDBRANCH   5   9
BRANCH   5  12
ATOM     12  C   UNL     1       4.648   5.788  17.527  0.00  0.00    +0.000 C 
ATOM     13  C   UNL     1       5.207   6.652  16.362  0.00  0.00    +0.000 C 
ATOM     14  C   UNL     1       6.468   6.917  17.208  0.00  0.00    +0.000 C 
ATOM     15  C   UNL     1       6.115   5.656  18.029  0.00  0.00    +0.000 C 
BRANCH  14  16
ATOM     16  O   UNL     1       7.726   6.899  16.511  0.00  0.00    +0.000 OA
ATOM     17  H   UNL     1       7.889   5.968  16.279  0.00  0.00    +0.000 HD
ENDBRANCH  14  16
ENDBRANCH   5  12
ENDBRANCH   1   5
BRANCH   2  18
ATOM     18  C   UNL     1       1.111   9.127  17.827  0.00  0.00    +0.000 C 
BRANCH  18  19
ATOM     19  C   UNL     1       0.667  10.312  18.645  0.00  0.00    +0.000 A 
ATOM     20  C   UNL     1      -0.562  10.307  19.321  0.00  0.00    +0.000 A 
ATOM     21  C   UNL     1      -0.972  11.431  20.043  0.00  0.00    +0.000 A 
ATOM     22  C   UNL     1      -0.158  12.561  20.087  0.00  0.00    +0.000 A 
ATOM     23  F   UNL     1      -0.579  13.628  20.783  0.00  0.00    +0.000 F 
ATOM     24  C   UNL     1       1.061  12.588  19.416  0.00  0.00    +0.000 A 
ATOM     25 CL   UNL     1       2.058  13.991  19.464  0.00  0.00    +0.000 Cl
ATOM     26  C   UNL     1       1.463  11.464  18.695  0.00  0.00    +0.000 A 
ATOM     27  F   UNL     1       2.627  11.472  18.025  0.00  0.00    +0.000 F 
ENDBRANCH  18  19
ENDBRANCH   2  18
TORSDOF 6
ENDMDL
MODEL 5
REMARK VINA RESULT:      -7.2      4.145      6.514
REMARK  Name = 
REMARK  7 active torsions:
REMARK  status: ('A' for Active; 'I' for Inactive)
REMARK    1  A    between atoms: C_1  and  N_2
REMARK    2  A    between atoms: C_4  and  C_5
REMARK    3  A    between atoms: C_5  and  N_6
REMARK    4  A    between atoms: C_5  and  C_19
REMARK    5  A    between atoms: C_7  and  C_9
REMARK    6  A    between atoms: C_9  and  C_10
REMARK    7  A    between atoms: C_21  and  O_22
REMARK                            x       y       z     vdW  Elec       q    Type
REMARK                         _______ _______ _______ _____ _____    ______ ____
ROOT
ATOM      1  N   UNL     1       3.156   7.300  17.666  0.00  0.00    +0.000 N 
ATOM      2  C   UNL     1       2.297   7.969  18.514  0.00  0.00    +0.000 C 
ATOM      3  O   UNL     1       2.288   7.812  19.733  0.00  0.00    +0.000 OA
ATOM      4  H   UNL     1       3.041   7.395  16.664  0.00  0.00    +0.000 HD
ENDROOT
BRANCH   1   5
ATOM      5  C   UNL     1       4.056   6.280  18.172  0.00  0.00    +0.000 C 
BRANCH   5   9
ATOM      6  C   UNL     1       0.790   2.453  18.679  0.00  0.00    +0.000 C 
ATOM      7  N   UNL     1       1.875   3.391  18.835  0.00  0.00    +0.000 N 
ATOM      8  C   UNL     1       2.227   4.406  17.990  0.00  0.00    +0.000 A 
ATOM      9  C   UNL     1       3.284   5.071  18.591  0.00  0.00    +0.000 A 
ATOM     10  C   UNL     1       3.491   4.342  19.792  0.00  0.00    +0.000 A 
ATOM     11  N   UNL     1       2.651   3.316  19.929  0.00  0.00    +0.000 NA
ENDBRANCH   5   9
BRANCH   5  12
ATOM     12  C   UNL     1       5.149   5.969  17.138  0.00  0.00    +0.000 C 
ATOM     13  C   UNL     1       6.655   6.254  17.393  0.00  0.00    +0.000 C 
ATOM     14  C   UNL     1       6.857   4.753  17.677  0.00  0.00    +0.000 C 
ATOM     15  C   UNL     1       5.552   4.485  16.896  0.00  0.00    +0.000 C 
BRANCH  14  16
ATOM     16  O   UNL     1       8.055   4.154  17.153  0.00  0.00    +0.000 OA
ATOM     17  H   UNL     1       8.548   4.875  16.723  0.00  0.00    +0.000 HD
ENDBRANCH  14  16
ENDBRANCH   5  12
ENDBRANCH   1   5
BRANCH   2  18
ATOM     18  C   UNL     1       1.331   8.923  17.838  0.00  0.00    +0.000 C 
BRANCH  18  19
ATOM     19  C   UNL     1       1.372  10.296  18.458  0.00  0.00    +0.000 A 
ATOM     20  C   UNL     1       2.253  11.280  17.985  0.00  0.00    +0.000 A 
ATOM     21  C   UNL     1       2.301  12.534  18.598  0.00  0.00    +0.000 A 
ATOM     22  C   UNL     1       1.475  12.807  19.686  0.00  0.00    +0.000 A 
ATOM     23  F   UNL     1       1.546  14.018  20.259  0.00  0.00    +0.000 F 
ATOM     24  C   UNL     1       0.599  11.841  20.174  0.00  0.00    +0.000 A 
ATOM     25 CL   UNL     1      -0.413  12.178  21.526  0.00  0.00    +0.000 Cl
ATOM     26  C   UNL     1       0.558  10.590  19.559  0.00  0.00    +0.000 A 
ATOM     27  F   UNL     1      -0.266   9.636  20.024  0.00  0.00    +0.000 F 
ENDBRANCH  18  19
ENDBRANCH   2  18
TORSDOF 6
ENDMDL
MODEL 6
REMARK VINA RESULT:      -7.2      4.829      6.878
REMARK  Name = 
REMARK  7 active torsions:
REMARK  status: ('A' for Active; 'I' for Inactive)
REMARK    1  A    between atoms: C_1  and  N_2
REMARK    2  A    between atoms: C_4  and  C_5
REMARK    3  A    between atoms: C_5  and  N_6
REMARK    4  A    between atoms: C_5  and  C_19
REMARK    5  A    between atoms: C_7  and  C_9
REMARK    6  A    between atoms: C_9  and  C_10
REMARK    7  A    between atoms: C_21  and  O_22
REMARK                            x       y       z     vdW  Elec       q    Type
REMARK                         _______ _______ _______ _____ _____    ______ ____
ROOT
ATOM      1  N   UNL     1       1.101   9.166  19.049  0.00  0.00    +0.000 N 
ATOM      2  C   UNL     1       1.481   8.205  19.964  0.00  0.00    +0.000 C 
ATOM      3  O   UNL     1       0.947   8.064  21.062  0.00  0.00    +0.000 OA
ATOM      4  H   UNL     1       1.650   9.298  18.209  0.00  0.00    +0.000 HD
ENDROOT
BRANCH   1   5
ATOM      5  C   UNL     1       0.082  10.145  19.380  0.00  0.00    +0.000 C 
BRANCH   5   9
ATOM      6  C   UNL     1       2.964  14.133  20.548  0.00  0.00    +0.000 C 
ATOM      7  N   UNL     1       1.948  13.109  20.510  0.00  0.00    +0.000 N 
ATOM      8  C   UNL     1       1.763  12.155  19.549  0.00  0.00    +0.000 A 
ATOM      9  C   UNL     1       0.710  11.362  19.978  0.00  0.00    +0.000 A 
ATOM     10  C   UNL     1       0.329  11.959  21.209  0.00  0.00    +0.000 A 
ATOM     11  N   UNL     1       1.067  13.025  21.521  0.00  0.00    +0.000 NA
ENDBRANCH   5   9
BRANCH   5  12
ATOM     12  C   UNL     1      -0.781  10.457  18.147  0.00  0.00    +0.000 C 
ATOM     13  C   UNL     1      -2.247   9.964  18.000  0.00  0.00    +0.000 C 
ATOM     14  C   UNL     1      -2.726  11.380  18.374  0.00  0.00    +0.000 C 
ATOM     15  C   UNL     1      -1.331  11.902  17.962  0.00  0.00    +0.000 C 
BRANCH  14  16
ATOM     16  O   UNL     1      -3.848  11.896  17.636  0.00  0.00    +0.000 OA
ATOM     17  H   UNL     1      -4.623  11.394  17.943  0.00  0.00    +0.000 HD
ENDBRANCH  14  16
ENDBRANCH   5  12
ENDBRANCH   1   5
BRANCH   2  18
ATOM     18  C   UNL     1       2.635   7.321  19.534  0.00  0.00    +0.000 C 
BRANCH  18  19
ATOM     19  C   UNL     1       2.188   5.909  19.254  0.00  0.00    +0.000 A 
ATOM     20  C   UNL     1       1.918   5.480  17.946  0.00  0.00    +0.000 A 
ATOM     21  C   UNL     1       1.468   4.178  17.712  0.00  0.00    +0.000 A 
ATOM     22  C   UNL     1       1.281   3.306  18.782  0.00  0.00    +0.000 A 
ATOM     23  F   UNL     1       0.843   2.064  18.529  0.00  0.00    +0.000 F 
ATOM     24  C   UNL     1       1.536   3.716  20.088  0.00  0.00    +0.000 A 
ATOM     25 CL   UNL     1       1.293   2.640  21.409  0.00  0.00    +0.000 Cl
ATOM     26  C   UNL     1       1.983   5.018  20.314  0.00  0.00    +0.000 A 
ATOM     27  F   UNL     1       2.217   5.443  21.567  0.00  0.00    +0.000 F 
ENDBRANCH  18  19
ENDBRANCH   2  18
TORSDOF 6
ENDMDL
MODEL 7
REMARK VINA RESULT:      -7.2      4.780      6.783
REMARK  Name = 
REMARK  7 active torsions:
REMARK  status: ('A' for Active; 'I' for Inactive)
REMARK    1  A    between atoms: C_1  and  N_2
REMARK    2  A    between atoms: C_4  and  C_5
REMARK    3  A    between atoms: C_5  and  N_6
REMARK    4  A    between atoms: C_5  and  C_19
REMARK    5  A    between atoms: C_7  and  C_9
REMARK    6  A    between atoms: C_9  and  C_10
REMARK    7  A    between atoms: C_21  and  O_22
REMARK                            x       y       z     vdW  Elec       q    Type
REMARK                         _______ _______ _______ _____ _____    ______ ____
ROOT
ATOM      1  N   UNL     1       1.353   9.322  18.510  0.00  0.00    +0.000 N 
ATOM      2  C   UNL     1       1.981   8.158  18.905  0.00  0.00    +0.000 C 
ATOM      3  O   UNL     1       1.964   7.735  20.059  0.00  0.00    +0.000 OA
ATOM      4  H   UNL     1       1.494   9.669  17.569  0.00  0.00    +0.000 HD
ENDROOT
BRANCH   1   5
ATOM      5  C   UNL     1       0.697  10.178  19.480  0.00  0.00    +0.000 C 
BRANCH   5   9
ATOM      6  C   UNL     1       3.096  14.493  18.385  0.00  0.00    +0.000 C 
ATOM      7  N   UNL     1       2.359  13.430  19.025  0.00  0.00    +0.000 N 
ATOM      8  C   UNL     1       1.912  12.269  18.459  0.00  0.00    +0.000 A 
ATOM      9  C   UNL     1       1.321  11.537  19.475  0.00  0.00    +0.000 A 
ATOM     10  C   UNL     1       1.458  12.380  20.610  0.00  0.00    +0.000 A 
ATOM     11  N   UNL     1       2.070  13.530  20.332  0.00  0.00    +0.000 NA
ENDBRANCH   5   9
BRANCH   5  12
ATOM     12  C   UNL     1      -0.819  10.211  19.229  0.00  0.00    +0.000 C 
ATOM     13  C   UNL     1      -1.657  11.517  19.309  0.00  0.00    +0.000 C 
ATOM     14  C   UNL     1      -1.661  11.570  17.769  0.00  0.00    +0.000 C 
ATOM     15  C   UNL     1      -1.341  10.058  17.771  0.00  0.00    +0.000 C 
BRANCH  14  16
ATOM     16  O   UNL     1      -2.894  11.965  17.142  0.00  0.00    +0.000 OA
ATOM     17  H   UNL     1      -3.549  12.032  17.858  0.00  0.00    +0.000 HD
ENDBRANCH  14  16
ENDBRANCH   5  12
ENDBRANCH   1   5
BRANCH   2  18
ATOM     18  C   UNL     1       2.725   7.419  17.809  0.00  0.00    +0.000 C 
BRANCH  18  19
ATOM     19  C   UNL     1       3.213   6.070  18.272  0.00  0.00    +0.000 A 
ATOM     20  C   UNL     1       4.462   5.924  18.893  0.00  0.00    +0.000 A 
ATOM     21  C   UNL     1       4.912   4.660  19.280  0.00  0.00    +0.000 A 
ATOM     22  C   UNL     1       4.118   3.539  19.045  0.00  0.00    +0.000 A 
ATOM     23  F   UNL     1       4.576   2.336  19.422  0.00  0.00    +0.000 F 
ATOM     24  C   UNL     1       2.878   3.663  18.423  0.00  0.00    +0.000 A 
ATOM     25 CL   UNL     1       1.905   2.275  18.123  0.00  0.00    +0.000 Cl
ATOM     26  C   UNL     1       2.437   4.928  18.037  0.00  0.00    +0.000 A 
ATOM     27  F   UNL     1       1.253   5.070  17.418  0.00  0.00    +0.000 F 
ENDBRANCH  18  19
ENDBRANCH   2  18
TORSDOF 6
ENDMDL
MODEL 8
REMARK VINA RESULT:      -7.1      3.487      5.240
REMARK  Name = 
REMARK  7 active torsions:
REMARK  status: ('A' for Active; 'I' for Inactive)
REMARK    1  A    between atoms: C_1  and  N_2
REMARK    2  A    between atoms: C_4  and  C_5
REMARK    3  A    between atoms: C_5  and  N_6
REMARK    4  A    between atoms: C_5  and  C_19
REMARK    5  A    between atoms: C_7  and  C_9
REMARK    6  A    between atoms: C_9  and  C_10
REMARK    7  A    between atoms: C_21  and  O_22
REMARK                            x       y       z     vdW  Elec       q    Type
REMARK                         _______ _______ _______ _____ _____    ______ ____
ROOT
ATOM      1  N   UNL     1       3.936   5.355  18.114  0.00  0.00    +0.000 N 
ATOM      2  C   UNL     1       2.711   5.838  18.527  0.00  0.00    +0.000 C 
ATOM      3  O   UNL     1       1.643   5.504  18.018  0.00  0.00    +0.000 OA
ATOM      4  H   UNL     1       4.783   5.750  18.504  0.00  0.00    +0.000 HD
ENDROOT
BRANCH   1   5
ATOM      5  C   UNL     1       4.040   4.474  16.967  0.00  0.00    +0.000 C 
BRANCH   5   9
ATOM      6  C   UNL     1       7.622   4.983  13.434  0.00  0.00    +0.000 C 
ATOM      7  N   UNL     1       6.828   5.056  14.637  0.00  0.00    +0.000 N 
ATOM      8  C   UNL     1       5.568   4.563  14.835  0.00  0.00    +0.000 A 
ATOM      9  C   UNL     1       5.250   4.815  16.160  0.00  0.00    +0.000 A 
ATOM     10  C   UNL     1       6.400   5.488  16.652  0.00  0.00    +0.000 A 
ATOM     11  N   UNL     1       7.345   5.648  15.726  0.00  0.00    +0.000 NA
ENDBRANCH   5   9
BRANCH   5  12
ATOM     12  C   UNL     1       4.010   3.004  17.416  0.00  0.00    +0.000 C 
ATOM     13  C   UNL     1       3.899   2.582  18.907  0.00  0.00    +0.000 C 
ATOM     14  C   UNL     1       2.407   2.273  18.675  0.00  0.00    +0.000 C 
ATOM     15  C   UNL     1       2.720   2.169  17.165  0.00  0.00    +0.000 C 
BRANCH  14  16
ATOM     16  O   UNL     1       1.889   1.089  19.307  0.00  0.00    +0.000 OA
ATOM     17  H   UNL     1       0.929   1.098  19.145  0.00  0.00    +0.000 HD
ENDBRANCH  14  16
ENDBRANCH   5  12
ENDBRANCH   1   5
BRANCH   2  18
ATOM     18  C   UNL     1       2.759   6.841  19.664  0.00  0.00    +0.000 C 
BRANCH  18  19
ATOM     19  C   UNL     1       2.018   8.109  19.325  0.00  0.00    +0.000 A 
ATOM     20  C   UNL     1       2.189   8.739  18.083  0.00  0.00    +0.000 A 
ATOM     21  C   UNL     1       1.523   9.934  17.804  0.00  0.00    +0.000 A 
ATOM     22  C   UNL     1       0.690  10.505  18.764  0.00  0.00    +0.000 A 
ATOM     23  F   UNL     1       0.067  11.656  18.471  0.00  0.00    +0.000 F 
ATOM     24  C   UNL     1       0.514   9.899  20.005  0.00  0.00    +0.000 A 
ATOM     25 CL   UNL     1      -0.506  10.614  21.194  0.00  0.00    +0.000 Cl
ATOM     26  C   UNL     1       1.185   8.707  20.279  0.00  0.00    +0.000 A 
ATOM     27  F   UNL     1       1.045   8.114  21.476  0.00  0.00    +0.000 F 
ENDBRANCH  18  19
ENDBRANCH   2  18
TORSDOF 6
ENDMDL
MODEL 9
REMARK VINA RESULT:      -7.1      4.516      6.330
REMARK  Name = 
REMARK  7 active torsions:
REMARK  status: ('A' for Active; 'I' for Inactive)
REMARK    1  A    between atoms: C_1  and  N_2
REMARK    2  A    between atoms: C_4  and  C_5
REMARK    3  A    between atoms: C_5  and  N_6
REMARK    4  A    between atoms: C_5  and  C_19
REMARK    5  A    between atoms: C_7  and  C_9
REMARK    6  A    between atoms: C_9  and  C_10
REMARK    7  A    between atoms: C_21  and  O_22
REMARK                            x       y       z     vdW  Elec       q    Type
REMARK                         _______ _______ _______ _____ _____    ______ ____
ROOT
ATOM      1  N   UNL     1       2.283   6.882  18.885  0.00  0.00    +0.000 N 
ATOM      2  C   UNL     1       1.997   8.192  18.559  0.00  0.00    +0.000 C 
ATOM      3  O   UNL     1       2.086   8.643  17.419  0.00  0.00    +0.000 OA
ATOM      4  H   UNL     1       2.292   6.602  19.858  0.00  0.00    +0.000 HD
ENDROOT
BRANCH   1   5
ATOM      5  C   UNL     1       2.802   5.965  17.888  0.00  0.00    +0.000 C 
BRANCH   5   9
ATOM      6  C   UNL     1       7.687   4.656  17.816  0.00  0.00    +0.000 C 
ATOM      7  N   UNL     1       6.350   5.037  18.204  0.00  0.00    +0.000 N 
ATOM      8  C   UNL     1       5.313   5.387  17.384  0.00  0.00    +0.000 A 
ATOM      9  C   UNL     1       4.218   5.605  18.205  0.00  0.00    +0.000 A 
ATOM     10  C   UNL     1       4.733   5.374  19.508  0.00  0.00    +0.000 A 
ATOM     11  N   UNL     1       6.025   5.048  19.507  0.00  0.00    +0.000 NA
ENDBRANCH   5   9
BRANCH   5  12
ATOM     12  C   UNL     1       1.884   4.739  17.757  0.00  0.00    +0.000 C 
ATOM     13  C   UNL     1       2.392   3.356  17.262  0.00  0.00    +0.000 C 
ATOM     14  C   UNL     1       2.399   2.872  18.725  0.00  0.00    +0.000 C 
ATOM     15  C   UNL     1       1.411   4.014  19.050  0.00  0.00    +0.000 C 
BRANCH  14  16
ATOM     16  O   UNL     1       1.934   1.532  18.962  0.00  0.00    +0.000 OA
ATOM     17  H   UNL     1       2.153   1.333  19.889  0.00  0.00    +0.000 HD
ENDBRANCH  14  16
ENDBRANCH   5  12
ENDBRANCH   1   5
BRANCH   2  18
ATOM     18  C   UNL     1       1.573   9.071  19.720  0.00  0.00    +0.000 C 
BRANCH  18  19
ATOM     19  C   UNL     1       0.994  10.381  19.251  0.00  0.00    +0.000 A 
ATOM     20  C   UNL     1       1.818  11.485  18.986  0.00  0.00    +0.000 A 
ATOM     21  C   UNL     1       1.258  12.701  18.588  0.00  0.00    +0.000 A 
ATOM     22  C   UNL     1      -0.125  12.819  18.460  0.00  0.00    +0.000 A 
ATOM     23  F   UNL     1      -0.636  14.000  18.082  0.00  0.00    +0.000 F 
ATOM     24  C   UNL     1      -0.960  11.737  18.726  0.00  0.00    +0.000 A 
ATOM     25 CL   UNL     1      -2.668  11.890  18.578  0.00  0.00    +0.000 Cl
ATOM     26  C   UNL     1      -0.394  10.526  19.125  0.00  0.00    +0.000 A 
ATOM     27  F   UNL     1      -1.180   9.474  19.406  0.00  0.00    +0.000 F 
ENDBRANCH  18  19
ENDBRANCH   2  18
TORSDOF 6
ENDMDL
