MODEL 1
REMARK VINA RESULT:      -7.0      0.000      0.000
REMARK  Name = 
REMARK  3 active torsions:
REMARK  status: ('A' for Active; 'I' for Inactive)
REMARK    1  A    between atoms: C_1  and  S_2
REMARK    2  A    between atoms: S_2  and  C_3
REMARK    3  A    between atoms: C_7  and  N_8
REMARK                            x       y       z     vdW  Elec       q    Type
REMARK                         _______ _______ _______ _____ _____    ______ ____
ROOT
ATOM      1  C   UNL     1       3.256   4.756  19.359  0.00  0.00    +0.000 A 
ATOM      2  C   UNL     1       3.291   5.887  18.526  0.00  0.00    +0.000 A 
ATOM      3 CL   UNL     1       2.335   7.302  18.833  0.00  0.00    +0.000 Cl
ATOM      4  C   UNL     1       4.097   5.919  17.377  0.00  0.00    +0.000 A 
ATOM      5  C   UNL     1       4.888   4.825  17.011  0.00  0.00    +0.000 A 
ATOM      6  C   UNL     1       4.840   3.689  17.833  0.00  0.00    +0.000 A 
ATOM      7  C   UNL     1       4.056   3.659  18.996  0.00  0.00    +0.000 A 
ATOM      8 CL   UNL     1       4.136   2.209  19.945  0.00  0.00    +0.000 Cl
ENDROOT
BRANCH   5   9
ATOM      9  N   UNL     1       5.710   4.834  15.834  0.00  0.00    +0.000 N 
ATOM     10  N   UNL     1       5.210   4.052  14.803  0.00  0.00    +0.000 NA
ATOM     11  C   UNL     1       5.858   4.027  13.683  0.00  0.00    +0.000 A 
ATOM     12  C   UNL     1       7.129   4.779  13.459  0.00  0.00    +0.000 A 
ATOM     13  O   UNL     1       7.702   4.693  12.388  0.00  0.00    +0.000 OA
ATOM     14  N   UNL     1       7.545   5.511  14.522  0.00  0.00    +0.000 N 
ATOM     15  C   UNL     1       6.910   5.563  15.733  0.00  0.00    +0.000 A 
ATOM     16  O   UNL     1       7.449   6.209  16.630  0.00  0.00    +0.000 OA
ATOM     17  H   UNL     1       8.418   6.011  14.447  0.00  0.00    +0.000 HD
ENDBRANCH   5   9
BRANCH   1  19
ATOM     18  C   UNL     1       0.858   3.731  20.182  0.00  0.00    +0.000 C 
ATOM     19  S   UNL     1       2.229   4.718  20.836  0.00  0.00    +0.000 S 
ENDBRANCH   1  19
TORSDOF 2
ENDMDL
MODEL 2
REMARK VINA RESULT:      -6.9      0.170      2.164
REMARK  Name = 
REMARK  3 active torsions:
REMARK  status: ('A' for Active; 'I' for Inactive)
REMARK    1  A    between atoms: C_1  and  S_2
REMARK    2  A    between atoms: S_2  and  C_3
REMARK    3  A    between atoms: C_7  and  N_8
REMARK                            x       y       z     vdW  Elec       q    Type
REMARK                         _______ _______ _______ _____ _____    ______ ____
ROOT
ATOM      1  C   UNL     1       3.310   4.630  19.464  0.00  0.00    +0.000 A 
ATOM      2  C   UNL     1       4.158   3.564  19.124  0.00  0.00    +0.000 A 
ATOM      3 CL   UNL     1       4.305   2.138  20.104  0.00  0.00    +0.000 Cl
ATOM      4  C   UNL     1       4.956   3.609  17.969  0.00  0.00    +0.000 A 
ATOM      5  C   UNL     1       4.945   4.719  17.119  0.00  0.00    +0.000 A 
ATOM      6  C   UNL     1       4.112   5.792  17.468  0.00  0.00    +0.000 A 
ATOM      7  C   UNL     1       3.293   5.744  18.606  0.00  0.00    +0.000 A 
ATOM      8 CL   UNL     1       2.274   7.120  18.884  0.00  0.00    +0.000 Cl
ENDROOT
BRANCH   5   9
ATOM      9  N   UNL     1       5.762   4.789  15.939  0.00  0.00    +0.000 N 
ATOM     10  N   UNL     1       5.257   4.062  14.872  0.00  0.00    +0.000 NA
ATOM     11  C   UNL     1       5.899   4.095  13.750  0.00  0.00    +0.000 A 
ATOM     12  C   UNL     1       7.169   4.858  13.559  0.00  0.00    +0.000 A 
ATOM     13  O   UNL     1       7.738   4.828  12.482  0.00  0.00    +0.000 OA
ATOM     14  N   UNL     1       7.590   5.534  14.656  0.00  0.00    +0.000 N 
ATOM     15  C   UNL     1       6.961   5.522  15.871  0.00  0.00    +0.000 A 
ATOM     16  O   UNL     1       7.504   6.121  16.798  0.00  0.00    +0.000 OA
ATOM     17  H   UNL     1       8.463   6.037  14.603  0.00  0.00    +0.000 HD
ENDBRANCH   5   9
BRANCH   1  19
ATOM     18  C   UNL     1       0.926   3.566  20.278  0.00  0.00    +0.000 C 
ATOM     19  S   UNL     1       2.282   4.570  20.939  0.00  0.00    +0.000 S 
ENDBRANCH   1  19
TORSDOF 2
ENDMDL
MODEL 3
REMARK VINA RESULT:      -6.9      1.144      1.144
REMARK  Name = 
REMARK  3 active torsions:
REMARK  status: ('A' for Active; 'I' for Inactive)
REMARK    1  A    between atoms: C_1  and  S_2
REMARK    2  A    between atoms: S_2  and  C_3
REMARK    3  A    between atoms: C_7  and  N_8
REMARK                            x       y       z     vdW  Elec       q    Type
REMARK                         _______ _______ _______ _____ _____    ______ ____
ROOT
ATOM      1  C   UNL     1       2.414   4.242  19.208  0.00  0.00    +0.000 A 
ATOM      2  C   UNL     1       2.888   5.539  18.954  0.00  0.00    +0.000 A 
ATOM      3 CL   UNL     1       2.242   6.942  19.747  0.00  0.00    +0.000 Cl
ATOM      4  C   UNL     1       3.909   5.770  18.018  0.00  0.00    +0.000 A 
ATOM      5  C   UNL     1       4.486   4.721  17.296  0.00  0.00    +0.000 A 
ATOM      6  C   UNL     1       4.000   3.427  17.536  0.00  0.00    +0.000 A 
ATOM      7  C   UNL     1       2.998   3.186  18.487  0.00  0.00    +0.000 A 
ATOM      8 CL   UNL     1       2.533   1.530  18.716  0.00  0.00    +0.000 Cl
ENDROOT
BRANCH   5   9
ATOM      9  N   UNL     1       5.524   4.938  16.326  0.00  0.00    +0.000 N 
ATOM     10  N   UNL     1       5.270   4.341  15.101  0.00  0.00    +0.000 NA
ATOM     11  C   UNL     1       6.126   4.512  14.146  0.00  0.00    +0.000 A 
ATOM     12  C   UNL     1       7.383   5.302  14.311  0.00  0.00    +0.000 A 
ATOM     13  O   UNL     1       8.160   5.405  13.379  0.00  0.00    +0.000 OA
ATOM     14  N   UNL     1       7.551   5.844  15.543  0.00  0.00    +0.000 N 
ATOM     15  C   UNL     1       6.688   5.682  16.592  0.00  0.00    +0.000 A 
ATOM     16  O   UNL     1       7.012   6.169  17.674  0.00  0.00    +0.000 OA
ATOM     17  H   UNL     1       8.400   6.355  15.729  0.00  0.00    +0.000 HD
ENDBRANCH   5   9
BRANCH   1  19
ATOM     18  C   UNL     1       2.145   3.387  21.792  0.00  0.00    +0.000 C 
ATOM     19  S   UNL     1       1.110   3.945  20.413  0.00  0.00    +0.000 S 
ENDBRANCH   1  19
TORSDOF 2
ENDMDL
MODEL 4
REMARK VINA RESULT:      -6.8      1.143      2.315
REMARK  Name = 
REMARK  3 active torsions:
REMARK  status: ('A' for Active; 'I' for Inactive)
REMARK    1  A    between atoms: C_1  and  S_2
REMARK    2  A    between atoms: S_2  and  C_3
REMARK    3  A    between atoms: C_7  and  N_8
REMARK                            x       y       z     vdW  Elec       q    Type
REMARK                         _______ _______ _______ _____ _____    ______ ____
ROOT
ATOM      1  C   UNL     1       2.412   4.252  19.193  0.00  0.00    +0.000 A 
ATOM      2  C   UNL     1       2.941   3.180  18.455  0.00  0.00    +0.000 A 
ATOM      3 CL   UNL     1       2.419   1.541  18.683  0.00  0.00    +0.000 Cl
ATOM      4  C   UNL     1       3.947   3.384  17.496  0.00  0.00    +0.000 A 
ATOM      5  C   UNL     1       4.469   4.657  17.247  0.00  0.00    +0.000 A 
ATOM      6  C   UNL     1       3.954   5.725  17.997  0.00  0.00    +0.000 A 
ATOM      7  C   UNL     1       2.931   5.533  18.938  0.00  0.00    +0.000 A 
ATOM      8 CL   UNL     1       2.355   6.952  19.752  0.00  0.00    +0.000 Cl
ENDROOT
BRANCH   5   9
ATOM      9  N   UNL     1       5.506   4.884  16.279  0.00  0.00    +0.000 N 
ATOM     10  N   UNL     1       5.234   4.333  15.037  0.00  0.00    +0.000 NA
ATOM     11  C   UNL     1       6.089   4.519  14.083  0.00  0.00    +0.000 A 
ATOM     12  C   UNL     1       7.363   5.277  14.267  0.00  0.00    +0.000 A 
ATOM     13  O   UNL     1       8.137   5.395  13.334  0.00  0.00    +0.000 OA
ATOM     14  N   UNL     1       7.547   5.775  15.514  0.00  0.00    +0.000 N 
ATOM     15  C   UNL     1       6.686   5.596  16.563  0.00  0.00    +0.000 A 
ATOM     16  O   UNL     1       7.025   6.041  17.658  0.00  0.00    +0.000 OA
ATOM     17  H   UNL     1       8.407   6.263  15.713  0.00  0.00    +0.000 HD
ENDBRANCH   5   9
BRANCH   1  19
ATOM     18  C   UNL     1       2.144   3.331  21.754  0.00  0.00    +0.000 C 
ATOM     19  S   UNL     1       1.118   3.992  20.415  0.00  0.00    +0.000 S 
ENDBRANCH   1  19
TORSDOF 2
ENDMDL
MODEL 5
REMARK VINA RESULT:      -6.3      5.176      6.309
REMARK  Name = 
REMARK  3 active torsions:
REMARK  status: ('A' for Active; 'I' for Inactive)
REMARK    1  A    between atoms: C_1  and  S_2
REMARK    2  A    between atoms: S_2  and  C_3
REMARK    3  A    between atoms: C_7  and  N_8
REMARK                            x       y       z     vdW  Elec       q    Type
REMARK                         _______ _______ _______ _____ _____    ______ ____
ROOT
ATOM      1  C   UNL     1       3.578   3.877  19.873  0.00  0.00    +0.000 A 
ATOM      2  C   UNL     1       2.285   4.173  20.335  0.00  0.00    +0.000 A 
ATOM      3 CL   UNL     1       1.256   2.979  21.062  0.00  0.00    +0.000 Cl
ATOM      4  C   UNL     1       1.747   5.464  20.211  0.00  0.00    +0.000 A 
ATOM      5  C   UNL     1       2.471   6.501  19.615  0.00  0.00    +0.000 A 
ATOM      6  C   UNL     1       3.755   6.201  19.136  0.00  0.00    +0.000 A 
ATOM      7  C   UNL     1       4.309   4.920  19.279  0.00  0.00    +0.000 A 
ATOM      8 CL   UNL     1       5.926   4.708  18.689  0.00  0.00    +0.000 Cl
ENDROOT
BRANCH   5   9
ATOM      9  N   UNL     1       1.934   7.826  19.468  0.00  0.00    +0.000 N 
ATOM     10  N   UNL     1       2.025   8.320  18.177  0.00  0.00    +0.000 NA
ATOM     11  C   UNL     1       1.531   9.491  17.932  0.00  0.00    +0.000 A 
ATOM     12  C   UNL     1       0.891  10.340  18.980  0.00  0.00    +0.000 A 
ATOM     13  O   UNL     1       0.466  11.445  18.689  0.00  0.00    +0.000 OA
ATOM     14  N   UNL     1       0.851   9.779  20.214  0.00  0.00    +0.000 N 
ATOM     15  C   UNL     1       1.371   8.554  20.532  0.00  0.00    +0.000 A 
ATOM     16  O   UNL     1       1.330   8.209  21.712  0.00  0.00    +0.000 OA
ATOM     17  H   UNL     1       0.467  10.319  20.974  0.00  0.00    +0.000 HD
ENDBRANCH   5   9
BRANCH   1  19
ATOM     18  C   UNL     1       3.548   1.483  18.551  0.00  0.00    +0.000 C 
ATOM     19  S   UNL     1       4.270   2.224  20.038  0.00  0.00    +0.000 S 
ENDBRANCH   1  19
TORSDOF 2
ENDMDL
MODEL 6
REMARK VINA RESULT:      -6.3      5.107      6.240
REMARK  Name = 
REMARK  3 active torsions:
REMARK  status: ('A' for Active; 'I' for Inactive)
REMARK    1  A    between atoms: C_1  and  S_2
REMARK    2  A    between atoms: S_2  and  C_3
REMARK    3  A    between atoms: C_7  and  N_8
REMARK                            x       y       z     vdW  Elec       q    Type
REMARK                         _______ _______ _______ _____ _____    ______ ____
ROOT
ATOM      1  C   UNL     1       3.579   3.894  19.777  0.00  0.00    +0.000 A 
ATOM      2  C   UNL     1       4.248   4.865  19.014  0.00  0.00    +0.000 A 
ATOM      3 CL   UNL     1       5.755   4.548  18.212  0.00  0.00    +0.000 Cl
ATOM      4  C   UNL     1       3.734   6.164  18.878  0.00  0.00    +0.000 A 
ATOM      5  C   UNL     1       2.542   6.545  19.503  0.00  0.00    +0.000 A 
ATOM      6  C   UNL     1       1.884   5.581  20.280  0.00  0.00    +0.000 A 
ATOM      7  C   UNL     1       2.378   4.273  20.400  0.00  0.00    +0.000 A 
ATOM      8 CL   UNL     1       1.431   3.173  21.349  0.00  0.00    +0.000 Cl
ENDROOT
BRANCH   5   9
ATOM      9  N   UNL     1       2.005   7.872  19.386  0.00  0.00    +0.000 N 
ATOM     10  N   UNL     1       2.156   8.420  18.121  0.00  0.00    +0.000 NA
ATOM     11  C   UNL     1       1.667   9.598  17.901  0.00  0.00    +0.000 A 
ATOM     12  C   UNL     1       0.972  10.401  18.952  0.00  0.00    +0.000 A 
ATOM     13  O   UNL     1       0.555  11.515  18.686  0.00  0.00    +0.000 OA
ATOM     14  N   UNL     1       0.875   9.789  20.157  0.00  0.00    +0.000 N 
ATOM     15  C   UNL     1       1.387   8.553  20.450  0.00  0.00    +0.000 A 
ATOM     16  O   UNL     1       1.291   8.160  21.612  0.00  0.00    +0.000 OA
ATOM     17  H   UNL     1       0.452  10.295  20.919  0.00  0.00    +0.000 HD
ENDBRANCH   5   9
BRANCH   1  19
ATOM     18  C   UNL     1       3.519   1.507  18.443  0.00  0.00    +0.000 C 
ATOM     19  S   UNL     1       4.235   2.226  19.945  0.00  0.00    +0.000 S 
ENDBRANCH   1  19
TORSDOF 2
ENDMDL
MODEL 7
REMARK VINA RESULT:      -6.3      4.674      6.400
REMARK  Name = 
REMARK  3 active torsions:
REMARK  status: ('A' for Active; 'I' for Inactive)
REMARK    1  A    between atoms: C_1  and  S_2
REMARK    2  A    between atoms: S_2  and  C_3
REMARK    3  A    between atoms: C_7  and  N_8
REMARK                            x       y       z     vdW  Elec       q    Type
REMARK                         _______ _______ _______ _____ _____    ______ ____
ROOT
ATOM      1  C   UNL     1       3.522   4.021  19.676  0.00  0.00    +0.000 A 
ATOM      2  C   UNL     1       4.102   5.023  18.881  0.00  0.00    +0.000 A 
ATOM      3 CL   UNL     1       5.519   4.748  17.918  0.00  0.00    +0.000 Cl
ATOM      4  C   UNL     1       3.566   6.321  18.841  0.00  0.00    +0.000 A 
ATOM      5  C   UNL     1       2.443   6.668  19.599  0.00  0.00    +0.000 A 
ATOM      6  C   UNL     1       1.875   5.672  20.407  0.00  0.00    +0.000 A 
ATOM      7  C   UNL     1       2.390   4.367  20.433  0.00  0.00    +0.000 A 
ATOM      8 CL   UNL     1       1.554   3.227  21.438  0.00  0.00    +0.000 Cl
ENDROOT
BRANCH   5   9
ATOM      9  N   UNL     1       1.887   7.992  19.581  0.00  0.00    +0.000 N 
ATOM     10  N   UNL     1       1.334   8.377  20.793  0.00  0.00    +0.000 NA
ATOM     11  C   UNL     1       0.843   9.570  20.892  0.00  0.00    +0.000 A 
ATOM     12  C   UNL     1       0.823  10.540  19.756  0.00  0.00    +0.000 A 
ATOM     13  O   UNL     1       0.324  11.641  19.908  0.00  0.00    +0.000 OA
ATOM     14  N   UNL     1       1.380  10.077  18.610  0.00  0.00    +0.000 N 
ATOM     15  C   UNL     1       1.898   8.821  18.444  0.00  0.00    +0.000 A 
ATOM     16  O   UNL     1       2.299   8.516  17.322  0.00  0.00    +0.000 OA
ATOM     17  H   UNL     1       1.362  10.670  17.795  0.00  0.00    +0.000 HD
ENDBRANCH   5   9
BRANCH   1  19
ATOM     18  C   UNL     1       3.437   1.714  18.211  0.00  0.00    +0.000 C 
ATOM     19  S   UNL     1       4.204   2.356  19.721  0.00  0.00    +0.000 S 
ENDBRANCH   1  19
TORSDOF 2
ENDMDL
MODEL 8
REMARK VINA RESULT:      -6.2      4.679      6.393
REMARK  Name = 
REMARK  3 active torsions:
REMARK  status: ('A' for Active; 'I' for Inactive)
REMARK    1  A    between atoms: C_1  and  S_2
REMARK    2  A    between atoms: S_2  and  C_3
REMARK    3  A    between atoms: C_7  and  N_8
REMARK                            x       y       z     vdW  Elec       q    Type
REMARK                         _______ _______ _______ _____ _____    ______ ____
ROOT
ATOM      1  C   UNL     1       3.540   3.980  19.786  0.00  0.00    +0.000 A 
ATOM      2  C   UNL     1       2.333   4.301  20.429  0.00  0.00    +0.000 A 
ATOM      3 CL   UNL     1       1.409   3.131  21.318  0.00  0.00    +0.000 Cl
ATOM      4  C   UNL     1       1.798   5.598  20.367  0.00  0.00    +0.000 A 
ATOM      5  C   UNL     1       2.439   6.616  19.655  0.00  0.00    +0.000 A 
ATOM      6  C   UNL     1       3.634   6.291  18.997  0.00  0.00    +0.000 A 
ATOM      7  C   UNL     1       4.188   5.005  19.075  0.00  0.00    +0.000 A 
ATOM      8 CL   UNL     1       5.698   4.762  18.256  0.00  0.00    +0.000 Cl
ENDROOT
BRANCH   5   9
ATOM      9  N   UNL     1       1.902   7.946  19.570  0.00  0.00    +0.000 N 
ATOM     10  N   UNL     1       1.316   8.383  20.748  0.00  0.00    +0.000 NA
ATOM     11  C   UNL     1       0.840   9.585  20.786  0.00  0.00    +0.000 A 
ATOM     12  C   UNL     1       0.871  10.512  19.615  0.00  0.00    +0.000 A 
ATOM     13  O   UNL     1       0.383  11.625  19.710  0.00  0.00    +0.000 OA
ATOM     14  N   UNL     1       1.458   9.999  18.506  0.00  0.00    +0.000 N 
ATOM     15  C   UNL     1       1.963   8.732  18.404  0.00  0.00    +0.000 A 
ATOM     16  O   UNL     1       2.396   8.379  17.308  0.00  0.00    +0.000 OA
ATOM     17  H   UNL     1       1.474  10.562  17.670  0.00  0.00    +0.000 HD
ENDBRANCH   5   9
BRANCH   1  19
ATOM     18  C   UNL     1       3.456   1.633  18.384  0.00  0.00    +0.000 C 
ATOM     19  S   UNL     1       4.229   2.320  19.872  0.00  0.00    +0.000 S 
ENDBRANCH   1  19
TORSDOF 2
ENDMDL
MODEL 9
REMARK VINA RESULT:      -6.2      1.534      2.430
REMARK  Name = 
REMARK  3 active torsions:
REMARK  status: ('A' for Active; 'I' for Inactive)
REMARK    1  A    between atoms: C_1  and  S_2
REMARK    2  A    between atoms: S_2  and  C_3
REMARK    3  A    between atoms: C_7  and  N_8
REMARK                            x       y       z     vdW  Elec       q    Type
REMARK                         _______ _______ _______ _____ _____    ______ ____
ROOT
ATOM      1  C   UNL     1       2.911   3.097  19.121  0.00  0.00    +0.000 A 
ATOM      2  C   UNL     1       4.272   2.780  19.265  0.00  0.00    +0.000 A 
ATOM      3 CL   UNL     1       4.878   1.852  20.601  0.00  0.00    +0.000 Cl
ATOM      4  C   UNL     1       5.224   3.223  18.332  0.00  0.00    +0.000 A 
ATOM      5  C   UNL     1       4.858   4.003  17.232  0.00  0.00    +0.000 A 
ATOM      6  C   UNL     1       3.502   4.335  17.097  0.00  0.00    +0.000 A 
ATOM      7  C   UNL     1       2.541   3.876  18.011  0.00  0.00    +0.000 A 
ATOM      8 CL   UNL     1       0.895   4.320  17.690  0.00  0.00    +0.000 Cl
ENDROOT
BRANCH   5   9
ATOM      9  N   UNL     1       5.818   4.475  16.273  0.00  0.00    +0.000 N 
ATOM     10  N   UNL     1       5.704   3.869  15.031  0.00  0.00    +0.000 NA
ATOM     11  C   UNL     1       6.498   4.255  14.085  0.00  0.00    +0.000 A 
ATOM     12  C   UNL     1       7.544   5.304  14.277  0.00  0.00    +0.000 A 
ATOM     13  O   UNL     1       8.276   5.605  13.351  0.00  0.00    +0.000 OA
ATOM     14  N   UNL     1       7.586   5.837  15.523  0.00  0.00    +0.000 N 
ATOM     15  C   UNL     1       6.784   5.456  16.564  0.00  0.00    +0.000 A 
ATOM     16  O   UNL     1       6.990   5.975  17.660  0.00  0.00    +0.000 OA
ATOM     17  H   UNL     1       8.297   6.522  15.727  0.00  0.00    +0.000 HD
ENDBRANCH   5   9
BRANCH   1  19
ATOM     18  C   UNL     1       2.052   3.693  21.648  0.00  0.00    +0.000 C 
ATOM     19  S   UNL     1       1.690   2.524  20.312  0.00  0.00    +0.000 S 
ENDBRANCH   1  19
TORSDOF 2
ENDMDL
