MODEL 1
REMARK VINA RESULT:      -6.3      0.000      0.000
REMARK  Name = 
REMARK  3 active torsions:
REMARK  status: ('A' for Active; 'I' for Inactive)
REMARK    1  A    between atoms: C_1  and  C_2
REMARK    2  A    between atoms: C_2  and  N_3
REMARK    3  A    between atoms: C_8  and  C_10
REMARK                            x       y       z     vdW  Elec       q    Type
REMARK                         _______ _______ _______ _____ _____    ______ ____
ROOT
ATOM      1  N   UNL     1       6.266   3.504  12.197  0.00  0.00    +0.000 N 
ATOM      2  C   UNL     1       7.170   4.313  11.576  0.00  0.00    +0.000 A 
ATOM      3  C   UNL     1       7.736   5.067  12.580  0.00  0.00    +0.000 A 
ATOM      4  C   UNL     1       7.112   4.633  13.776  0.00  0.00    +0.000 A 
ATOM      5  N   UNL     1       7.381   5.142  15.025  0.00  0.00    +0.000 N 
ATOM      6  C   UNL     1       6.770   4.738  16.196  0.00  0.00    +0.000 C 
ATOM      7  O   UNL     1       5.899   3.882  16.311  0.00  0.00    +0.000 OA
ATOM      8  N   UNL     1       6.226   3.673  13.524  0.00  0.00    +0.000 NA
ATOM      9  H   UNL     1       8.077   5.871  15.095  0.00  0.00    +0.000 HD
ENDROOT
BRANCH   6  10
ATOM     10  C   UNL     1       7.269   5.456  17.355  0.00  0.00    +0.000 A 
ATOM     11  C   UNL     1       7.566   6.796  17.521  0.00  0.00    +0.000 A 
ATOM     12  C   UNL     1       8.009   6.954  18.855  0.00  0.00    +0.000 A 
ATOM     13  C   UNL     1       7.961   5.704  19.423  0.00  0.00    +0.000 A 
ATOM     14  O   UNL     1       7.515   4.785  18.527  0.00  0.00    +0.000 OA
ENDBRANCH   6  10
BRANCH   1  16
ATOM     15  C   UNL     1       6.055   1.247  11.258  0.00  0.00    +0.000 C 
ATOM     16  C   UNL     1       5.359   2.557  11.580  0.00  0.00    +0.000 C 
ENDBRANCH   1  16
TORSDOF 2
ENDMDL
MODEL 2
REMARK VINA RESULT:      -6.2      0.971      1.311
REMARK  Name = 
REMARK  3 active torsions:
REMARK  status: ('A' for Active; 'I' for Inactive)
REMARK    1  A    between atoms: C_1  and  C_2
REMARK    2  A    between atoms: C_2  and  N_3
REMARK    3  A    between atoms: C_8  and  C_10
REMARK                            x       y       z     vdW  Elec       q    Type
REMARK                         _______ _______ _______ _____ _____    ______ ____
ROOT
ATOM      1  N   UNL     1       6.091   3.400  12.152  0.00  0.00    +0.000 N 
ATOM      2  C   UNL     1       7.069   4.062  11.471  0.00  0.00    +0.000 A 
ATOM      3  C   UNL     1       7.682   4.869  12.403  0.00  0.00    +0.000 A 
ATOM      4  C   UNL     1       7.007   4.617  13.623  0.00  0.00    +0.000 A 
ATOM      5  N   UNL     1       7.301   5.231  14.819  0.00  0.00    +0.000 N 
ATOM      6  C   UNL     1       6.642   5.004  16.011  0.00  0.00    +0.000 C 
ATOM      7  O   UNL     1       5.701   4.239  16.195  0.00  0.00    +0.000 OA
ATOM      8  N   UNL     1       6.048   3.711  13.453  0.00  0.00    +0.000 NA
ATOM      9  H   UNL     1       8.054   5.903  14.828  0.00  0.00    +0.000 HD
ENDROOT
BRANCH   6  10
ATOM     10  C   UNL     1       7.183   5.796  17.100  0.00  0.00    +0.000 A 
ATOM     11  C   UNL     1       7.612   5.417  18.359  0.00  0.00    +0.000 A 
ATOM     12  C   UNL     1       8.050   6.593  19.012  0.00  0.00    +0.000 A 
ATOM     13  C   UNL     1       7.860   7.619  18.118  0.00  0.00    +0.000 A 
ATOM     14  O   UNL     1       7.334   7.153  16.955  0.00  0.00    +0.000 OA
ENDBRANCH   6  10
BRANCH   1  16
ATOM     15  C   UNL     1       3.844   3.183  11.192  0.00  0.00    +0.000 C 
ATOM     16  C   UNL     1       5.116   2.471  11.616  0.00  0.00    +0.000 C 
ENDBRANCH   1  16
TORSDOF 2
ENDMDL
MODEL 3
REMARK VINA RESULT:      -6.2      4.284      5.301
REMARK  Name = 
REMARK  3 active torsions:
REMARK  status: ('A' for Active; 'I' for Inactive)
REMARK    1  A    between atoms: C_1  and  C_2
REMARK    2  A    between atoms: C_2  and  N_3
REMARK    3  A    between atoms: C_8  and  C_10
REMARK                            x       y       z     vdW  Elec       q    Type
REMARK                         _______ _______ _______ _____ _____    ______ ____
ROOT
ATOM      1  N   UNL     1       6.692   4.760  16.045  0.00  0.00    +0.000 N 
ATOM      2  C   UNL     1       7.460   5.375  16.988  0.00  0.00    +0.000 A 
ATOM      3  C   UNL     1       6.778   5.219  18.174  0.00  0.00    +0.000 A 
ATOM      4  C   UNL     1       5.610   4.485  17.845  0.00  0.00    +0.000 A 
ATOM      5  N   UNL     1       4.638   4.119  18.747  0.00  0.00    +0.000 N 
ATOM      6  C   UNL     1       3.490   3.418  18.436  0.00  0.00    +0.000 C 
ATOM      7  O   UNL     1       3.152   3.020  17.326  0.00  0.00    +0.000 OA
ATOM      8  N   UNL     1       5.581   4.205  16.544  0.00  0.00    +0.000 NA
ATOM      9  H   UNL     1       4.770   4.387  19.711  0.00  0.00    +0.000 HD
ENDROOT
BRANCH   6  10
ATOM     10  C   UNL     1       2.659   3.176  19.600  0.00  0.00    +0.000 A 
ATOM     11  C   UNL     1       1.293   3.308  19.771  0.00  0.00    +0.000 A 
ATOM     12  C   UNL     1       1.010   2.933  21.105  0.00  0.00    +0.000 A 
ATOM     13  C   UNL     1       2.217   2.598  21.672  0.00  0.00    +0.000 A 
ATOM     14  O   UNL     1       3.226   2.741  20.773  0.00  0.00    +0.000 OA
ENDBRANCH   6  10
BRANCH   1  16
ATOM     15  C   UNL     1       5.817   3.954  13.899  0.00  0.00    +0.000 C 
ATOM     16  C   UNL     1       6.934   4.690  14.618  0.00  0.00    +0.000 C 
ENDBRANCH   1  16
TORSDOF 2
ENDMDL
MODEL 4
REMARK VINA RESULT:      -6.2      2.058      6.387
REMARK  Name = 
REMARK  3 active torsions:
REMARK  status: ('A' for Active; 'I' for Inactive)
REMARK    1  A    between atoms: C_1  and  C_2
REMARK    2  A    between atoms: C_2  and  N_3
REMARK    3  A    between atoms: C_8  and  C_10
REMARK                            x       y       z     vdW  Elec       q    Type
REMARK                         _______ _______ _______ _____ _____    ______ ____
ROOT
ATOM      1  N   UNL     1       7.239   5.903  18.022  0.00  0.00    +0.000 N 
ATOM      2  C   UNL     1       6.349   5.137  18.713  0.00  0.00    +0.000 A 
ATOM      3  C   UNL     1       5.744   4.338  17.769  0.00  0.00    +0.000 A 
ATOM      4  C   UNL     1       6.345   4.690  16.534  0.00  0.00    +0.000 A 
ATOM      5  N   UNL     1       6.018   4.132  15.320  0.00  0.00    +0.000 N 
ATOM      6  C   UNL     1       6.586   4.477  14.109  0.00  0.00    +0.000 C 
ATOM      7  O   UNL     1       7.451   5.325  13.920  0.00  0.00    +0.000 OA
ATOM      8  N   UNL     1       7.261   5.639  16.710  0.00  0.00    +0.000 NA
ATOM      9  H   UNL     1       5.306   3.416  15.310  0.00  0.00    +0.000 HD
ENDROOT
BRANCH   6  10
ATOM     10  C   UNL     1       6.039   3.709  13.006  0.00  0.00    +0.000 A 
ATOM     11  C   UNL     1       6.644   2.794  12.163  0.00  0.00    +0.000 A 
ATOM     12  C   UNL     1       5.645   2.341  11.269  0.00  0.00    +0.000 A 
ATOM     13  C   UNL     1       4.494   3.007  11.614  0.00  0.00    +0.000 A 
ATOM     14  O   UNL     1       4.716   3.840  12.664  0.00  0.00    +0.000 OA
ENDBRANCH   6  10
BRANCH   1  16
ATOM     15  C   UNL     1       7.936   8.240  17.749  0.00  0.00    +0.000 C 
ATOM     16  C   UNL     1       8.091   6.954  18.542  0.00  0.00    +0.000 C 
ENDBRANCH   1  16
TORSDOF 2
ENDMDL
MODEL 5
REMARK VINA RESULT:      -6.1      4.436      5.204
REMARK  Name = 
REMARK  3 active torsions:
REMARK  status: ('A' for Active; 'I' for Inactive)
REMARK    1  A    between atoms: C_1  and  C_2
REMARK    2  A    between atoms: C_2  and  N_3
REMARK    3  A    between atoms: C_8  and  C_10
REMARK                            x       y       z     vdW  Elec       q    Type
REMARK                         _______ _______ _______ _____ _____    ______ ____
ROOT
ATOM      1  N   UNL     1       5.797   5.057  15.461  0.00  0.00    +0.000 N 
ATOM      2  C   UNL     1       5.617   6.370  15.780  0.00  0.00    +0.000 A 
ATOM      3  C   UNL     1       4.805   6.368  16.892  0.00  0.00    +0.000 A 
ATOM      4  C   UNL     1       4.554   5.002  17.175  0.00  0.00    +0.000 A 
ATOM      5  N   UNL     1       3.770   4.551  18.211  0.00  0.00    +0.000 N 
ATOM      6  C   UNL     1       3.507   3.224  18.488  0.00  0.00    +0.000 C 
ATOM      7  O   UNL     1       3.915   2.250  17.865  0.00  0.00    +0.000 OA
ATOM      8  N   UNL     1       5.176   4.218  16.298  0.00  0.00    +0.000 NA
ATOM      9  H   UNL     1       3.349   5.242  18.815  0.00  0.00    +0.000 HD
ENDROOT
BRANCH   6  10
ATOM     10  C   UNL     1       2.650   3.062  19.648  0.00  0.00    +0.000 A 
ATOM     11  C   UNL     1       1.277   3.177  19.773  0.00  0.00    +0.000 A 
ATOM     12  C   UNL     1       0.967   2.909  21.127  0.00  0.00    +0.000 A 
ATOM     13  C   UNL     1       2.165   2.652  21.749  0.00  0.00    +0.000 A 
ATOM     14  O   UNL     1       3.195   2.741  20.867  0.00  0.00    +0.000 OA
ENDBRANCH   6  10
BRANCH   1  16
ATOM     15  C   UNL     1       5.609   3.754  13.391  0.00  0.00    +0.000 C 
ATOM     16  C   UNL     1       6.526   4.515  14.332  0.00  0.00    +0.000 C 
ENDBRANCH   1  16
TORSDOF 2
ENDMDL
MODEL 6
REMARK VINA RESULT:      -6.1      4.182      5.320
REMARK  Name = 
REMARK  3 active torsions:
REMARK  status: ('A' for Active; 'I' for Inactive)
REMARK    1  A    between atoms: C_1  and  C_2
REMARK    2  A    between atoms: C_2  and  N_3
REMARK    3  A    between atoms: C_8  and  C_10
REMARK                            x       y       z     vdW  Elec       q    Type
REMARK                         _______ _______ _______ _____ _____    ______ ____
ROOT
ATOM      1  N   UNL     1       6.660   5.193  16.030  0.00  0.00    +0.000 N 
ATOM      2  C   UNL     1       7.137   6.163  16.861  0.00  0.00    +0.000 A 
ATOM      3  C   UNL     1       6.402   6.047  18.019  0.00  0.00    +0.000 A 
ATOM      4  C   UNL     1       5.509   4.969  17.794  0.00  0.00    +0.000 A 
ATOM      5  N   UNL     1       4.581   4.522  18.705  0.00  0.00    +0.000 N 
ATOM      6  C   UNL     1       3.696   3.483  18.492  0.00  0.00    +0.000 C 
ATOM      7  O   UNL     1       3.590   2.806  17.474  0.00  0.00    +0.000 OA
ATOM      8  N   UNL     1       5.689   4.455  16.580  0.00  0.00    +0.000 NA
ATOM      9  H   UNL     1       4.537   4.991  19.598  0.00  0.00    +0.000 HD
ENDROOT
BRANCH   6  10
ATOM     10  C   UNL     1       2.843   3.241  19.640  0.00  0.00    +0.000 A 
ATOM     11  C   UNL     1       3.123   2.647  20.858  0.00  0.00    +0.000 A 
ATOM     12  C   UNL     1       1.927   2.677  21.612  0.00  0.00    +0.000 A 
ATOM     13  C   UNL     1       0.987   3.282  20.812  0.00  0.00    +0.000 A 
ATOM     14  O   UNL     1       1.526   3.629  19.614  0.00  0.00    +0.000 OA
ENDBRANCH   6  10
BRANCH   1  16
ATOM     15  C   UNL     1       6.128   3.929  13.996  0.00  0.00    +0.000 C 
ATOM     16  C   UNL     1       7.057   4.929  14.662  0.00  0.00    +0.000 C 
ENDBRANCH   1  16
TORSDOF 2
ENDMDL
MODEL 7
REMARK VINA RESULT:      -6.0      3.806      6.362
REMARK  Name = 
REMARK  3 active torsions:
REMARK  status: ('A' for Active; 'I' for Inactive)
REMARK    1  A    between atoms: C_1  and  C_2
REMARK    2  A    between atoms: C_2  and  N_3
REMARK    3  A    between atoms: C_8  and  C_10
REMARK                            x       y       z     vdW  Elec       q    Type
REMARK                         _______ _______ _______ _____ _____    ______ ____
ROOT
ATOM      1  N   UNL     1       3.276   4.011  19.283  0.00  0.00    +0.000 N 
ATOM      2  C   UNL     1       3.143   2.661  19.151  0.00  0.00    +0.000 A 
ATOM      3  C   UNL     1       3.807   2.340  17.988  0.00  0.00    +0.000 A 
ATOM      4  C   UNL     1       4.316   3.566  17.492  0.00  0.00    +0.000 A 
ATOM      5  N   UNL     1       5.040   3.697  16.330  0.00  0.00    +0.000 N 
ATOM      6  C   UNL     1       5.529   4.888  15.830  0.00  0.00    +0.000 C 
ATOM      7  O   UNL     1       5.395   6.002  16.324  0.00  0.00    +0.000 OA
ATOM      8  N   UNL     1       3.991   4.572  18.300  0.00  0.00    +0.000 NA
ATOM      9  H   UNL     1       5.228   2.860  15.798  0.00  0.00    +0.000 HD
ENDROOT
BRANCH   6  10
ATOM     10  C   UNL     1       6.259   4.706  14.589  0.00  0.00    +0.000 A 
ATOM     11  C   UNL     1       5.998   3.887  13.505  0.00  0.00    +0.000 A 
ATOM     12  C   UNL     1       7.030   4.113  12.565  0.00  0.00    +0.000 A 
ATOM     13  C   UNL     1       7.862   5.050  13.129  0.00  0.00    +0.000 A 
ATOM     14  O   UNL     1       7.409   5.419  14.355  0.00  0.00    +0.000 OA
ENDBRANCH   6  10
BRANCH   1  16
ATOM     15  C   UNL     1       1.269   4.479  20.613  0.00  0.00    +0.000 C 
ATOM     16  C   UNL     1       2.708   4.858  20.312  0.00  0.00    +0.000 C 
ENDBRANCH   1  16
TORSDOF 2
ENDMDL
MODEL 8
REMARK VINA RESULT:      -6.0      4.205      6.518
REMARK  Name = 
REMARK  3 active torsions:
REMARK  status: ('A' for Active; 'I' for Inactive)
REMARK    1  A    between atoms: C_1  and  C_2
REMARK    2  A    between atoms: C_2  and  N_3
REMARK    3  A    between atoms: C_8  and  C_10
REMARK                            x       y       z     vdW  Elec       q    Type
REMARK                         _______ _______ _______ _____ _____    ______ ____
ROOT
ATOM      1  N   UNL     1       2.587   3.578  19.515  0.00  0.00    +0.000 N 
ATOM      2  C   UNL     1       1.798   2.703  18.830  0.00  0.00    +0.000 A 
ATOM      3  C   UNL     1       2.351   2.619  17.571  0.00  0.00    +0.000 A 
ATOM      4  C   UNL     1       3.479   3.477  17.597  0.00  0.00    +0.000 A 
ATOM      5  N   UNL     1       4.316   3.697  16.528  0.00  0.00    +0.000 N 
ATOM      6  C   UNL     1       5.410   4.540  16.536  0.00  0.00    +0.000 C 
ATOM      7  O   UNL     1       5.802   5.224  17.476  0.00  0.00    +0.000 OA
ATOM      8  N   UNL     1       3.613   4.045  18.793  0.00  0.00    +0.000 NA
ATOM      9  H   UNL     1       4.116   3.207  15.668  0.00  0.00    +0.000 HD
ENDROOT
BRANCH   6  10
ATOM     10  C   UNL     1       6.102   4.559  15.261  0.00  0.00    +0.000 A 
ATOM     11  C   UNL     1       5.829   3.889  14.082  0.00  0.00    +0.000 A 
ATOM     12  C   UNL     1       6.820   4.280  13.151  0.00  0.00    +0.000 A 
ATOM     13  C   UNL     1       7.641   5.160  13.815  0.00  0.00    +0.000 A 
ATOM     14  O   UNL     1       7.219   5.340  15.095  0.00  0.00    +0.000 OA
ENDBRANCH   6  10
BRANCH   1  16
ATOM     15  C   UNL     1       1.864   2.970  21.779  0.00  0.00    +0.000 C 
ATOM     16  C   UNL     1       2.402   4.060  20.869  0.00  0.00    +0.000 C 
ENDBRANCH   1  16
TORSDOF 2
ENDMDL
MODEL 9
REMARK VINA RESULT:      -5.9      4.504      6.723
REMARK  Name = 
REMARK  3 active torsions:
REMARK  status: ('A' for Active; 'I' for Inactive)
REMARK    1  A    between atoms: C_1  and  C_2
REMARK    2  A    between atoms: C_2  and  N_3
REMARK    3  A    between atoms: C_8  and  C_10
REMARK                            x       y       z     vdW  Elec       q    Type
REMARK                         _______ _______ _______ _____ _____    ______ ____
ROOT
ATOM      1  N   UNL     1       2.176   3.822  19.918  0.00  0.00    +0.000 N 
ATOM      2  C   UNL     1       1.094   3.758  19.092  0.00  0.00    +0.000 A 
ATOM      3  C   UNL     1       1.600   3.867  17.817  0.00  0.00    +0.000 A 
ATOM      4  C   UNL     1       3.004   3.985  17.976  0.00  0.00    +0.000 A 
ATOM      5  N   UNL     1       3.897   4.128  16.940  0.00  0.00    +0.000 N 
ATOM      6  C   UNL     1       5.265   4.257  17.083  0.00  0.00    +0.000 C 
ATOM      7  O   UNL     1       5.894   4.273  18.135  0.00  0.00    +0.000 OA
ATOM      8  N   UNL     1       3.337   3.944  19.264  0.00  0.00    +0.000 NA
ATOM      9  H   UNL     1       3.527   4.143  16.001  0.00  0.00    +0.000 HD
ENDROOT
BRANCH   6  10
ATOM     10  C   UNL     1       5.943   4.386  15.806  0.00  0.00    +0.000 A 
ATOM     11  C   UNL     1       7.087   5.083  15.464  0.00  0.00    +0.000 A 
ATOM     12  C   UNL     1       7.306   4.858  14.085  0.00  0.00    +0.000 A 
ATOM     13  C   UNL     1       6.283   4.042  13.665  0.00  0.00    +0.000 A 
ATOM     14  O   UNL     1       5.448   3.747  14.696  0.00  0.00    +0.000 OA
ENDBRANCH   6  10
BRANCH   1  16
ATOM     15  C   UNL     1       1.638   2.508  21.919  0.00  0.00    +0.000 C 
ATOM     16  C   UNL     1       2.183   3.814  21.368  0.00  0.00    +0.000 C 
ENDBRANCH   1  16
TORSDOF 2
ENDMDL
