MODEL 1
REMARK VINA RESULT:      -8.1      0.000      0.000
REMARK  Name = 
REMARK  7 active torsions:
REMARK  status: ('A' for Active; 'I' for Inactive)
REMARK    1  A    between atoms: C_2  and  C_13
REMARK    2  A    between atoms: N_3  and  C_4
REMARK    3  A    between atoms: C_8  and  C_9
REMARK    4  A    between atoms: C_9  and  O_11
REMARK    5  A    between atoms: C_13  and  N_20
REMARK    6  A    between atoms: C_14  and  C_15
REMARK    7  A    between atoms: C_21  and  C_23
REMARK                            x       y       z     vdW  Elec       q    Type
REMARK                         _______ _______ _______ _____ _____    ______ ____
ROOT
ATOM      1  C   UNL     1       3.565   3.715  17.638  0.00  0.00    +0.000 C 
ATOM      2  C   UNL     1       3.625   2.805  18.635  0.00  0.00    +0.000 C 
ENDROOT
BRANCH   2   3
ATOM      3  C   UNL     1       2.827   2.796  19.810  0.00  0.00    +0.000 A 
ATOM      4  C   UNL     1       1.520   2.357  20.000  0.00  0.00    +0.000 A 
ATOM      5  C   UNL     1       1.168   2.621  21.344  0.00  0.00    +0.000 A 
ATOM      6  C   UNL     1       2.264   3.221  21.906  0.00  0.00    +0.000 A 
ATOM      7  O   UNL     1       3.261   3.339  20.999  0.00  0.00    +0.000 OA
ENDBRANCH   2   3
BRANCH   1   9
ATOM      8  O   UNL     1       1.506   4.881  17.473  0.00  0.00    +0.000 OA
ATOM      9  C   UNL     1       2.681   4.944  17.834  0.00  0.00    +0.000 C 
ATOM     10  N   UNL     1       3.232   6.059  18.453  0.00  0.00    +0.000 N 
ATOM     11  H   UNL     1       4.238   6.091  18.597  0.00  0.00    +0.000 HD
BRANCH  10  12
ATOM     12  C   UNL     1       2.493   7.256  18.747  0.00  0.00    +0.000 A 
ATOM     13  C   UNL     1       2.231   8.236  17.775  0.00  0.00    +0.000 A 
ATOM     14  C   UNL     1       1.527   9.408  18.059  0.00  0.00    +0.000 A 
ATOM     15  C   UNL     1       1.042   9.627  19.337  0.00  0.00    +0.000 A 
ATOM     16  C   UNL     1       1.291   8.676  20.334  0.00  0.00    +0.000 A 
ATOM     17  C   UNL     1       1.995   7.485  20.037  0.00  0.00    +0.000 A 
BRANCH  16  18
ATOM     18  C   UNL     1       0.767   8.886  21.707  0.00  0.00    +0.000 C 
ATOM     19  O   UNL     1       1.448   9.378  22.594  0.00  0.00    +0.000 OA
BRANCH  18  20
ATOM     20  O   UNL     1      -0.519   8.514  21.884  0.00  0.00    +0.000 OA
ATOM     21  H   UNL     1      -0.671   7.563  22.030  0.00  0.00    +0.000 HD
ENDBRANCH  18  20
ENDBRANCH  16  18
ENDBRANCH  10  12
ENDBRANCH   1   9
BRANCH   1  22
ATOM     22  N   UNL     1       4.359   3.642  16.489  0.00  0.00    +0.000 N 
ATOM     23  C   UNL     1       4.933   4.715  15.807  0.00  0.00    +0.000 C 
ATOM     24  O   UNL     1       4.838   5.895  16.130  0.00  0.00    +0.000 OA
ATOM     25  H   UNL     1       4.465   2.723  16.074  0.00  0.00    +0.000 HD
BRANCH  23  26
ATOM     26  C   UNL     1       5.678   4.442  14.546  0.00  0.00    +0.000 A 
ATOM     27  C   UNL     1       4.977   3.710  13.563  0.00  0.00    +0.000 A 
ATOM     28  C   UNL     1       5.555   3.421  12.327  0.00  0.00    +0.000 A 
ATOM     29  C   UNL     1       6.841   3.868  12.049  0.00  0.00    +0.000 A 
ATOM     30  C   UNL     1       7.540   4.611  13.005  0.00  0.00    +0.000 A 
ATOM     31  C   UNL     1       6.965   4.902  14.251  0.00  0.00    +0.000 A 
ATOM     32 CL   UNL     1       7.900   5.869  15.336  0.00  0.00    +0.000 Cl
ENDBRANCH  23  26
ENDBRANCH   1  22
TORSDOF 7
ENDMDL
MODEL 2
REMARK VINA RESULT:      -7.9      2.937      7.710
REMARK  Name = 
REMARK  7 active torsions:
REMARK  status: ('A' for Active; 'I' for Inactive)
REMARK    1  A    between atoms: C_2  and  C_13
REMARK    2  A    between atoms: N_3  and  C_4
REMARK    3  A    between atoms: C_8  and  C_9
REMARK    4  A    between atoms: C_9  and  O_11
REMARK    5  A    between atoms: C_13  and  N_20
REMARK    6  A    between atoms: C_14  and  C_15
REMARK    7  A    between atoms: C_21  and  C_23
REMARK                            x       y       z     vdW  Elec       q    Type
REMARK                         _______ _______ _______ _____ _____    ______ ____
ROOT
ATOM      1  C   UNL     1       2.876   7.600  17.587  0.00  0.00    +0.000 C 
ATOM      2  C   UNL     1       4.102   7.820  17.064  0.00  0.00    +0.000 C 
ENDROOT
BRANCH   2   3
ATOM      3  C   UNL     1       5.129   6.853  16.901  0.00  0.00    +0.000 A 
ATOM      4  C   UNL     1       6.314   6.676  17.609  0.00  0.00    +0.000 A 
ATOM      5  C   UNL     1       7.018   5.605  17.013  0.00  0.00    +0.000 A 
ATOM      6  C   UNL     1       6.242   5.188  15.961  0.00  0.00    +0.000 A 
ATOM      7  O   UNL     1       5.114   5.930  15.879  0.00  0.00    +0.000 OA
ENDBRANCH   2   3
BRANCH   1   9
ATOM      8  O   UNL     1       1.973   5.407  17.548  0.00  0.00    +0.000 OA
ATOM      9  C   UNL     1       2.592   6.236  18.213  0.00  0.00    +0.000 C 
ATOM     10  N   UNL     1       3.086   5.982  19.487  0.00  0.00    +0.000 N 
ATOM     11  H   UNL     1       3.464   6.755  20.028  0.00  0.00    +0.000 HD
BRANCH  10  12
ATOM     12  C   UNL     1       2.937   4.722  20.163  0.00  0.00    +0.000 A 
ATOM     13  C   UNL     1       1.834   4.435  20.984  0.00  0.00    +0.000 A 
ATOM     14  C   UNL     1       1.692   3.220  21.656  0.00  0.00    +0.000 A 
ATOM     15  C   UNL     1       2.655   2.237  21.510  0.00  0.00    +0.000 A 
ATOM     16  C   UNL     1       3.772   2.489  20.706  0.00  0.00    +0.000 A 
ATOM     17  C   UNL     1       3.905   3.719  20.019  0.00  0.00    +0.000 A 
BRANCH  16  18
ATOM     18  C   UNL     1       4.808   1.442  20.524  0.00  0.00    +0.000 C 
ATOM     19  O   UNL     1       5.630   1.183  21.391  0.00  0.00    +0.000 OA
BRANCH  18  20
ATOM     20  O   UNL     1       4.751   0.789  19.344  0.00  0.00    +0.000 OA
ATOM     21  H   UNL     1       5.039   1.296  18.563  0.00  0.00    +0.000 HD
ENDBRANCH  18  20
ENDBRANCH  16  18
ENDBRANCH  10  12
ENDBRANCH   1   9
BRANCH   1  22
ATOM     22  N   UNL     1       1.897   8.594  17.684  0.00  0.00    +0.000 N 
ATOM     23  C   UNL     1       1.319   9.078  18.859  0.00  0.00    +0.000 C 
ATOM     24  O   UNL     1       1.602   8.709  19.994  0.00  0.00    +0.000 OA
ATOM     25  H   UNL     1       1.523   8.942  16.809  0.00  0.00    +0.000 HD
BRANCH  23  26
ATOM     26  C   UNL     1       0.225  10.083  18.752  0.00  0.00    +0.000 A 
ATOM     27  C   UNL     1      -0.776   9.806  17.795  0.00  0.00    +0.000 A 
ATOM     28  C   UNL     1      -1.871  10.652  17.626  0.00  0.00    +0.000 A 
ATOM     29  C   UNL     1      -1.989  11.788  18.419  0.00  0.00    +0.000 A 
ATOM     30  C   UNL     1      -1.017  12.066  19.384  0.00  0.00    +0.000 A 
ATOM     31  C   UNL     1       0.088  11.219  19.556  0.00  0.00    +0.000 A 
ATOM     32 CL   UNL     1       1.201  11.633  20.812  0.00  0.00    +0.000 Cl
ENDBRANCH  23  26
ENDBRANCH   1  22
TORSDOF 7
ENDMDL
MODEL 3
REMARK VINA RESULT:      -7.7      4.432      7.476
REMARK  Name = 
REMARK  7 active torsions:
REMARK  status: ('A' for Active; 'I' for Inactive)
REMARK    1  A    between atoms: C_2  and  C_13
REMARK    2  A    between atoms: N_3  and  C_4
REMARK    3  A    between atoms: C_8  and  C_9
REMARK    4  A    between atoms: C_9  and  O_11
REMARK    5  A    between atoms: C_13  and  N_20
REMARK    6  A    between atoms: C_14  and  C_15
REMARK    7  A    between atoms: C_21  and  C_23
REMARK                            x       y       z     vdW  Elec       q    Type
REMARK                         _______ _______ _______ _____ _____    ______ ____
ROOT
ATOM      1  C   UNL     1       0.807   9.768  19.825  0.00  0.00    +0.000 C 
ATOM      2  C   UNL     1       0.987  10.217  21.087  0.00  0.00    +0.000 C 
ENDROOT
BRANCH   2   3
ATOM      3  C   UNL     1       0.203  11.201  21.746  0.00  0.00    +0.000 A 
ATOM      4  C   UNL     1      -0.969  11.066  22.483  0.00  0.00    +0.000 A 
ATOM      5  C   UNL     1      -1.383  12.358  22.877  0.00  0.00    +0.000 A 
ATOM      6  C   UNL     1      -0.459  13.223  22.351  0.00  0.00    +0.000 A 
ATOM      7  O   UNL     1       0.491  12.546  21.666  0.00  0.00    +0.000 OA
ENDBRANCH   2   3
BRANCH   1   9
ATOM      8  O   UNL     1       0.051  11.590  18.508  0.00  0.00    +0.000 OA
ATOM      9  C   UNL     1      -0.224  10.473  18.948  0.00  0.00    +0.000 C 
ATOM     10  N   UNL     1      -1.403   9.802  18.649  0.00  0.00    +0.000 N 
ATOM     11  H   UNL     1      -1.622   8.948  19.156  0.00  0.00    +0.000 HD
BRANCH  10  12
ATOM     12  C   UNL     1      -2.427  10.331  17.789  0.00  0.00    +0.000 A 
ATOM     13  C   UNL     1      -3.393  11.243  18.244  0.00  0.00    +0.000 A 
ATOM     14  C   UNL     1      -4.399  11.748  17.419  0.00  0.00    +0.000 A 
ATOM     15  C   UNL     1      -4.456  11.364  16.090  0.00  0.00    +0.000 A 
ATOM     16  C   UNL     1      -3.514  10.450  15.602  0.00  0.00    +0.000 A 
ATOM     17  C   UNL     1      -2.491   9.950  16.442  0.00  0.00    +0.000 A 
BRANCH  16  18
ATOM     18  C   UNL     1      -3.550  10.036  14.177  0.00  0.00    +0.000 C 
ATOM     19  O   UNL     1      -2.535   9.934  13.504  0.00  0.00    +0.000 OA
BRANCH  18  20
ATOM     20  O   UNL     1      -4.782   9.760  13.700  0.00  0.00    +0.000 OA
ATOM     21  H   UNL     1      -4.954   8.827  13.479  0.00  0.00    +0.000 HD
ENDBRANCH  18  20
ENDBRANCH  16  18
ENDBRANCH  10  12
ENDBRANCH   1   9
BRANCH   1  22
ATOM     22  N   UNL     1       1.597   8.767  19.251  0.00  0.00    +0.000 N 
ATOM     23  C   UNL     1       1.954   7.552  19.837  0.00  0.00    +0.000 C 
ATOM     24  O   UNL     1       1.608   7.172  20.952  0.00  0.00    +0.000 OA
ATOM     25  H   UNL     1       2.006   8.981  18.349  0.00  0.00    +0.000 HD
BRANCH  23  26
ATOM     26  C   UNL     1       2.879   6.648  19.097  0.00  0.00    +0.000 A 
ATOM     27  C   UNL     1       3.559   7.225  18.002  0.00  0.00    +0.000 A 
ATOM     28  C   UNL     1       4.478   6.491  17.253  0.00  0.00    +0.000 A 
ATOM     29  C   UNL     1       4.740   5.169  17.592  0.00  0.00    +0.000 A 
ATOM     30  C   UNL     1       4.090   4.590  18.685  0.00  0.00    +0.000 A 
ATOM     31  C   UNL     1       3.162   5.323  19.441  0.00  0.00    +0.000 A 
ATOM     32 CL   UNL     1       2.456   4.522  20.800  0.00  0.00    +0.000 Cl
ENDBRANCH  23  26
ENDBRANCH   1  22
TORSDOF 7
ENDMDL
MODEL 4
REMARK VINA RESULT:      -7.7      2.840      7.826
REMARK  Name = 
REMARK  7 active torsions:
REMARK  status: ('A' for Active; 'I' for Inactive)
REMARK    1  A    between atoms: C_2  and  C_13
REMARK    2  A    between atoms: N_3  and  C_4
REMARK    3  A    between atoms: C_8  and  C_9
REMARK    4  A    between atoms: C_9  and  O_11
REMARK    5  A    between atoms: C_13  and  N_20
REMARK    6  A    between atoms: C_14  and  C_15
REMARK    7  A    between atoms: C_21  and  C_23
REMARK                            x       y       z     vdW  Elec       q    Type
REMARK                         _______ _______ _______ _____ _____    ______ ____
ROOT
ATOM      1  C   UNL     1       2.982   7.864  17.792  0.00  0.00    +0.000 C 
ATOM      2  C   UNL     1       4.155   7.972  17.130  0.00  0.00    +0.000 C 
ENDROOT
BRANCH   2   3
ATOM      3  C   UNL     1       5.026   6.903  16.789  0.00  0.00    +0.000 A 
ATOM      4  C   UNL     1       5.171   6.216  15.588  0.00  0.00    +0.000 A 
ATOM      5  C   UNL     1       6.133   5.199  15.786  0.00  0.00    +0.000 A 
ATOM      6  C   UNL     1       6.518   5.301  17.098  0.00  0.00    +0.000 A 
ATOM      7  O   UNL     1       5.859   6.310  17.711  0.00  0.00    +0.000 OA
ENDBRANCH   2   3
BRANCH   1   9
ATOM      8  O   UNL     1       1.792   5.812  17.770  0.00  0.00    +0.000 OA
ATOM      9  C   UNL     1       2.606   6.505  18.379  0.00  0.00    +0.000 C 
ATOM     10  N   UNL     1       3.237   6.096  19.548  0.00  0.00    +0.000 N 
ATOM     11  H   UNL     1       3.790   6.773  20.068  0.00  0.00    +0.000 HD
BRANCH  10  12
ATOM     12  C   UNL     1       3.015   4.819  20.170  0.00  0.00    +0.000 A 
ATOM     13  C   UNL     1       1.863   4.540  20.923  0.00  0.00    +0.000 A 
ATOM     14  C   UNL     1       1.650   3.307  21.542  0.00  0.00    +0.000 A 
ATOM     15  C   UNL     1       2.588   2.299  21.408  0.00  0.00    +0.000 A 
ATOM     16  C   UNL     1       3.753   2.543  20.671  0.00  0.00    +0.000 A 
ATOM     17  C   UNL     1       3.958   3.791  20.037  0.00  0.00    +0.000 A 
BRANCH  16  18
ATOM     18  C   UNL     1       4.765   1.470  20.504  0.00  0.00    +0.000 C 
ATOM     19  O   UNL     1       5.549   1.171  21.393  0.00  0.00    +0.000 OA
BRANCH  18  20
ATOM     20  O   UNL     1       4.729   0.841  19.310  0.00  0.00    +0.000 OA
ATOM     21  H   UNL     1       5.226   1.269  18.588  0.00  0.00    +0.000 HD
ENDBRANCH  18  20
ENDBRANCH  16  18
ENDBRANCH  10  12
ENDBRANCH   1   9
BRANCH   1  22
ATOM     22  N   UNL     1       2.154   8.958  18.064  0.00  0.00    +0.000 N 
ATOM     23  C   UNL     1       1.425   9.178  19.233  0.00  0.00    +0.000 C 
ATOM     24  O   UNL     1       1.416   8.441  20.215  0.00  0.00    +0.000 OA
ATOM     25  H   UNL     1       2.018   9.616  17.305  0.00  0.00    +0.000 HD
BRANCH  23  26
ATOM     26  C   UNL     1       0.528  10.365  19.301  0.00  0.00    +0.000 A 
ATOM     27  C   UNL     1       0.897  11.365  20.227  0.00  0.00    +0.000 A 
ATOM     28  C   UNL     1       0.157  12.540  20.358  0.00  0.00    +0.000 A 
ATOM     29  C   UNL     1      -0.960  12.739  19.556  0.00  0.00    +0.000 A 
ATOM     30  C   UNL     1      -1.327  11.768  18.620  0.00  0.00    +0.000 A 
ATOM     31  C   UNL     1      -0.588  10.583  18.487  0.00  0.00    +0.000 A 
ATOM     32 CL   UNL     1      -1.103   9.475  17.264  0.00  0.00    +0.000 Cl
ENDBRANCH  23  26
ENDBRANCH   1  22
TORSDOF 7
ENDMDL
MODEL 5
REMARK VINA RESULT:      -7.6      3.071      7.373
REMARK  Name = 
REMARK  7 active torsions:
REMARK  status: ('A' for Active; 'I' for Inactive)
REMARK    1  A    between atoms: C_2  and  C_13
REMARK    2  A    between atoms: N_3  and  C_4
REMARK    3  A    between atoms: C_8  and  C_9
REMARK    4  A    between atoms: C_9  and  O_11
REMARK    5  A    between atoms: C_13  and  N_20
REMARK    6  A    between atoms: C_14  and  C_15
REMARK    7  A    between atoms: C_21  and  C_23
REMARK                            x       y       z     vdW  Elec       q    Type
REMARK                         _______ _______ _______ _____ _____    ______ ____
ROOT
ATOM      1  C   UNL     1       2.125   6.999  19.755  0.00  0.00    +0.000 C 
ATOM      2  C   UNL     1       1.378   6.208  20.557  0.00  0.00    +0.000 C 
ENDROOT
BRANCH   2   3
ATOM      3  C   UNL     1       1.530   4.807  20.728  0.00  0.00    +0.000 A 
ATOM      4  C   UNL     1       0.854   3.752  20.122  0.00  0.00    +0.000 A 
ATOM      5  C   UNL     1       1.340   2.549  20.682  0.00  0.00    +0.000 A 
ATOM      6  C   UNL     1       2.276   2.921  21.613  0.00  0.00    +0.000 A 
ATOM      7  O   UNL     1       2.394   4.268  21.656  0.00  0.00    +0.000 OA
ENDBRANCH   2   3
BRANCH   1   9
ATOM      8  O   UNL     1       2.728   5.945  17.717  0.00  0.00    +0.000 OA
ATOM      9  C   UNL     1       3.127   6.333  18.814  0.00  0.00    +0.000 C 
ATOM     10  N   UNL     1       4.451   6.238  19.224  0.00  0.00    +0.000 N 
ATOM     11  H   UNL     1       4.680   6.450  20.192  0.00  0.00    +0.000 HD
BRANCH  10  12
ATOM     12  C   UNL     1       5.501   5.686  18.411  0.00  0.00    +0.000 A 
ATOM     13  C   UNL     1       6.725   5.258  18.953  0.00  0.00    +0.000 A 
ATOM     14  C   UNL     1       7.754   4.737  18.167  0.00  0.00    +0.000 A 
ATOM     15  C   UNL     1       7.578   4.609  16.800  0.00  0.00    +0.000 A 
ATOM     16  C   UNL     1       6.374   5.032  16.223  0.00  0.00    +0.000 A 
ATOM     17  C   UNL     1       5.331   5.550  17.027  0.00  0.00    +0.000 A 
BRANCH  16  18
ATOM     18  C   UNL     1       6.161   4.890  14.761  0.00  0.00    +0.000 C 
ATOM     19  O   UNL     1       5.131   4.424  14.297  0.00  0.00    +0.000 OA
BRANCH  18  20
ATOM     20  O   UNL     1       7.179   5.338  13.996  0.00  0.00    +0.000 OA
ATOM     21  H   UNL     1       8.007   4.827  14.047  0.00  0.00    +0.000 HD
ENDBRANCH  18  20
ENDBRANCH  16  18
ENDBRANCH  10  12
ENDBRANCH   1   9
BRANCH   1  22
ATOM     22  N   UNL     1       1.944   8.382  19.662  0.00  0.00    +0.000 N 
ATOM     23  C   UNL     1       1.428   9.081  18.570  0.00  0.00    +0.000 C 
ATOM     24  O   UNL     1       1.038   8.575  17.523  0.00  0.00    +0.000 OA
ATOM     25  H   UNL     1       2.289   8.933  20.440  0.00  0.00    +0.000 HD
BRANCH  23  26
ATOM     26  C   UNL     1       1.393  10.569  18.629  0.00  0.00    +0.000 A 
ATOM     27  C   UNL     1       2.496  11.235  18.051  0.00  0.00    +0.000 A 
ATOM     28  C   UNL     1       2.562  12.628  18.012  0.00  0.00    +0.000 A 
ATOM     29  C   UNL     1       1.520  13.379  18.543  0.00  0.00    +0.000 A 
ATOM     30  C   UNL     1       0.413  12.734  19.101  0.00  0.00    +0.000 A 
ATOM     31  C   UNL     1       0.343  11.334  19.145  0.00  0.00    +0.000 A 
ATOM     32 CL   UNL     1      -1.095  10.644  19.813  0.00  0.00    +0.000 Cl
ENDBRANCH  23  26
ENDBRANCH   1  22
TORSDOF 7
ENDMDL
MODEL 6
REMARK VINA RESULT:      -7.6      4.187      6.900
REMARK  Name = 
REMARK  7 active torsions:
REMARK  status: ('A' for Active; 'I' for Inactive)
REMARK    1  A    between atoms: C_2  and  C_13
REMARK    2  A    between atoms: N_3  and  C_4
REMARK    3  A    between atoms: C_8  and  C_9
REMARK    4  A    between atoms: C_9  and  O_11
REMARK    5  A    between atoms: C_13  and  N_20
REMARK    6  A    between atoms: C_14  and  C_15
REMARK    7  A    between atoms: C_21  and  C_23
REMARK                            x       y       z     vdW  Elec       q    Type
REMARK                         _______ _______ _______ _____ _____    ______ ____
ROOT
ATOM      1  C   UNL     1       1.105   9.270  19.420  0.00  0.00    +0.000 C 
ATOM      2  C   UNL     1       1.250   9.485  20.746  0.00  0.00    +0.000 C 
ENDROOT
BRANCH   2   3
ATOM      3  C   UNL     1       0.410  10.290  21.560  0.00  0.00    +0.000 A 
ATOM      4  C   UNL     1      -0.599   9.921  22.444  0.00  0.00    +0.000 A 
ATOM      5  C   UNL     1      -1.173  11.104  22.963  0.00  0.00    +0.000 A 
ATOM      6  C   UNL     1      -0.503  12.138  22.362  0.00  0.00    +0.000 A 
ATOM      7  O   UNL     1       0.441  11.666  21.516  0.00  0.00    +0.000 OA
ENDBRANCH   2   3
BRANCH   1   9
ATOM      8  O   UNL     1       0.301  11.243  18.378  0.00  0.00    +0.000 OA
ATOM      9  C   UNL     1       0.048  10.074  18.668  0.00  0.00    +0.000 C 
ATOM     10  N   UNL     1      -1.132   9.435  18.308  0.00  0.00    +0.000 N 
ATOM     11  H   UNL     1      -1.331   8.517  18.700  0.00  0.00    +0.000 HD
BRANCH  10  12
ATOM     12  C   UNL     1      -2.181  10.061  17.551  0.00  0.00    +0.000 A 
ATOM     13  C   UNL     1      -3.043  11.019  18.110  0.00  0.00    +0.000 A 
ATOM     14  C   UNL     1      -4.073  11.620  17.385  0.00  0.00    +0.000 A 
ATOM     15  C   UNL     1      -4.261  11.288  16.054  0.00  0.00    +0.000 A 
ATOM     16  C   UNL     1      -3.426  10.332  15.464  0.00  0.00    +0.000 A 
ATOM     17  C   UNL     1      -2.377   9.734  16.202  0.00  0.00    +0.000 A 
BRANCH  16  18
ATOM     18  C   UNL     1      -3.602   9.973  14.035  0.00  0.00    +0.000 C 
ATOM     19  O   UNL     1      -4.704   9.772  13.545  0.00  0.00    +0.000 OA
BRANCH  18  20
ATOM     20  O   UNL     1      -2.458   9.913  13.322  0.00  0.00    +0.000 OA
ATOM     21  H   UNL     1      -1.814  10.626  13.489  0.00  0.00    +0.000 HD
ENDBRANCH  18  20
ENDBRANCH  16  18
ENDBRANCH  10  12
ENDBRANCH   1   9
BRANCH   1  22
ATOM     22  N   UNL     1       1.952   8.433  18.685  0.00  0.00    +0.000 N 
ATOM     23  C   UNL     1       2.410   7.172  19.068  0.00  0.00    +0.000 C 
ATOM     24  O   UNL     1       2.120   6.598  20.113  0.00  0.00    +0.000 OA
ATOM     25  H   UNL     1       2.323   8.816  17.823  0.00  0.00    +0.000 HD
BRANCH  23  26
ATOM     26  C   UNL     1       3.380   6.468  18.184  0.00  0.00    +0.000 A 
ATOM     27  C   UNL     1       4.560   7.179  17.873  0.00  0.00    +0.000 A 
ATOM     28  C   UNL     1       5.560   6.613  17.083  0.00  0.00    +0.000 A 
ATOM     29  C   UNL     1       5.402   5.320  16.598  0.00  0.00    +0.000 A 
ATOM     30  C   UNL     1       4.248   4.596  16.913  0.00  0.00    +0.000 A 
ATOM     31  C   UNL     1       3.238   5.162  17.705  0.00  0.00    +0.000 A 
ATOM     32 CL   UNL     1       1.880   4.158  18.074  0.00  0.00    +0.000 Cl
ENDBRANCH  23  26
ENDBRANCH   1  22
TORSDOF 7
ENDMDL
MODEL 7
REMARK VINA RESULT:      -7.5      1.017      1.328
REMARK  Name = 
REMARK  7 active torsions:
REMARK  status: ('A' for Active; 'I' for Inactive)
REMARK    1  A    between atoms: C_2  and  C_13
REMARK    2  A    between atoms: N_3  and  C_4
REMARK    3  A    between atoms: C_8  and  C_9
REMARK    4  A    between atoms: C_9  and  O_11
REMARK    5  A    between atoms: C_13  and  N_20
REMARK    6  A    between atoms: C_14  and  C_15
REMARK    7  A    between atoms: C_21  and  C_23
REMARK                            x       y       z     vdW  Elec       q    Type
REMARK                         _______ _______ _______ _____ _____    ______ ____
ROOT
ATOM      1  C   UNL     1       3.779   4.262  17.400  0.00  0.00    +0.000 C 
ATOM      2  C   UNL     1       3.460   3.157  18.109  0.00  0.00    +0.000 C 
ENDROOT
BRANCH   2   3
ATOM      3  C   UNL     1       2.790   3.130  19.361  0.00  0.00    +0.000 A 
ATOM      4  C   UNL     1       3.238   2.707  20.608  0.00  0.00    +0.000 A 
ATOM      5  C   UNL     1       2.164   2.830  21.519  0.00  0.00    +0.000 A 
ATOM      6  C   UNL     1       1.107   3.305  20.786  0.00  0.00    +0.000 A 
ATOM      7  O   UNL     1       1.464   3.482  19.494  0.00  0.00    +0.000 OA
ENDBRANCH   2   3
BRANCH   1   9
ATOM      8  O   UNL     1       4.531   6.231  18.489  0.00  0.00    +0.000 OA
ATOM      9  C   UNL     1       3.554   5.626  18.048  0.00  0.00    +0.000 C 
ATOM     10  N   UNL     1       2.264   6.141  18.068  0.00  0.00    +0.000 N 
ATOM     11  H   UNL     1       1.490   5.531  17.814  0.00  0.00    +0.000 HD
BRANCH  10  12
ATOM     12  C   UNL     1       1.928   7.435  18.595  0.00  0.00    +0.000 A 
ATOM     13  C   UNL     1       1.881   8.586  17.790  0.00  0.00    +0.000 A 
ATOM     14  C   UNL     1       1.571   9.848  18.299  0.00  0.00    +0.000 A 
ATOM     15  C   UNL     1       1.277   9.994  19.643  0.00  0.00    +0.000 A 
ATOM     16  C   UNL     1       1.321   8.872  20.478  0.00  0.00    +0.000 A 
ATOM     17  C   UNL     1       1.626   7.593  19.954  0.00  0.00    +0.000 A 
BRANCH  16  18
ATOM     18  C   UNL     1       0.995   9.005  21.920  0.00  0.00    +0.000 C 
ATOM     19  O   UNL     1      -0.149   8.916  22.339  0.00  0.00    +0.000 OA
BRANCH  18  20
ATOM     20  O   UNL     1       2.061   9.205  22.724  0.00  0.00    +0.000 OA
ATOM     21  H   UNL     1       2.769   8.537  22.668  0.00  0.00    +0.000 HD
ENDBRANCH  18  20
ENDBRANCH  16  18
ENDBRANCH  10  12
ENDBRANCH   1   9
BRANCH   1  22
ATOM     22  N   UNL     1       4.409   4.214  16.152  0.00  0.00    +0.000 N 
ATOM     23  C   UNL     1       5.778   4.081  15.918  0.00  0.00    +0.000 C 
ATOM     24  O   UNL     1       6.640   3.969  16.784  0.00  0.00    +0.000 OA
ATOM     25  H   UNL     1       3.815   4.362  15.344  0.00  0.00    +0.000 HD
BRANCH  23  26
ATOM     26  C   UNL     1       6.269   4.136  14.512  0.00  0.00    +0.000 A 
ATOM     27  C   UNL     1       5.604   3.294  13.594  0.00  0.00    +0.000 A 
ATOM     28  C   UNL     1       5.949   3.283  12.243  0.00  0.00    +0.000 A 
ATOM     29  C   UNL     1       6.958   4.121  11.785  0.00  0.00    +0.000 A 
ATOM     30  C   UNL     1       7.612   4.974  12.678  0.00  0.00    +0.000 A 
ATOM     31  C   UNL     1       7.271   4.988  14.038  0.00  0.00    +0.000 A 
ATOM     32 CL   UNL     1       8.109   6.119  15.042  0.00  0.00    +0.000 Cl
ENDBRANCH  23  26
ENDBRANCH   1  22
TORSDOF 7
ENDMDL
MODEL 8
REMARK VINA RESULT:      -7.5      3.303      8.095
REMARK  Name = 
REMARK  7 active torsions:
REMARK  status: ('A' for Active; 'I' for Inactive)
REMARK    1  A    between atoms: C_2  and  C_13
REMARK    2  A    between atoms: N_3  and  C_4
REMARK    3  A    between atoms: C_8  and  C_9
REMARK    4  A    between atoms: C_9  and  O_11
REMARK    5  A    between atoms: C_13  and  N_20
REMARK    6  A    between atoms: C_14  and  C_15
REMARK    7  A    between atoms: C_21  and  C_23
REMARK                            x       y       z     vdW  Elec       q    Type
REMARK                         _______ _______ _______ _____ _____    ______ ____
ROOT
ATOM      1  C   UNL     1       1.743   7.125  20.092  0.00  0.00    +0.000 C 
ATOM      2  C   UNL     1       1.108   6.119  20.733  0.00  0.00    +0.000 C 
ENDROOT
BRANCH   2   3
ATOM      3  C   UNL     1       1.492   4.752  20.733  0.00  0.00    +0.000 A 
ATOM      4  C   UNL     1       1.012   3.687  19.977  0.00  0.00    +0.000 A 
ATOM      5  C   UNL     1       1.687   2.519  20.398  0.00  0.00    +0.000 A 
ATOM      6  C   UNL     1       2.534   2.918  21.400  0.00  0.00    +0.000 A 
ATOM      7  O   UNL     1       2.423   4.249  21.615  0.00  0.00    +0.000 OA
ENDBRANCH   2   3
BRANCH   1   9
ATOM      8  O   UNL     1       2.924   7.320  18.045  0.00  0.00    +0.000 OA
ATOM      9  C   UNL     1       2.887   6.771  19.146  0.00  0.00    +0.000 C 
ATOM     10  N   UNL     1       3.856   5.880  19.590  0.00  0.00    +0.000 N 
ATOM     11  H   UNL     1       3.688   5.362  20.449  0.00  0.00    +0.000 HD
BRANCH  10  12
ATOM     12  C   UNL     1       5.012   5.509  18.820  0.00  0.00    +0.000 A 
ATOM     13  C   UNL     1       6.309   5.516  19.359  0.00  0.00    +0.000 A 
ATOM     14  C   UNL     1       7.436   5.172  18.612  0.00  0.00    +0.000 A 
ATOM     15  C   UNL     1       7.294   4.786  17.291  0.00  0.00    +0.000 A 
ATOM     16  C   UNL     1       6.018   4.774  16.716  0.00  0.00    +0.000 A 
ATOM     17  C   UNL     1       4.878   5.114  17.482  0.00  0.00    +0.000 A 
BRANCH  16  18
ATOM     18  C   UNL     1       5.843   4.349  15.305  0.00  0.00    +0.000 C 
ATOM     19  O   UNL     1       5.354   5.085  14.460  0.00  0.00    +0.000 OA
BRANCH  18  20
ATOM     20  O   UNL     1       6.289   3.105  15.029  0.00  0.00    +0.000 OA
ATOM     21  H   UNL     1       6.280   2.848  14.089  0.00  0.00    +0.000 HD
ENDBRANCH  18  20
ENDBRANCH  16  18
ENDBRANCH  10  12
ENDBRANCH   1   9
BRANCH   1  22
ATOM     22  N   UNL     1       1.328   8.459  20.166  0.00  0.00    +0.000 N 
ATOM     23  C   UNL     1       1.311   9.261  21.308  0.00  0.00    +0.000 C 
ATOM     24  O   UNL     1       1.677   8.913  22.427  0.00  0.00    +0.000 OA
ATOM     25  H   UNL     1       0.937   8.855  19.319  0.00  0.00    +0.000 HD
BRANCH  23  26
ATOM     26  C   UNL     1       0.751  10.638  21.203  0.00  0.00    +0.000 A 
ATOM     27  C   UNL     1       1.272  11.437  20.163  0.00  0.00    +0.000 A 
ATOM     28  C   UNL     1       0.802  12.732  19.940  0.00  0.00    +0.000 A 
ATOM     29  C   UNL     1      -0.204  13.245  20.749  0.00  0.00    +0.000 A 
ATOM     30  C   UNL     1      -0.744  12.459  21.771  0.00  0.00    +0.000 A 
ATOM     31  C   UNL     1      -0.274  11.157  22.001  0.00  0.00    +0.000 A 
ATOM     32 CL   UNL     1      -1.048  10.258  23.258  0.00  0.00    +0.000 Cl
ENDBRANCH  23  26
ENDBRANCH   1  22
TORSDOF 7
ENDMDL
MODEL 9
REMARK VINA RESULT:      -7.5      3.945      6.954
REMARK  Name = 
REMARK  7 active torsions:
REMARK  status: ('A' for Active; 'I' for Inactive)
REMARK    1  A    between atoms: C_2  and  C_13
REMARK    2  A    between atoms: N_3  and  C_4
REMARK    3  A    between atoms: C_8  and  C_9
REMARK    4  A    between atoms: C_9  and  O_11
REMARK    5  A    between atoms: C_13  and  N_20
REMARK    6  A    between atoms: C_14  and  C_15
REMARK    7  A    between atoms: C_21  and  C_23
REMARK                            x       y       z     vdW  Elec       q    Type
REMARK                         _______ _______ _______ _____ _____    ______ ____
ROOT
ATOM      1  C   UNL     1       1.545   9.719  18.213  0.00  0.00    +0.000 C 
ATOM      2  C   UNL     1       2.363  10.790  18.114  0.00  0.00    +0.000 C 
ENDROOT
BRANCH   2   3
ATOM      3  C   UNL     1       2.050  12.121  18.497  0.00  0.00    +0.000 A 
ATOM      4  C   UNL     1       2.412  13.330  17.912  0.00  0.00    +0.000 A 
ATOM      5  C   UNL     1       1.892  14.372  18.714  0.00  0.00    +0.000 A 
ATOM      6  C   UNL     1       1.253  13.755  19.759  0.00  0.00    +0.000 A 
ATOM      7  O   UNL     1       1.345  12.410  19.645  0.00  0.00    +0.000 OA
ENDBRANCH   2   3
BRANCH   1   9
ATOM      8  O   UNL     1      -0.272   9.566  19.729  0.00  0.00    +0.000 OA
ATOM      9  C   UNL     1       0.092   9.955  18.620  0.00  0.00    +0.000 C 
ATOM     10  N   UNL     1      -0.736  10.638  17.738  0.00  0.00    +0.000 N 
ATOM     11  H   UNL     1      -0.409  10.804  16.789  0.00  0.00    +0.000 HD
BRANCH  10  12
ATOM     12  C   UNL     1      -2.104  10.973  18.025  0.00  0.00    +0.000 A 
ATOM     13  C   UNL     1      -3.179  10.435  17.297  0.00  0.00    +0.000 A 
ATOM     14  C   UNL     1      -4.508  10.769  17.560  0.00  0.00    +0.000 A 
ATOM     15  C   UNL     1      -4.806  11.649  18.586  0.00  0.00    +0.000 A 
ATOM     16  C   UNL     1      -3.761  12.212  19.328  0.00  0.00    +0.000 A 
ATOM     17  C   UNL     1      -2.416  11.861  19.063  0.00  0.00    +0.000 A 
BRANCH  16  18
ATOM     18  C   UNL     1      -4.060  13.147  20.441  0.00  0.00    +0.000 C 
ATOM     19  O   UNL     1      -3.798  12.879  21.604  0.00  0.00    +0.000 OA
BRANCH  18  20
ATOM     20  O   UNL     1      -4.616  14.317  20.062  0.00  0.00    +0.000 OA
ATOM     21  H   UNL     1      -4.822  14.404  19.113  0.00  0.00    +0.000 HD
ENDBRANCH  18  20
ENDBRANCH  16  18
ENDBRANCH  10  12
ENDBRANCH   1   9
BRANCH   1  22
ATOM     22  N   UNL     1       1.933   8.426  17.849  0.00  0.00    +0.000 N 
ATOM     23  C   UNL     1       2.314   7.399  18.714  0.00  0.00    +0.000 C 
ATOM     24  O   UNL     1       2.350   7.478  19.938  0.00  0.00    +0.000 OA
ATOM     25  H   UNL     1       2.011   8.244  16.855  0.00  0.00    +0.000 HD
BRANCH  23  26
ATOM     26  C   UNL     1       2.780   6.111  18.129  0.00  0.00    +0.000 A 
ATOM     27  C   UNL     1       1.848   5.050  18.156  0.00  0.00    +0.000 A 
ATOM     28  C   UNL     1       2.153   3.805  17.606  0.00  0.00    +0.000 A 
ATOM     29  C   UNL     1       3.393   3.602  17.011  0.00  0.00    +0.000 A 
ATOM     30  C   UNL     1       4.318   4.649  16.959  0.00  0.00    +0.000 A 
ATOM     31  C   UNL     1       4.017   5.902  17.512  0.00  0.00    +0.000 A 
ATOM     32 CL   UNL     1       5.216   7.137  17.347  0.00  0.00    +0.000 Cl
ENDBRANCH  23  26
ENDBRANCH   1  22
TORSDOF 7
ENDMDL
