MODEL 1
REMARK VINA RESULT:      -7.5      0.000      0.000
REMARK  Name = 
REMARK  6 active torsions:
REMARK  status: ('A' for Active; 'I' for Inactive)
REMARK    1  A    between atoms: C_1  and  O_2
REMARK    2  A    between atoms: O_2  and  C_3
REMARK    3  A    between atoms: C_7  and  O_8
REMARK    4  A    between atoms: O_8  and  C_9
REMARK    5  A    between atoms: N_11  and  C_12
REMARK    6  A    between atoms: C_12  and  C_13
REMARK                            x       y       z     vdW  Elec       q    Type
REMARK                         _______ _______ _______ _____ _____    ______ ____
ROOT
ATOM      1  C   UNL     1       5.135   5.197  16.267  0.00  0.00    +0.000 C 
ATOM      2  C   UNL     1       4.969   4.588  17.675  0.00  0.00    +0.000 C 
ATOM      3  N   UNL     1       4.279   5.806  18.148  0.00  0.00    +0.000 NA
ATOM      4  C   UNL     1       4.686   6.523  16.922  0.00  0.00    +0.000 C 
ENDROOT
BRANCH   1   5
ATOM      5  O   UNL     1       6.467   5.208  15.699  0.00  0.00    +0.000 OA
BRANCH   5  10
ATOM      6  C   UNL     1       6.116   3.505  12.420  0.00  0.00    +0.000 A 
ATOM      7  C   UNL     1       7.155   4.133  11.734  0.00  0.00    +0.000 A 
ATOM      8  C   UNL     1       7.926   5.108  12.367  0.00  0.00    +0.000 A 
ATOM      9  C   UNL     1       7.664   5.441  13.697  0.00  0.00    +0.000 A 
ATOM     10  C   UNL     1       6.648   4.791  14.400  0.00  0.00    +0.000 A 
ATOM     11  C   UNL     1       5.876   3.818  13.763  0.00  0.00    +0.000 A 
BRANCH   6  13
ATOM     12  C   UNL     1       4.151   2.992  11.221  0.00  0.00    +0.000 C 
ATOM     13  O   UNL     1       5.421   2.564  11.708  0.00  0.00    +0.000 OA
ENDBRANCH   6  13
ENDBRANCH   5  10
ENDBRANCH   1   5
BRANCH   3  14
ATOM     14  C   UNL     1       2.822   5.590  18.190  0.00  0.00    +0.000 C 
BRANCH  14  15
ATOM     15  C   UNL     1       2.406   4.579  19.246  0.00  0.00    +0.000 A 
ATOM     16  C   UNL     1       2.348   4.994  20.594  0.00  0.00    +0.000 A 
ATOM     17  C   UNL     1       2.033   4.092  21.612  0.00  0.00    +0.000 A 
ATOM     18  C   UNL     1       1.769   2.769  21.294  0.00  0.00    +0.000 A 
ATOM     19  F   UNL     1       1.472   1.900  22.270  0.00  0.00    +0.000 F 
ATOM     20  C   UNL     1       1.815   2.329  19.979  0.00  0.00    +0.000 A 
ATOM     21  C   UNL     1       2.137   3.229  18.958  0.00  0.00    +0.000 A 
ATOM     22 CL   UNL     1       2.196   2.599  17.349  0.00  0.00    +0.000 Cl
ENDBRANCH  14  15
ENDBRANCH   3  14
TORSDOF 5
ENDMDL
MODEL 2
REMARK VINA RESULT:      -7.2      1.363      1.580
REMARK  Name = 
REMARK  6 active torsions:
REMARK  status: ('A' for Active; 'I' for Inactive)
REMARK    1  A    between atoms: C_1  and  O_2
REMARK    2  A    between atoms: O_2  and  C_3
REMARK    3  A    between atoms: C_7  and  O_8
REMARK    4  A    between atoms: O_8  and  C_9
REMARK    5  A    between atoms: N_11  and  C_12
REMARK    6  A    between atoms: C_12  and  C_13
REMARK                            x       y       z     vdW  Elec       q    Type
REMARK                         _______ _______ _______ _____ _____    ______ ____
ROOT
ATOM      1  C   UNL     1       6.831   4.590  16.456  0.00  0.00    +0.000 C 
ATOM      2  C   UNL     1       7.286   4.964  17.882  0.00  0.00    +0.000 C 
ATOM      3  N   UNL     1       5.883   5.143  18.309  0.00  0.00    +0.000 NA
ATOM      4  C   UNL     1       5.439   5.089  16.901  0.00  0.00    +0.000 C 
ENDROOT
BRANCH   1   5
ATOM      5  O   UNL     1       7.427   5.318  15.355  0.00  0.00    +0.000 OA
BRANCH   5  10
ATOM      6  C   UNL     1       6.167   3.536  12.354  0.00  0.00    +0.000 A 
ATOM      7  C   UNL     1       6.949   4.161  11.383  0.00  0.00    +0.000 A 
ATOM      8  C   UNL     1       7.852   5.160  11.745  0.00  0.00    +0.000 A 
ATOM      9  C   UNL     1       7.983   5.521  13.087  0.00  0.00    +0.000 A 
ATOM     10  C   UNL     1       7.229   4.874  14.068  0.00  0.00    +0.000 A 
ATOM     11  C   UNL     1       6.324   3.877  13.702  0.00  0.00    +0.000 A 
BRANCH   6  13
ATOM     12  C   UNL     1       4.130   3.059  11.266  0.00  0.00    +0.000 C 
ATOM     13  O   UNL     1       5.314   2.569  11.893  0.00  0.00    +0.000 OA
ENDBRANCH   6  13
ENDBRANCH   5  10
ENDBRANCH   1   5
BRANCH   3  14
ATOM     14  C   UNL     1       5.420   3.968  19.067  0.00  0.00    +0.000 C 
BRANCH  14  15
ATOM     15  C   UNL     1       3.933   4.014  19.378  0.00  0.00    +0.000 A 
ATOM     16  C   UNL     1       3.411   5.160  20.018  0.00  0.00    +0.000 A 
ATOM     17  C   UNL     1       2.066   5.230  20.384  0.00  0.00    +0.000 A 
ATOM     18  C   UNL     1       1.228   4.160  20.111  0.00  0.00    +0.000 A 
ATOM     19  F   UNL     1      -0.063   4.222  20.466  0.00  0.00    +0.000 F 
ATOM     20  C   UNL     1       1.708   3.020  19.482  0.00  0.00    +0.000 A 
ATOM     21  C   UNL     1       3.057   2.945  19.120  0.00  0.00    +0.000 A 
ATOM     22 CL   UNL     1       3.583   1.484  18.360  0.00  0.00    +0.000 Cl
ENDBRANCH  14  15
ENDBRANCH   3  14
TORSDOF 5
ENDMDL
MODEL 3
REMARK VINA RESULT:      -7.2      1.497      1.807
REMARK  Name = 
REMARK  6 active torsions:
REMARK  status: ('A' for Active; 'I' for Inactive)
REMARK    1  A    between atoms: C_1  and  O_2
REMARK    2  A    between atoms: O_2  and  C_3
REMARK    3  A    between atoms: C_7  and  O_8
REMARK    4  A    between atoms: O_8  and  C_9
REMARK    5  A    between atoms: N_11  and  C_12
REMARK    6  A    between atoms: C_12  and  C_13
REMARK                            x       y       z     vdW  Elec       q    Type
REMARK                         _______ _______ _______ _____ _____    ______ ____
ROOT
ATOM      1  C   UNL     1       6.637   5.359  16.416  0.00  0.00    +0.000 C 
ATOM      2  C   UNL     1       5.275   4.639  16.326  0.00  0.00    +0.000 C 
ATOM      3  N   UNL     1       5.290   4.375  17.780  0.00  0.00    +0.000 NA
ATOM      4  C   UNL     1       6.709   4.781  17.847  0.00  0.00    +0.000 C 
ENDROOT
BRANCH   1   5
ATOM      5  O   UNL     1       7.684   4.918  15.517  0.00  0.00    +0.000 OA
BRANCH   5  10
ATOM      6  C   UNL     1       6.201   3.540  12.408  0.00  0.00    +0.000 A 
ATOM      7  C   UNL     1       6.858   4.343  11.476  0.00  0.00    +0.000 A 
ATOM      8  C   UNL     1       7.755   5.323  11.902  0.00  0.00    +0.000 A 
ATOM      9  C   UNL     1       8.004   5.485  13.266  0.00  0.00    +0.000 A 
ATOM     10  C   UNL     1       7.376   4.661  14.201  0.00  0.00    +0.000 A 
ATOM     11  C   UNL     1       6.477   3.684  13.771  0.00  0.00    +0.000 A 
BRANCH   6  13
ATOM     12  C   UNL     1       4.162   3.146  11.290  0.00  0.00    +0.000 C 
ATOM     13  O   UNL     1       5.342   2.610  11.884  0.00  0.00    +0.000 OA
ENDBRANCH   6  13
ENDBRANCH   5  10
ENDBRANCH   1   5
BRANCH   3  14
ATOM     14  C   UNL     1       4.420   5.332  18.486  0.00  0.00    +0.000 C 
BRANCH  14  15
ATOM     15  C   UNL     1       3.512   4.663  19.506  0.00  0.00    +0.000 A 
ATOM     16  C   UNL     1       3.680   3.284  19.757  0.00  0.00    +0.000 A 
ATOM     17  C   UNL     1       2.834   2.604  20.636  0.00  0.00    +0.000 A 
ATOM     18  C   UNL     1       1.816   3.296  21.274  0.00  0.00    +0.000 A 
ATOM     19  F   UNL     1       0.999   2.645  22.114  0.00  0.00    +0.000 F 
ATOM     20  C   UNL     1       1.626   4.652  21.051  0.00  0.00    +0.000 A 
ATOM     21  C   UNL     1       2.468   5.333  20.166  0.00  0.00    +0.000 A 
ATOM     22 CL   UNL     1       2.152   7.016  19.924  0.00  0.00    +0.000 Cl
ENDBRANCH  14  15
ENDBRANCH   3  14
TORSDOF 5
ENDMDL
MODEL 4
REMARK VINA RESULT:      -7.0      2.758      3.399
REMARK  Name = 
REMARK  6 active torsions:
REMARK  status: ('A' for Active; 'I' for Inactive)
REMARK    1  A    between atoms: C_1  and  O_2
REMARK    2  A    between atoms: O_2  and  C_3
REMARK    3  A    between atoms: C_7  and  O_8
REMARK    4  A    between atoms: O_8  and  C_9
REMARK    5  A    between atoms: N_11  and  C_12
REMARK    6  A    between atoms: C_12  and  C_13
REMARK                            x       y       z     vdW  Elec       q    Type
REMARK                         _______ _______ _______ _____ _____    ______ ____
ROOT
ATOM      1  C   UNL     1       4.941   5.322  16.335  0.00  0.00    +0.000 C 
ATOM      2  C   UNL     1       4.502   4.896  17.752  0.00  0.00    +0.000 C 
ATOM      3  N   UNL     1       4.068   6.275  18.058  0.00  0.00    +0.000 NA
ATOM      4  C   UNL     1       4.747   6.768  16.843  0.00  0.00    +0.000 C 
ENDROOT
BRANCH   1   5
ATOM      5  O   UNL     1       6.289   4.984  15.926  0.00  0.00    +0.000 OA
BRANCH   5  10
ATOM      6  C   UNL     1       6.101   3.506  12.528  0.00  0.00    +0.000 A 
ATOM      7  C   UNL     1       7.163   4.187  11.933  0.00  0.00    +0.000 A 
ATOM      8  C   UNL     1       7.894   5.123  12.664  0.00  0.00    +0.000 A 
ATOM      9  C   UNL     1       7.570   5.363  14.000  0.00  0.00    +0.000 A 
ATOM     10  C   UNL     1       6.531   4.658  14.612  0.00  0.00    +0.000 A 
ATOM     11  C   UNL     1       5.800   3.725  13.876  0.00  0.00    +0.000 A 
BRANCH   6  13
ATOM     12  C   UNL     1       4.174   3.037  11.254  0.00  0.00    +0.000 C 
ATOM     13  O   UNL     1       5.450   2.609  11.723  0.00  0.00    +0.000 OA
ENDBRANCH   6  13
ENDBRANCH   5  10
ENDBRANCH   1   5
BRANCH   3  14
ATOM     14  C   UNL     1       2.604   6.392  17.946  0.00  0.00    +0.000 C 
BRANCH  14  15
ATOM     15  C   UNL     1       2.014   7.392  18.927  0.00  0.00    +0.000 A 
ATOM     16  C   UNL     1       1.790   8.716  18.489  0.00  0.00    +0.000 A 
ATOM     17  C   UNL     1       1.310   9.692  19.365  0.00  0.00    +0.000 A 
ATOM     18  C   UNL     1       1.046   9.355  20.683  0.00  0.00    +0.000 A 
ATOM     19  F   UNL     1       0.590  10.290  21.528  0.00  0.00    +0.000 F 
ATOM     20  C   UNL     1       1.254   8.063  21.145  0.00  0.00    +0.000 A 
ATOM     21  C   UNL     1       1.741   7.085  20.271  0.00  0.00    +0.000 A 
ATOM     22 CL   UNL     1       1.994   5.505  20.927  0.00  0.00    +0.000 Cl
ENDBRANCH  14  15
ENDBRANCH   3  14
TORSDOF 5
ENDMDL
MODEL 5
REMARK VINA RESULT:      -7.0      1.734      2.162
REMARK  Name = 
REMARK  6 active torsions:
REMARK  status: ('A' for Active; 'I' for Inactive)
REMARK    1  A    between atoms: C_1  and  O_2
REMARK    2  A    between atoms: O_2  and  C_3
REMARK    3  A    between atoms: C_7  and  O_8
REMARK    4  A    between atoms: O_8  and  C_9
REMARK    5  A    between atoms: N_11  and  C_12
REMARK    6  A    between atoms: C_12  and  C_13
REMARK                            x       y       z     vdW  Elec       q    Type
REMARK                         _______ _______ _______ _____ _____    ______ ____
ROOT
ATOM      1  C   UNL     1       6.737   4.952  16.664  0.00  0.00    +0.000 C 
ATOM      2  C   UNL     1       6.857   5.683  18.018  0.00  0.00    +0.000 C 
ATOM      3  N   UNL     1       5.414   5.495  18.276  0.00  0.00    +0.000 NA
ATOM      4  C   UNL     1       5.211   5.070  16.875  0.00  0.00    +0.000 C 
ENDROOT
BRANCH   1   5
ATOM      5  O   UNL     1       7.255   5.630  15.494  0.00  0.00    +0.000 OA
BRANCH   5  10
ATOM      6  C   UNL     1       6.175   3.477  12.671  0.00  0.00    +0.000 A 
ATOM      7  C   UNL     1       6.977   4.015  11.665  0.00  0.00    +0.000 A 
ATOM      8  C   UNL     1       7.833   5.080  11.944  0.00  0.00    +0.000 A 
ATOM      9  C   UNL     1       7.897   5.594  13.240  0.00  0.00    +0.000 A 
ATOM     10  C   UNL     1       7.123   5.036  14.260  0.00  0.00    +0.000 A 
ATOM     11  C   UNL     1       6.265   3.973  13.976  0.00  0.00    +0.000 A 
BRANCH   6  13
ATOM     12  C   UNL     1       5.917   1.588  11.283  0.00  0.00    +0.000 C 
ATOM     13  O   UNL     1       5.371   2.435  12.291  0.00  0.00    +0.000 OA
ENDBRANCH   6  13
ENDBRANCH   5  10
ENDBRANCH   1   5
BRANCH   3  14
ATOM     14  C   UNL     1       5.199   4.381  19.216  0.00  0.00    +0.000 C 
BRANCH  14  15
ATOM     15  C   UNL     1       3.801   3.790  19.120  0.00  0.00    +0.000 A 
ATOM     16  C   UNL     1       3.662   2.450  18.699  0.00  0.00    +0.000 A 
ATOM     17  C   UNL     1       2.400   1.876  18.532  0.00  0.00    +0.000 A 
ATOM     18  C   UNL     1       1.267   2.632  18.789  0.00  0.00    +0.000 A 
ATOM     19  F   UNL     1       0.055   2.085  18.625  0.00  0.00    +0.000 F 
ATOM     20  C   UNL     1       1.369   3.951  19.207  0.00  0.00    +0.000 A 
ATOM     21  C   UNL     1       2.632   4.531  19.367  0.00  0.00    +0.000 A 
ATOM     22 CL   UNL     1       2.676   6.185  19.870  0.00  0.00    +0.000 Cl
ENDBRANCH  14  15
ENDBRANCH   3  14
TORSDOF 5
ENDMDL
MODEL 6
REMARK VINA RESULT:      -7.0      1.758      2.018
REMARK  Name = 
REMARK  6 active torsions:
REMARK  status: ('A' for Active; 'I' for Inactive)
REMARK    1  A    between atoms: C_1  and  O_2
REMARK    2  A    between atoms: O_2  and  C_3
REMARK    3  A    between atoms: C_7  and  O_8
REMARK    4  A    between atoms: O_8  and  C_9
REMARK    5  A    between atoms: N_11  and  C_12
REMARK    6  A    between atoms: C_12  and  C_13
REMARK                            x       y       z     vdW  Elec       q    Type
REMARK                         _______ _______ _______ _____ _____    ______ ____
ROOT
ATOM      1  C   UNL     1       6.637   5.303  16.766  0.00  0.00    +0.000 C 
ATOM      2  C   UNL     1       5.834   4.097  17.296  0.00  0.00    +0.000 C 
ATOM      3  N   UNL     1       6.102   4.501  18.692  0.00  0.00    +0.000 NA
ATOM      4  C   UNL     1       7.113   5.472  18.226  0.00  0.00    +0.000 C 
ENDROOT
BRANCH   1   5
ATOM      5  O   UNL     1       7.684   5.034  15.801  0.00  0.00    +0.000 OA
BRANCH   5  10
ATOM      6  C   UNL     1       6.058   3.619  12.781  0.00  0.00    +0.000 A 
ATOM      7  C   UNL     1       6.769   4.314  11.802  0.00  0.00    +0.000 A 
ATOM      8  C   UNL     1       7.747   5.238  12.169  0.00  0.00    +0.000 A 
ATOM      9  C   UNL     1       8.025   5.451  13.520  0.00  0.00    +0.000 A 
ATOM     10  C   UNL     1       7.341   4.733  14.503  0.00  0.00    +0.000 A 
ATOM     11  C   UNL     1       6.360   3.812  14.133  0.00  0.00    +0.000 A 
BRANCH   6  13
ATOM     12  C   UNL     1       4.232   3.264  11.332  0.00  0.00    +0.000 C 
ATOM     13  O   UNL     1       5.120   2.737  12.314  0.00  0.00    +0.000 OA
ENDBRANCH   6  13
ENDBRANCH   5  10
ENDBRANCH   1   5
BRANCH   3  14
ATOM     14  C   UNL     1       4.926   5.178  19.267  0.00  0.00    +0.000 C 
BRANCH  14  15
ATOM     15  C   UNL     1       3.648   4.369  19.118  0.00  0.00    +0.000 A 
ATOM     16  C   UNL     1       3.645   3.024  19.548  0.00  0.00    +0.000 A 
ATOM     17  C   UNL     1       2.519   2.216  19.378  0.00  0.00    +0.000 A 
ATOM     18  C   UNL     1       1.385   2.743  18.781  0.00  0.00    +0.000 A 
ATOM     19  F   UNL     1       0.305   1.969  18.611  0.00  0.00    +0.000 F 
ATOM     20  C   UNL     1       1.354   4.062  18.348  0.00  0.00    +0.000 A 
ATOM     21  C   UNL     1       2.483   4.871  18.512  0.00  0.00    +0.000 A 
ATOM     22 CL   UNL     1       2.373   6.495  17.928  0.00  0.00    +0.000 Cl
ENDBRANCH  14  15
ENDBRANCH   3  14
TORSDOF 5
ENDMDL
MODEL 7
REMARK VINA RESULT:      -6.9      1.770      2.015
REMARK  Name = 
REMARK  6 active torsions:
REMARK  status: ('A' for Active; 'I' for Inactive)
REMARK    1  A    between atoms: C_1  and  O_2
REMARK    2  A    between atoms: O_2  and  C_3
REMARK    3  A    between atoms: C_7  and  O_8
REMARK    4  A    between atoms: O_8  and  C_9
REMARK    5  A    between atoms: N_11  and  C_12
REMARK    6  A    between atoms: C_12  and  C_13
REMARK                            x       y       z     vdW  Elec       q    Type
REMARK                         _______ _______ _______ _____ _____    ______ ____
ROOT
ATOM      1  C   UNL     1       6.543   5.392  16.676  0.00  0.00    +0.000 C 
ATOM      2  C   UNL     1       5.807   4.128  17.168  0.00  0.00    +0.000 C 
ATOM      3  N   UNL     1       6.080   4.487  18.575  0.00  0.00    +0.000 NA
ATOM      4  C   UNL     1       7.036   5.524  18.134  0.00  0.00    +0.000 C 
ENDROOT
BRANCH   1   5
ATOM      5  O   UNL     1       7.583   5.212  15.684  0.00  0.00    +0.000 OA
BRANCH   5  10
ATOM      6  C   UNL     1       5.914   3.646  12.764  0.00  0.00    +0.000 A 
ATOM      7  C   UNL     1       6.674   4.217  11.744  0.00  0.00    +0.000 A 
ATOM      8  C   UNL     1       7.699   5.112  12.049  0.00  0.00    +0.000 A 
ATOM      9  C   UNL     1       7.972   5.421  13.383  0.00  0.00    +0.000 A 
ATOM     10  C   UNL     1       7.239   4.825  14.410  0.00  0.00    +0.000 A 
ATOM     11  C   UNL     1       6.212   3.932  14.101  0.00  0.00    +0.000 A 
BRANCH   6  13
ATOM     12  C   UNL     1       4.246   3.165  11.168  0.00  0.00    +0.000 C 
ATOM     13  O   UNL     1       4.933   2.781  12.357  0.00  0.00    +0.000 OA
ENDBRANCH   6  13
ENDBRANCH   5  10
ENDBRANCH   1   5
BRANCH   3  14
ATOM     14  C   UNL     1       4.885   5.083  19.197  0.00  0.00    +0.000 C 
BRANCH  14  15
ATOM     15  C   UNL     1       3.633   4.244  18.993  0.00  0.00    +0.000 A 
ATOM     16  C   UNL     1       2.595   4.763  18.190  0.00  0.00    +0.000 A 
ATOM     17  C   UNL     1       1.398   4.065  18.020  0.00  0.00    +0.000 A 
ATOM     18  C   UNL     1       1.229   2.840  18.648  0.00  0.00    +0.000 A 
ATOM     19  F   UNL     1       0.079   2.169  18.491  0.00  0.00    +0.000 F 
ATOM     20  C   UNL     1       2.230   2.300  19.442  0.00  0.00    +0.000 A 
ATOM     21  C   UNL     1       3.428   3.002  19.619  0.00  0.00    +0.000 A 
ATOM     22 CL   UNL     1       4.617   2.274  20.641  0.00  0.00    +0.000 Cl
ENDBRANCH  14  15
ENDBRANCH   3  14
TORSDOF 5
ENDMDL
MODEL 8
REMARK VINA RESULT:      -6.8      4.674      6.042
REMARK  Name = 
REMARK  6 active torsions:
REMARK  status: ('A' for Active; 'I' for Inactive)
REMARK    1  A    between atoms: C_1  and  O_2
REMARK    2  A    between atoms: O_2  and  C_3
REMARK    3  A    between atoms: C_7  and  O_8
REMARK    4  A    between atoms: O_8  and  C_9
REMARK    5  A    between atoms: N_11  and  C_12
REMARK    6  A    between atoms: C_12  and  C_13
REMARK                            x       y       z     vdW  Elec       q    Type
REMARK                         _______ _______ _______ _____ _____    ______ ____
ROOT
ATOM      1  C   UNL     1       3.354   5.664  19.795  0.00  0.00    +0.000 C 
ATOM      2  C   UNL     1       2.792   6.852  18.986  0.00  0.00    +0.000 C 
ATOM      3  N   UNL     1       1.609   6.924  19.869  0.00  0.00    +0.000 NA
ATOM      4  C   UNL     1       1.962   5.619  20.464  0.00  0.00    +0.000 C 
ENDROOT
BRANCH   1   5
ATOM      5  O   UNL     1       3.725   4.473  19.059  0.00  0.00    +0.000 OA
BRANCH   5  10
ATOM      6  C   UNL     1       6.171   4.130  16.290  0.00  0.00    +0.000 A 
ATOM      7  C   UNL     1       7.301   4.638  16.931  0.00  0.00    +0.000 A 
ATOM      8  C   UNL     1       7.217   5.092  18.246  0.00  0.00    +0.000 A 
ATOM      9  C   UNL     1       6.000   5.021  18.926  0.00  0.00    +0.000 A 
ATOM     10  C   UNL     1       4.874   4.481  18.302  0.00  0.00    +0.000 A 
ATOM     11  C   UNL     1       4.961   4.030  16.984  0.00  0.00    +0.000 A 
BRANCH   6  13
ATOM     12  C   UNL     1       6.791   4.725  14.094  0.00  0.00    +0.000 C 
ATOM     13  O   UNL     1       6.362   3.711  15.000  0.00  0.00    +0.000 OA
ENDBRANCH   6  13
ENDBRANCH   5  10
ENDBRANCH   1   5
BRANCH   3  14
ATOM     14  C   UNL     1       1.758   8.021  20.841  0.00  0.00    +0.000 C 
BRANCH  14  15
ATOM     15  C   UNL     1       0.831   9.192  20.557  0.00  0.00    +0.000 A 
ATOM     16  C   UNL     1       0.744   9.679  19.235  0.00  0.00    +0.000 A 
ATOM     17  C   UNL     1      -0.041  10.792  18.927  0.00  0.00    +0.000 A 
ATOM     18  C   UNL     1      -0.750  11.426  19.936  0.00  0.00    +0.000 A 
ATOM     19  F   UNL     1      -1.501  12.497  19.645  0.00  0.00    +0.000 F 
ATOM     20  C   UNL     1      -0.688  10.971  21.246  0.00  0.00    +0.000 A 
ATOM     21  C   UNL     1       0.104   9.861  21.557  0.00  0.00    +0.000 A 
ATOM     22 CL   UNL     1       0.146   9.370  23.214  0.00  0.00    +0.000 Cl
ENDBRANCH  14  15
ENDBRANCH   3  14
TORSDOF 5
ENDMDL
MODEL 9
REMARK VINA RESULT:      -6.8      5.801      8.626
REMARK  Name = 
REMARK  6 active torsions:
REMARK  status: ('A' for Active; 'I' for Inactive)
REMARK    1  A    between atoms: C_1  and  O_2
REMARK    2  A    between atoms: O_2  and  C_3
REMARK    3  A    between atoms: C_7  and  O_8
REMARK    4  A    between atoms: O_8  and  C_9
REMARK    5  A    between atoms: N_11  and  C_12
REMARK    6  A    between atoms: C_12  and  C_13
REMARK                            x       y       z     vdW  Elec       q    Type
REMARK                         _______ _______ _______ _____ _____    ______ ____
ROOT
ATOM      1  C   UNL     1       1.024   8.896  18.581  0.00  0.00    +0.000 C 
ATOM      2  C   UNL     1       2.227   8.752  17.625  0.00  0.00    +0.000 C 
ATOM      3  N   UNL     1       2.870   7.786  18.540  0.00  0.00    +0.000 NA
ATOM      4  C   UNL     1       1.898   8.128  19.598  0.00  0.00    +0.000 C 
ENDROOT
BRANCH   1   5
ATOM      5  O   UNL     1       0.646  10.236  18.978  0.00  0.00    +0.000 OA
BRANCH   5  10
ATOM      6  C   UNL     1      -2.760  10.692  17.577  0.00  0.00    +0.000 A 
ATOM      7  C   UNL     1      -3.234  11.659  18.463  0.00  0.00    +0.000 A 
ATOM      8  C   UNL     1      -2.424  12.117  19.502  0.00  0.00    +0.000 A 
ATOM      9  C   UNL     1      -1.129  11.615  19.642  0.00  0.00    +0.000 A 
ATOM     10  C   UNL     1      -0.636  10.673  18.737  0.00  0.00    +0.000 A 
ATOM     11  C   UNL     1      -1.451  10.215  17.701  0.00  0.00    +0.000 A 
BRANCH   6  13
ATOM     12  C   UNL     1      -3.303  10.765  15.284  0.00  0.00    +0.000 C 
ATOM     13  O   UNL     1      -3.634  10.312  16.594  0.00  0.00    +0.000 OA
ENDBRANCH   6  13
ENDBRANCH   5  10
ENDBRANCH   1   5
BRANCH   3  14
ATOM     14  C   UNL     1       2.678   6.409  18.053  0.00  0.00    +0.000 C 
BRANCH  14  15
ATOM     15  C   UNL     1       3.953   5.798  17.493  0.00  0.00    +0.000 A 
ATOM     16  C   UNL     1       5.088   6.623  17.341  0.00  0.00    +0.000 A 
ATOM     17  C   UNL     1       6.264   6.132  16.772  0.00  0.00    +0.000 A 
ATOM     18  C   UNL     1       6.320   4.811  16.355  0.00  0.00    +0.000 A 
ATOM     19  F   UNL     1       7.447   4.337  15.804  0.00  0.00    +0.000 F 
ATOM     20  C   UNL     1       5.223   3.972  16.492  0.00  0.00    +0.000 A 
ATOM     21  C   UNL     1       4.041   4.465  17.054  0.00  0.00    +0.000 A 
ATOM     22 CL   UNL     1       2.712   3.365  17.171  0.00  0.00    +0.000 Cl
ENDBRANCH  14  15
ENDBRANCH   3  14
TORSDOF 5
ENDMDL
