MODEL 1
REMARK VINA RESULT:      -6.7      0.000      0.000
REMARK  Name = 
REMARK  14 active torsions:
REMARK  status: ('A' for Active; 'I' for Inactive)
REMARK    1  A    between atoms: C_1  and  C_2
REMARK    2  A    between atoms: C_4  and  C_5
REMARK    3  A    between atoms: C_12  and  C_13
REMARK    4  A    between atoms: C_14  and  C_15
REMARK    5  A    between atoms: C_15  and  O_16
REMARK    6  A    between atoms: C_15  and  C_17
REMARK    7  A    between atoms: C_17  and  C_18
REMARK    8  A    between atoms: C_18  and  O_19
REMARK    9  A    between atoms: C_18  and  C_20
REMARK   10  A    between atoms: C_20  and  C_21
REMARK   11  A    between atoms: C_21  and  O_23
REMARK   12  A    between atoms: C_24  and  C_25
REMARK   13  A    between atoms: C_25  and  C_26
REMARK   14  A    between atoms: C_25  and  C_27
REMARK                            x       y       z     vdW  Elec       q    Type
REMARK                         _______ _______ _______ _____ _____    ______ ____
ROOT
ATOM      1  C   UNL     1      -0.084   9.246  22.777  0.00  0.00    +0.000 C 
ATOM      2  C   UNL     1       0.554   8.728  21.525  0.00  0.00    +0.000 A 
ATOM      3  C   UNL     1       1.026   7.415  21.425  0.00  0.00    +0.000 A 
ATOM      4  C   UNL     1       1.677   6.945  20.273  0.00  0.00    +0.000 A 
ATOM      5  C   UNL     1       1.816   7.859  19.185  0.00  0.00    +0.000 A 
ATOM      6  C   UNL     1       1.314   9.196  19.271  0.00  0.00    +0.000 A 
ATOM      7  N   UNL     1       0.691   9.616  20.460  0.00  0.00    +0.000 N 
ATOM      8  O   UNL     1       0.245  10.808  20.590  0.00  0.00    +0.000 OA
ENDROOT
BRANCH   4   9
ATOM      9  C   UNL     1       2.215   5.542  20.283  0.00  0.00    +0.000 A 
ATOM     10  C   UNL     1       3.547   5.235  19.946  0.00  0.00    +0.000 A 
ATOM     11  C   UNL     1       4.067   3.944  20.087  0.00  0.00    +0.000 A 
ATOM     12  C   UNL     1       3.239   2.914  20.497  0.00  0.00    +0.000 A 
ATOM     13  F   UNL     1       3.737   1.679  20.644  0.00  0.00    +0.000 F 
ATOM     14  C   UNL     1       1.898   3.150  20.754  0.00  0.00    +0.000 A 
ATOM     15  C   UNL     1       1.395   4.453  20.660  0.00  0.00    +0.000 A 
ENDBRANCH   4   9
BRANCH   6  16
ATOM     16  C   UNL     1       1.452  10.283  18.206  0.00  0.00    +0.000 C 
ATOM     17  C   UNL     1       0.069  10.687  17.687  0.00  0.00    +0.000 C 
ATOM     18  C   UNL     1       2.279  11.530  18.541  0.00  0.00    +0.000 C 
ENDBRANCH   6  16
BRANCH   5  19
ATOM     19  C   UNL     1       2.466   7.426  17.939  0.00  0.00    +0.000 C 
ATOM     20  C   UNL     1       3.790   7.259  17.781  0.00  0.00    +0.000 C 
BRANCH  20  21
ATOM     21  C   UNL     1       4.465   6.786  16.517  0.00  0.00    +0.000 C 
BRANCH  21  22
ATOM     22  O   UNL     1       5.778   7.347  16.415  0.00  0.00    +0.000 OA
ATOM     23  H   UNL     1       6.195   7.262  17.289  0.00  0.00    +0.000 HD
ENDBRANCH  21  22
BRANCH  21  24
ATOM     24  C   UNL     1       4.613   5.260  16.426  0.00  0.00    +0.000 C 
BRANCH  24  25
ATOM     25  C   UNL     1       6.062   4.769  16.340  0.00  0.00    +0.000 C 
BRANCH  25  26
ATOM     26  O   UNL     1       6.397   4.057  17.534  0.00  0.00    +0.000 OA
ATOM     27  H   UNL     1       7.228   3.573  17.390  0.00  0.00    +0.000 HD
ENDBRANCH  25  26
BRANCH  25  28
ATOM     28  C   UNL     1       6.301   3.839  15.148  0.00  0.00    +0.000 C 
BRANCH  28  29
ATOM     29  C   UNL     1       6.959   4.553  13.999  0.00  0.00    +0.000 C 
ATOM     30  O   UNL     1       7.707   5.515  14.112  0.00  0.00    +0.000 OA
BRANCH  29  31
ATOM     31  O   UNL     1       6.649   4.023  12.795  0.00  0.00    +0.000 OA
ATOM     32  H   UNL     1       5.935   4.485  12.318  0.00  0.00    +0.000 HD
ENDBRANCH  29  31
ENDBRANCH  28  29
ENDBRANCH  25  28
ENDBRANCH  24  25
ENDBRANCH  21  24
ENDBRANCH  20  21
ENDBRANCH   5  19
TORSDOF 11
ENDMDL
MODEL 2
REMARK VINA RESULT:      -6.6      7.189      9.079
REMARK  Name = 
REMARK  14 active torsions:
REMARK  status: ('A' for Active; 'I' for Inactive)
REMARK    1  A    between atoms: C_1  and  C_2
REMARK    2  A    between atoms: C_4  and  C_5
REMARK    3  A    between atoms: C_12  and  C_13
REMARK    4  A    between atoms: C_14  and  C_15
REMARK    5  A    between atoms: C_15  and  O_16
REMARK    6  A    between atoms: C_15  and  C_17
REMARK    7  A    between atoms: C_17  and  C_18
REMARK    8  A    between atoms: C_18  and  O_19
REMARK    9  A    between atoms: C_18  and  C_20
REMARK   10  A    between atoms: C_20  and  C_21
REMARK   11  A    between atoms: C_21  and  O_23
REMARK   12  A    between atoms: C_24  and  C_25
REMARK   13  A    between atoms: C_25  and  C_26
REMARK   14  A    between atoms: C_25  and  C_27
REMARK                            x       y       z     vdW  Elec       q    Type
REMARK                         _______ _______ _______ _____ _____    ______ ____
ROOT
ATOM      1  C   UNL     1      -7.542  11.906  20.978  0.00  0.00    +0.000 C 
ATOM      2  C   UNL     1      -6.096  12.107  20.645  0.00  0.00    +0.000 A 
ATOM      3  C   UNL     1      -5.552  11.686  19.426  0.00  0.00    +0.000 A 
ATOM      4  C   UNL     1      -4.185  11.821  19.136  0.00  0.00    +0.000 A 
ATOM      5  C   UNL     1      -3.366  12.434  20.131  0.00  0.00    +0.000 A 
ATOM      6  C   UNL     1      -3.918  12.889  21.370  0.00  0.00    +0.000 A 
ATOM      7  N   UNL     1      -5.292  12.707  21.613  0.00  0.00    +0.000 N 
ATOM      8  O   UNL     1      -5.827  13.078  22.714  0.00  0.00    +0.000 OA
ENDROOT
BRANCH   4   9
ATOM      9  C   UNL     1      -3.679  11.275  17.831  0.00  0.00    +0.000 A 
ATOM     10  C   UNL     1      -2.623  10.346  17.753  0.00  0.00    +0.000 A 
ATOM     11  C   UNL     1      -2.251   9.749  16.544  0.00  0.00    +0.000 A 
ATOM     12  C   UNL     1      -2.881  10.129  15.371  0.00  0.00    +0.000 A 
ATOM     13  F   UNL     1      -2.535   9.550  14.213  0.00  0.00    +0.000 F 
ATOM     14  C   UNL     1      -3.864  11.105  15.385  0.00  0.00    +0.000 A 
ATOM     15  C   UNL     1      -4.267  11.662  16.605  0.00  0.00    +0.000 A 
ENDBRANCH   4   9
BRANCH   6  16
ATOM     16  C   UNL     1      -3.143  13.503  22.534  0.00  0.00    +0.000 C 
ATOM     17  C   UNL     1      -2.432  12.403  23.329  0.00  0.00    +0.000 C 
ATOM     18  C   UNL     1      -2.175  14.655  22.239  0.00  0.00    +0.000 C 
ENDBRANCH   6  16
BRANCH   5  19
ATOM     19  C   UNL     1      -1.929  12.628  19.884  0.00  0.00    +0.000 C 
ATOM     20  C   UNL     1      -0.966  11.755  20.223  0.00  0.00    +0.000 C 
BRANCH  20  21
ATOM     21  C   UNL     1       0.507  11.929  19.947  0.00  0.00    +0.000 C 
BRANCH  21  22
ATOM     22  O   UNL     1       1.076  10.696  19.494  0.00  0.00    +0.000 OA
ATOM     23  H   UNL     1       0.346  10.062  19.396  0.00  0.00    +0.000 HD
ENDBRANCH  21  22
BRANCH  21  24
ATOM     24  C   UNL     1       0.819  12.993  18.883  0.00  0.00    +0.000 C 
BRANCH  24  25
ATOM     25  C   UNL     1       2.293  13.067  18.475  0.00  0.00    +0.000 C 
BRANCH  25  26
ATOM     26  O   UNL     1       2.526  12.199  17.363  0.00  0.00    +0.000 OA
ATOM     27  H   UNL     1       2.998  11.408  17.672  0.00  0.00    +0.000 HD
ENDBRANCH  25  26
BRANCH  25  28
ATOM     28  C   UNL     1       2.726  14.480  18.076  0.00  0.00    +0.000 C 
BRANCH  28  29
ATOM     29  C   UNL     1       2.822  15.396  19.265  0.00  0.00    +0.000 C 
ATOM     30  O   UNL     1       3.289  15.083  20.352  0.00  0.00    +0.000 OA
BRANCH  29  31
ATOM     31  O   UNL     1       2.341  16.635  19.022  0.00  0.00    +0.000 OA
ATOM     32  H   UNL     1       1.488  16.833  19.451  0.00  0.00    +0.000 HD
ENDBRANCH  29  31
ENDBRANCH  28  29
ENDBRANCH  25  28
ENDBRANCH  24  25
ENDBRANCH  21  24
ENDBRANCH  20  21
ENDBRANCH   5  19
TORSDOF 11
ENDMDL
MODEL 3
REMARK VINA RESULT:      -6.5      3.202      5.394
REMARK  Name = 
REMARK  14 active torsions:
REMARK  status: ('A' for Active; 'I' for Inactive)
REMARK    1  A    between atoms: C_1  and  C_2
REMARK    2  A    between atoms: C_4  and  C_5
REMARK    3  A    between atoms: C_12  and  C_13
REMARK    4  A    between atoms: C_14  and  C_15
REMARK    5  A    between atoms: C_15  and  O_16
REMARK    6  A    between atoms: C_15  and  C_17
REMARK    7  A    between atoms: C_17  and  C_18
REMARK    8  A    between atoms: C_18  and  O_19
REMARK    9  A    between atoms: C_18  and  C_20
REMARK   10  A    between atoms: C_20  and  C_21
REMARK   11  A    between atoms: C_21  and  O_23
REMARK   12  A    between atoms: C_24  and  C_25
REMARK   13  A    between atoms: C_25  and  C_26
REMARK   14  A    between atoms: C_25  and  C_27
REMARK                            x       y       z     vdW  Elec       q    Type
REMARK                         _______ _______ _______ _____ _____    ______ ____
ROOT
ATOM      1  C   UNL     1       1.107   3.093  22.017  0.00  0.00    +0.000 C 
ATOM      2  C   UNL     1       1.805   3.792  20.893  0.00  0.00    +0.000 A 
ATOM      3  C   UNL     1       1.679   5.170  20.687  0.00  0.00    +0.000 A 
ATOM      4  C   UNL     1       2.285   5.818  19.599  0.00  0.00    +0.000 A 
ATOM      5  C   UNL     1       3.067   5.014  18.716  0.00  0.00    +0.000 A 
ATOM      6  C   UNL     1       3.220   3.608  18.933  0.00  0.00    +0.000 A 
ATOM      7  N   UNL     1       2.570   3.011  20.028  0.00  0.00    +0.000 N 
ATOM      8  O   UNL     1       2.662   1.755  20.251  0.00  0.00    +0.000 OA
ENDROOT
BRANCH   4   9
ATOM      9  C   UNL     1       2.034   7.288  19.418  0.00  0.00    +0.000 A 
ATOM     10  C   UNL     1       2.257   7.954  18.197  0.00  0.00    +0.000 A 
ATOM     11  C   UNL     1       1.895   9.292  18.008  0.00  0.00    +0.000 A 
ATOM     12  C   UNL     1       1.373  10.016  19.066  0.00  0.00    +0.000 A 
ATOM     13  F   UNL     1       1.014  11.294  18.885  0.00  0.00    +0.000 F 
ATOM     14  C   UNL     1       1.220   9.429  20.311  0.00  0.00    +0.000 A 
ATOM     15  C   UNL     1       1.536   8.076  20.482  0.00  0.00    +0.000 A 
ENDBRANCH   4   9
BRANCH   6  16
ATOM     16  C   UNL     1       3.976   2.632  18.033  0.00  0.00    +0.000 C 
ATOM     17  C   UNL     1       4.614   1.526  18.878  0.00  0.00    +0.000 C 
ATOM     18  C   UNL     1       3.237   2.025  16.833  0.00  0.00    +0.000 C 
ENDBRANCH   6  16
BRANCH   5  19
ATOM     19  C   UNL     1       3.749   5.631  17.569  0.00  0.00    +0.000 C 
ATOM     20  C   UNL     1       5.081   5.702  17.414  0.00  0.00    +0.000 C 
BRANCH  20  21
ATOM     21  C   UNL     1       5.792   6.305  16.228  0.00  0.00    +0.000 C 
BRANCH  21  22
ATOM     22  O   UNL     1       7.208   6.298  16.440  0.00  0.00    +0.000 OA
ATOM     23  H   UNL     1       7.477   7.216  16.608  0.00  0.00    +0.000 HD
ENDBRANCH  21  22
BRANCH  21  24
ATOM     24  C   UNL     1       5.525   5.572  14.904  0.00  0.00    +0.000 C 
BRANCH  24  25
ATOM     25  C   UNL     1       6.566   4.505  14.551  0.00  0.00    +0.000 C 
BRANCH  25  26
ATOM     26  O   UNL     1       6.107   3.225  14.991  0.00  0.00    +0.000 OA
ATOM     27  H   UNL     1       5.228   3.056  14.611  0.00  0.00    +0.000 HD
ENDBRANCH  25  26
BRANCH  25  28
ATOM     28  C   UNL     1       6.839   4.422  13.047  0.00  0.00    +0.000 C 
BRANCH  28  29
ATOM     29  C   UNL     1       5.985   3.383  12.375  0.00  0.00    +0.000 C 
ATOM     30  O   UNL     1       4.787   3.501  12.154  0.00  0.00    +0.000 OA
BRANCH  29  31
ATOM     31  O   UNL     1       6.673   2.276  12.019  0.00  0.00    +0.000 OA
ATOM     32  H   UNL     1       7.186   1.865  12.740  0.00  0.00    +0.000 HD
ENDBRANCH  29  31
ENDBRANCH  28  29
ENDBRANCH  25  28
ENDBRANCH  24  25
ENDBRANCH  21  24
ENDBRANCH  20  21
ENDBRANCH   5  19
TORSDOF 11
ENDMDL
MODEL 4
REMARK VINA RESULT:      -6.4      8.293     11.548
REMARK  Name = 
REMARK  14 active torsions:
REMARK  status: ('A' for Active; 'I' for Inactive)
REMARK    1  A    between atoms: C_1  and  C_2
REMARK    2  A    between atoms: C_4  and  C_5
REMARK    3  A    between atoms: C_12  and  C_13
REMARK    4  A    between atoms: C_14  and  C_15
REMARK    5  A    between atoms: C_15  and  O_16
REMARK    6  A    between atoms: C_15  and  C_17
REMARK    7  A    between atoms: C_17  and  C_18
REMARK    8  A    between atoms: C_18  and  O_19
REMARK    9  A    between atoms: C_18  and  C_20
REMARK   10  A    between atoms: C_20  and  C_21
REMARK   11  A    between atoms: C_21  and  O_23
REMARK   12  A    between atoms: C_24  and  C_25
REMARK   13  A    between atoms: C_25  and  C_26
REMARK   14  A    between atoms: C_25  and  C_27
REMARK                            x       y       z     vdW  Elec       q    Type
REMARK                         _______ _______ _______ _____ _____    ______ ____
ROOT
ATOM      1  C   UNL     1      -3.533  10.465  15.814  0.00  0.00    +0.000 C 
ATOM      2  C   UNL     1      -3.407  11.195  17.115  0.00  0.00    +0.000 A 
ATOM      3  C   UNL     1      -2.164  11.572  17.634  0.00  0.00    +0.000 A 
ATOM      4  C   UNL     1      -2.038  12.203  18.882  0.00  0.00    +0.000 A 
ATOM      5  C   UNL     1      -3.244  12.473  19.598  0.00  0.00    +0.000 A 
ATOM      6  C   UNL     1      -4.521  12.112  19.064  0.00  0.00    +0.000 A 
ATOM      7  N   UNL     1      -4.581  11.461  17.818  0.00  0.00    +0.000 N 
ATOM      8  O   UNL     1      -5.698  11.101  17.310  0.00  0.00    +0.000 OA
ENDROOT
BRANCH   4   9
ATOM      9  C   UNL     1      -0.658  12.506  19.389  0.00  0.00    +0.000 A 
ATOM     10  C   UNL     1      -0.007  13.730  19.140  0.00  0.00    +0.000 A 
ATOM     11  C   UNL     1       1.223  14.047  19.728  0.00  0.00    +0.000 A 
ATOM     12  C   UNL     1       1.864  13.110  20.519  0.00  0.00    +0.000 A 
ATOM     13  F   UNL     1       3.036  13.415  21.094  0.00  0.00    +0.000 F 
ATOM     14  C   UNL     1       1.306  11.858  20.720  0.00  0.00    +0.000 A 
ATOM     15  C   UNL     1       0.052  11.565  20.170  0.00  0.00    +0.000 A 
ENDBRANCH   4   9
BRANCH   6  16
ATOM     16  C   UNL     1      -5.872  12.290  19.754  0.00  0.00    +0.000 C 
ATOM     17  C   UNL     1      -6.625  13.471  19.135  0.00  0.00    +0.000 C 
ATOM     18  C   UNL     1      -6.797  11.072  19.871  0.00  0.00    +0.000 C 
ENDBRANCH   6  16
BRANCH   5  19
ATOM     19  C   UNL     1      -3.188  13.153  20.901  0.00  0.00    +0.000 C 
ATOM     20  C   UNL     1      -3.020  12.537  22.082  0.00  0.00    +0.000 C 
BRANCH  20  21
ATOM     21  C   UNL     1      -2.931  13.227  23.421  0.00  0.00    +0.000 C 
BRANCH  21  22
ATOM     22  O   UNL     1      -1.567  13.533  23.732  0.00  0.00    +0.000 OA
ATOM     23  H   UNL     1      -1.081  13.565  22.890  0.00  0.00    +0.000 HD
ENDBRANCH  21  22
BRANCH  21  24
ATOM     24  C   UNL     1      -3.722  14.541  23.498  0.00  0.00    +0.000 C 
BRANCH  24  25
ATOM     25  C   UNL     1      -5.213  14.365  23.801  0.00  0.00    +0.000 C 
BRANCH  25  26
ATOM     26  O   UNL     1      -5.983  14.774  22.668  0.00  0.00    +0.000 OA
ATOM     27  H   UNL     1      -5.547  15.534  22.247  0.00  0.00    +0.000 HD
ENDBRANCH  25  26
BRANCH  25  28
ATOM     28  C   UNL     1      -5.582  12.917  24.130  0.00  0.00    +0.000 C 
BRANCH  28  29
ATOM     29  C   UNL     1      -7.065  12.680  24.047  0.00  0.00    +0.000 C 
ATOM     30  O   UNL     1      -7.915  13.381  24.580  0.00  0.00    +0.000 OA
BRANCH  29  31
ATOM     31  O   UNL     1      -7.391  11.597  23.308  0.00  0.00    +0.000 OA
ATOM     32  H   UNL     1      -6.938  10.773  23.569  0.00  0.00    +0.000 HD
ENDBRANCH  29  31
ENDBRANCH  28  29
ENDBRANCH  25  28
ENDBRANCH  24  25
ENDBRANCH  21  24
ENDBRANCH  20  21
ENDBRANCH   5  19
TORSDOF 11
ENDMDL
MODEL 5
REMARK VINA RESULT:      -6.3      3.422      8.977
REMARK  Name = 
REMARK  14 active torsions:
REMARK  status: ('A' for Active; 'I' for Inactive)
REMARK    1  A    between atoms: C_1  and  C_2
REMARK    2  A    between atoms: C_4  and  C_5
REMARK    3  A    between atoms: C_12  and  C_13
REMARK    4  A    between atoms: C_14  and  C_15
REMARK    5  A    between atoms: C_15  and  O_16
REMARK    6  A    between atoms: C_15  and  C_17
REMARK    7  A    between atoms: C_17  and  C_18
REMARK    8  A    between atoms: C_18  and  O_19
REMARK    9  A    between atoms: C_18  and  C_20
REMARK   10  A    between atoms: C_20  and  C_21
REMARK   11  A    between atoms: C_21  and  O_23
REMARK   12  A    between atoms: C_24  and  C_25
REMARK   13  A    between atoms: C_25  and  C_26
REMARK   14  A    between atoms: C_25  and  C_27
REMARK                            x       y       z     vdW  Elec       q    Type
REMARK                         _______ _______ _______ _____ _____    ______ ____
ROOT
ATOM      1  C   UNL     1       4.548   6.732  16.480  0.00  0.00    +0.000 C 
ATOM      2  C   UNL     1       3.549   7.037  17.552  0.00  0.00    +0.000 A 
ATOM      3  C   UNL     1       2.871   8.259  17.605  0.00  0.00    +0.000 A 
ATOM      4  C   UNL     1       1.977   8.570  18.642  0.00  0.00    +0.000 A 
ATOM      5  C   UNL     1       1.763   7.569  19.638  0.00  0.00    +0.000 A 
ATOM      6  C   UNL     1       2.434   6.308  19.578  0.00  0.00    +0.000 A 
ATOM      7  N   UNL     1       3.335   6.063  18.526  0.00  0.00    +0.000 N 
ATOM      8  O   UNL     1       3.974   4.957  18.442  0.00  0.00    +0.000 OA
ENDROOT
BRANCH   4   9
ATOM      9  C   UNL     1       1.351   9.935  18.655  0.00  0.00    +0.000 A 
ATOM     10  C   UNL     1       2.102  11.116  18.814  0.00  0.00    +0.000 A 
ATOM     11  C   UNL     1       1.522  12.383  18.693  0.00  0.00    +0.000 A 
ATOM     12  C   UNL     1       0.158  12.494  18.486  0.00  0.00    +0.000 A 
ATOM     13  F   UNL     1      -0.398  13.707  18.357  0.00  0.00    +0.000 F 
ATOM     14  C   UNL     1      -0.637  11.363  18.414  0.00  0.00    +0.000 A 
ATOM     15  C   UNL     1      -0.044  10.096  18.485  0.00  0.00    +0.000 A 
ENDBRANCH   4   9
BRANCH   6  16
ATOM     16  C   UNL     1       2.338   5.183  20.607  0.00  0.00    +0.000 C 
ATOM     17  C   UNL     1       1.022   4.419  20.428  0.00  0.00    +0.000 C 
ATOM     18  C   UNL     1       3.510   4.202  20.727  0.00  0.00    +0.000 C 
ENDBRANCH   6  16
BRANCH   5  19
ATOM     19  C   UNL     1       0.822   7.819  20.740  0.00  0.00    +0.000 C 
ATOM     20  C   UNL     1       0.961   8.782  21.666  0.00  0.00    +0.000 C 
BRANCH  20  21
ATOM     21  C   UNL     1      -0.014   9.066  22.782  0.00  0.00    +0.000 C 
BRANCH  21  22
ATOM     22  O   UNL     1       0.669   9.633  23.906  0.00  0.00    +0.000 OA
ATOM     23  H   UNL     1       1.387   9.022  24.144  0.00  0.00    +0.000 HD
ENDBRANCH  21  22
BRANCH  21  24
ATOM     24  C   UNL     1      -1.138  10.038  22.394  0.00  0.00    +0.000 C 
BRANCH  24  25
ATOM     25  C   UNL     1      -1.002  11.438  23.002  0.00  0.00    +0.000 C 
BRANCH  25  26
ATOM     26  O   UNL     1      -0.132  12.230  22.191  0.00  0.00    +0.000 OA
ATOM     27  H   UNL     1      -0.388  13.164  22.271  0.00  0.00    +0.000 HD
ENDBRANCH  25  26
BRANCH  25  28
ATOM     28  C   UNL     1      -2.344  12.166  23.112  0.00  0.00    +0.000 C 
BRANCH  28  29
ATOM     29  C   UNL     1      -2.520  13.191  22.026  0.00  0.00    +0.000 C 
ATOM     30  O   UNL     1      -2.412  14.400  22.182  0.00  0.00    +0.000 OA
BRANCH  29  31
ATOM     31  O   UNL     1      -2.812  12.648  20.823  0.00  0.00    +0.000 OA
ATOM     32  H   UNL     1      -2.283  12.994  20.080  0.00  0.00    +0.000 HD
ENDBRANCH  29  31
ENDBRANCH  28  29
ENDBRANCH  25  28
ENDBRANCH  24  25
ENDBRANCH  21  24
ENDBRANCH  20  21
ENDBRANCH   5  19
TORSDOF 11
ENDMDL
MODEL 6
REMARK VINA RESULT:      -6.3      6.412     11.044
REMARK  Name = 
REMARK  14 active torsions:
REMARK  status: ('A' for Active; 'I' for Inactive)
REMARK    1  A    between atoms: C_1  and  C_2
REMARK    2  A    between atoms: C_4  and  C_5
REMARK    3  A    between atoms: C_12  and  C_13
REMARK    4  A    between atoms: C_14  and  C_15
REMARK    5  A    between atoms: C_15  and  O_16
REMARK    6  A    between atoms: C_15  and  C_17
REMARK    7  A    between atoms: C_17  and  C_18
REMARK    8  A    between atoms: C_18  and  O_19
REMARK    9  A    between atoms: C_18  and  C_20
REMARK   10  A    between atoms: C_20  and  C_21
REMARK   11  A    between atoms: C_21  and  O_23
REMARK   12  A    between atoms: C_24  and  C_25
REMARK   13  A    between atoms: C_25  and  C_26
REMARK   14  A    between atoms: C_25  and  C_27
REMARK                            x       y       z     vdW  Elec       q    Type
REMARK                         _______ _______ _______ _____ _____    ______ ____
ROOT
ATOM      1  C   UNL     1       1.244   9.034  22.213  0.00  0.00    +0.000 C 
ATOM      2  C   UNL     1       0.250  10.034  21.708  0.00  0.00    +0.000 A 
ATOM      3  C   UNL     1      -0.326  10.992  22.549  0.00  0.00    +0.000 A 
ATOM      4  C   UNL     1      -1.302  11.892  22.091  0.00  0.00    +0.000 A 
ATOM      5  C   UNL     1      -1.668  11.809  20.714  0.00  0.00    +0.000 A 
ATOM      6  C   UNL     1      -1.066  10.848  19.842  0.00  0.00    +0.000 A 
ATOM      7  N   UNL     1      -0.110   9.958  20.364  0.00  0.00    +0.000 N 
ATOM      8  O   UNL     1       0.440   9.068  19.628  0.00  0.00    +0.000 OA
ENDROOT
BRANCH   4   9
ATOM      9  C   UNL     1      -1.917  12.838  23.083  0.00  0.00    +0.000 A 
ATOM     10  C   UNL     1      -1.284  14.027  23.495  0.00  0.00    +0.000 A 
ATOM     11  C   UNL     1      -1.925  14.960  24.317  0.00  0.00    +0.000 A 
ATOM     12  C   UNL     1      -3.189  14.684  24.808  0.00  0.00    +0.000 A 
ATOM     13  F   UNL     1      -3.811  15.581  25.586  0.00  0.00    +0.000 F 
ATOM     14  C   UNL     1      -3.816  13.487  24.504  0.00  0.00    +0.000 A 
ATOM     15  C   UNL     1      -3.191  12.579  23.640  0.00  0.00    +0.000 A 
ENDBRANCH   4   9
BRANCH   6  16
ATOM     16  C   UNL     1      -1.413  10.619  18.372  0.00  0.00    +0.000 C 
ATOM     17  C   UNL     1      -0.188  10.090  17.621  0.00  0.00    +0.000 C 
ATOM     18  C   UNL     1      -2.648   9.774  18.037  0.00  0.00    +0.000 C 
ENDBRANCH   6  16
BRANCH   5  19
ATOM     19  C   UNL     1      -2.667  12.737  20.162  0.00  0.00    +0.000 C 
ATOM     20  C   UNL     1      -3.994  12.527  20.160  0.00  0.00    +0.000 C 
BRANCH  20  21
ATOM     21  C   UNL     1      -5.029  13.485  19.625  0.00  0.00    +0.000 C 
BRANCH  21  22
ATOM     22  O   UNL     1      -5.522  13.029  18.360  0.00  0.00    +0.000 OA
ATOM     23  H   UNL     1      -5.264  13.691  17.697  0.00  0.00    +0.000 HD
ENDBRANCH  21  22
BRANCH  21  24
ATOM     24  C   UNL     1      -6.243  13.669  20.548  0.00  0.00    +0.000 C 
BRANCH  24  25
ATOM     25  C   UNL     1      -6.541  12.466  21.450  0.00  0.00    +0.000 C 
BRANCH  25  26
ATOM     26  O   UNL     1      -6.833  12.921  22.773  0.00  0.00    +0.000 OA
ATOM     27  H   UNL     1      -7.239  13.803  22.721  0.00  0.00    +0.000 HD
ENDBRANCH  25  26
BRANCH  25  28
ATOM     28  C   UNL     1      -7.730  11.638  20.956  0.00  0.00    +0.000 C 
BRANCH  28  29
ATOM     29  C   UNL     1      -7.290  10.414  20.202  0.00  0.00    +0.000 C 
ATOM     30  O   UNL     1      -6.880  10.413  19.049  0.00  0.00    +0.000 OA
BRANCH  29  31
ATOM     31  O   UNL     1      -7.382   9.279  20.929  0.00  0.00    +0.000 OA
ATOM     32  H   UNL     1      -6.533   8.822  21.083  0.00  0.00    +0.000 HD
ENDBRANCH  29  31
ENDBRANCH  28  29
ENDBRANCH  25  28
ENDBRANCH  24  25
ENDBRANCH  21  24
ENDBRANCH  20  21
ENDBRANCH   5  19
TORSDOF 11
ENDMDL
MODEL 7
REMARK VINA RESULT:      -6.2      3.876      7.872
REMARK  Name = 
REMARK  14 active torsions:
REMARK  status: ('A' for Active; 'I' for Inactive)
REMARK    1  A    between atoms: C_1  and  C_2
REMARK    2  A    between atoms: C_4  and  C_5
REMARK    3  A    between atoms: C_12  and  C_13
REMARK    4  A    between atoms: C_14  and  C_15
REMARK    5  A    between atoms: C_15  and  O_16
REMARK    6  A    between atoms: C_15  and  C_17
REMARK    7  A    between atoms: C_17  and  C_18
REMARK    8  A    between atoms: C_18  and  O_19
REMARK    9  A    between atoms: C_18  and  C_20
REMARK   10  A    between atoms: C_20  and  C_21
REMARK   11  A    between atoms: C_21  and  O_23
REMARK   12  A    between atoms: C_24  and  C_25
REMARK   13  A    between atoms: C_25  and  C_26
REMARK   14  A    between atoms: C_25  and  C_27
REMARK                            x       y       z     vdW  Elec       q    Type
REMARK                         _______ _______ _______ _____ _____    ______ ____
ROOT
ATOM      1  C   UNL     1       4.284   0.833  17.761  0.00  0.00    +0.000 C 
ATOM      2  C   UNL     1       3.998   2.203  18.295  0.00  0.00    +0.000 A 
ATOM      3  C   UNL     1       4.851   3.284  18.052  0.00  0.00    +0.000 A 
ATOM      4  C   UNL     1       4.615   4.555  18.601  0.00  0.00    +0.000 A 
ATOM      5  C   UNL     1       3.444   4.711  19.402  0.00  0.00    +0.000 A 
ATOM      6  C   UNL     1       2.554   3.616  19.635  0.00  0.00    +0.000 A 
ATOM      7  N   UNL     1       2.854   2.360  19.077  0.00  0.00    +0.000 N 
ATOM      8  O   UNL     1       2.099   1.347  19.275  0.00  0.00    +0.000 OA
ENDROOT
BRANCH   4   9
ATOM      9  C   UNL     1       5.625   5.638  18.345  0.00  0.00    +0.000 A 
ATOM     10  C   UNL     1       6.877   5.677  18.987  0.00  0.00    +0.000 A 
ATOM     11  C   UNL     1       7.856   6.616  18.642  0.00  0.00    +0.000 A 
ATOM     12  C   UNL     1       7.570   7.586  17.697  0.00  0.00    +0.000 A 
ATOM     13  F   UNL     1       8.510   8.478  17.356  0.00  0.00    +0.000 F 
ATOM     14  C   UNL     1       6.320   7.643  17.104  0.00  0.00    +0.000 A 
ATOM     15  C   UNL     1       5.362   6.671  17.416  0.00  0.00    +0.000 A 
ENDBRANCH   4   9
BRANCH   6  16
ATOM     16  C   UNL     1       1.307   3.637  20.518  0.00  0.00    +0.000 C 
ATOM     17  C   UNL     1       0.071   3.276  19.689  0.00  0.00    +0.000 C 
ATOM     18  C   UNL     1       1.324   2.832  21.824  0.00  0.00    +0.000 C 
ENDBRANCH   6  16
BRANCH   5  19
ATOM     19  C   UNL     1       3.123   6.021  19.989  0.00  0.00    +0.000 C 
ATOM     20  C   UNL     1       2.220   6.884  19.494  0.00  0.00    +0.000 C 
BRANCH  20  21
ATOM     21  C   UNL     1       1.861   8.216  20.105  0.00  0.00    +0.000 C 
BRANCH  21  22
ATOM     22  O   UNL     1       1.124   9.009  19.168  0.00  0.00    +0.000 OA
ATOM     23  H   UNL     1       0.638   8.395  18.592  0.00  0.00    +0.000 HD
ENDBRANCH  21  22
BRANCH  21  24
ATOM     24  C   UNL     1       1.010   8.107  21.379  0.00  0.00    +0.000 C 
BRANCH  24  25
ATOM     25  C   UNL     1       0.072   9.295  21.618  0.00  0.00    +0.000 C 
BRANCH  25  26
ATOM     26  O   UNL     1      -0.784   9.014  22.727  0.00  0.00    +0.000 OA
ATOM     27  H   UNL     1      -1.397   8.301  22.481  0.00  0.00    +0.000 HD
ENDBRANCH  25  26
BRANCH  25  28
ATOM     28  C   UNL     1       0.827  10.593  21.915  0.00  0.00    +0.000 C 
BRANCH  28  29
ATOM     29  C   UNL     1       0.309  11.745  21.100  0.00  0.00    +0.000 C 
ATOM     30  O   UNL     1      -0.319  11.636  20.055  0.00  0.00    +0.000 OA
BRANCH  29  31
ATOM     31  O   UNL     1       0.597  12.951  21.639  0.00  0.00    +0.000 OA
ATOM     32  H   UNL     1       0.913  13.618  21.001  0.00  0.00    +0.000 HD
ENDBRANCH  29  31
ENDBRANCH  28  29
ENDBRANCH  25  28
ENDBRANCH  24  25
ENDBRANCH  21  24
ENDBRANCH  20  21
ENDBRANCH   5  19
TORSDOF 11
ENDMDL
MODEL 8
REMARK VINA RESULT:      -6.2      6.992     11.331
REMARK  Name = 
REMARK  14 active torsions:
REMARK  status: ('A' for Active; 'I' for Inactive)
REMARK    1  A    between atoms: C_1  and  C_2
REMARK    2  A    between atoms: C_4  and  C_5
REMARK    3  A    between atoms: C_12  and  C_13
REMARK    4  A    between atoms: C_14  and  C_15
REMARK    5  A    between atoms: C_15  and  O_16
REMARK    6  A    between atoms: C_15  and  C_17
REMARK    7  A    between atoms: C_17  and  C_18
REMARK    8  A    between atoms: C_18  and  O_19
REMARK    9  A    between atoms: C_18  and  C_20
REMARK   10  A    between atoms: C_20  and  C_21
REMARK   11  A    between atoms: C_21  and  O_23
REMARK   12  A    between atoms: C_24  and  C_25
REMARK   13  A    between atoms: C_25  and  C_26
REMARK   14  A    between atoms: C_25  and  C_27
REMARK                            x       y       z     vdW  Elec       q    Type
REMARK                         _______ _______ _______ _____ _____    ______ ____
ROOT
ATOM      1  C   UNL     1       1.026   9.416  21.122  0.00  0.00    +0.000 C 
ATOM      2  C   UNL     1      -0.176  10.236  20.768  0.00  0.00    +0.000 A 
ATOM      3  C   UNL     1      -0.845  10.079  19.549  0.00  0.00    +0.000 A 
ATOM      4  C   UNL     1      -1.936  10.887  19.191  0.00  0.00    +0.000 A 
ATOM      5  C   UNL     1      -2.360  11.866  20.139  0.00  0.00    +0.000 A 
ATOM      6  C   UNL     1      -1.696  12.016  21.397  0.00  0.00    +0.000 A 
ATOM      7  N   UNL     1      -0.595  11.193  21.691  0.00  0.00    +0.000 N 
ATOM      8  O   UNL     1       0.043  11.304  22.795  0.00  0.00    +0.000 OA
ENDROOT
BRANCH   4   9
ATOM      9  C   UNL     1      -2.545  10.694  17.831  0.00  0.00    +0.000 A 
ATOM     10  C   UNL     1      -3.741  11.325  17.437  0.00  0.00    +0.000 A 
ATOM     11  C   UNL     1      -4.225  11.240  16.127  0.00  0.00    +0.000 A 
ATOM     12  C   UNL     1      -3.560  10.455  15.202  0.00  0.00    +0.000 A 
ATOM     13  F   UNL     1      -4.014  10.382  13.943  0.00  0.00    +0.000 F 
ATOM     14  C   UNL     1      -2.429   9.743  15.567  0.00  0.00    +0.000 A 
ATOM     15  C   UNL     1      -1.921   9.872  16.865  0.00  0.00    +0.000 A 
ENDBRANCH   4   9
BRANCH   6  16
ATOM     16  C   UNL     1      -2.013  13.061  22.466  0.00  0.00    +0.000 C 
ATOM     17  C   UNL     1      -2.758  12.407  23.634  0.00  0.00    +0.000 C 
ATOM     18  C   UNL     1      -0.868  13.938  22.990  0.00  0.00    +0.000 C 
ENDBRANCH   6  16
BRANCH   5  19
ATOM     19  C   UNL     1      -3.511  12.730  19.838  0.00  0.00    +0.000 C 
ATOM     20  C   UNL     1      -4.716  12.636  20.424  0.00  0.00    +0.000 C 
BRANCH  20  21
ATOM     21  C   UNL     1      -5.894  13.537  20.146  0.00  0.00    +0.000 C 
BRANCH  21  22
ATOM     22  O   UNL     1      -7.118  12.800  20.244  0.00  0.00    +0.000 OA
ATOM     23  H   UNL     1      -6.894  11.859  20.141  0.00  0.00    +0.000 HD
ENDBRANCH  21  22
BRANCH  21  24
ATOM     24  C   UNL     1      -6.004  14.732  21.106  0.00  0.00    +0.000 C 
BRANCH  24  25
ATOM     25  C   UNL     1      -5.526  14.444  22.532  0.00  0.00    +0.000 C 
BRANCH  25  26
ATOM     26  O   UNL     1      -4.873  15.600  23.061  0.00  0.00    +0.000 OA
ATOM     27  H   UNL     1      -5.119  16.374  22.526  0.00  0.00    +0.000 HD
ENDBRANCH  25  26
BRANCH  25  28
ATOM     28  C   UNL     1      -6.673  14.072  23.475  0.00  0.00    +0.000 C 
BRANCH  28  29
ATOM     29  C   UNL     1      -6.718  12.594  23.753  0.00  0.00    +0.000 C 
ATOM     30  O   UNL     1      -7.408  11.789  23.141  0.00  0.00    +0.000 OA
BRANCH  29  31
ATOM     31  O   UNL     1      -5.902  12.217  24.762  0.00  0.00    +0.000 OA
ATOM     32  H   UNL     1      -4.956  12.177  24.529  0.00  0.00    +0.000 HD
ENDBRANCH  29  31
ENDBRANCH  28  29
ENDBRANCH  25  28
ENDBRANCH  24  25
ENDBRANCH  21  24
ENDBRANCH  20  21
ENDBRANCH   5  19
TORSDOF 11
ENDMDL
MODEL 9
REMARK VINA RESULT:      -6.2      3.004      5.117
REMARK  Name = 
REMARK  14 active torsions:
REMARK  status: ('A' for Active; 'I' for Inactive)
REMARK    1  A    between atoms: C_1  and  C_2
REMARK    2  A    between atoms: C_4  and  C_5
REMARK    3  A    between atoms: C_12  and  C_13
REMARK    4  A    between atoms: C_14  and  C_15
REMARK    5  A    between atoms: C_15  and  O_16
REMARK    6  A    between atoms: C_15  and  C_17
REMARK    7  A    between atoms: C_17  and  C_18
REMARK    8  A    between atoms: C_18  and  O_19
REMARK    9  A    between atoms: C_18  and  C_20
REMARK   10  A    between atoms: C_20  and  C_21
REMARK   11  A    between atoms: C_21  and  O_23
REMARK   12  A    between atoms: C_24  and  C_25
REMARK   13  A    between atoms: C_25  and  C_26
REMARK   14  A    between atoms: C_25  and  C_27
REMARK                            x       y       z     vdW  Elec       q    Type
REMARK                         _______ _______ _______ _____ _____    ______ ____
ROOT
ATOM      1  C   UNL     1       1.094   2.879  21.979  0.00  0.00    +0.000 C 
ATOM      2  C   UNL     1       1.714   3.725  20.910  0.00  0.00    +0.000 A 
ATOM      3  C   UNL     1       1.558   5.115  20.884  0.00  0.00    +0.000 A 
ATOM      4  C   UNL     1       2.089   5.904  19.851  0.00  0.00    +0.000 A 
ATOM      5  C   UNL     1       2.825   5.229  18.830  0.00  0.00    +0.000 A 
ATOM      6  C   UNL     1       3.009   3.811  18.862  0.00  0.00    +0.000 A 
ATOM      7  N   UNL     1       2.435   3.071  19.912  0.00  0.00    +0.000 N 
ATOM      8  O   UNL     1       2.555   1.799  19.972  0.00  0.00    +0.000 OA
ENDROOT
BRANCH   4   9
ATOM      9  C   UNL     1       1.809   7.379  19.868  0.00  0.00    +0.000 A 
ATOM     10  C   UNL     1       1.867   8.179  18.710  0.00  0.00    +0.000 A 
ATOM     11  C   UNL     1       1.477   9.523  18.719  0.00  0.00    +0.000 A 
ATOM     12  C   UNL     1       1.092  10.115  19.909  0.00  0.00    +0.000 A 
ATOM     13  F   UNL     1       0.706  11.399  19.918  0.00  0.00    +0.000 F 
ATOM     14  C   UNL     1       1.105   9.393  21.091  0.00  0.00    +0.000 A 
ATOM     15  C   UNL     1       1.448   8.036  21.067  0.00  0.00    +0.000 A 
ENDBRANCH   4   9
BRANCH   6  16
ATOM     16  C   UNL     1       3.721   2.968  17.805  0.00  0.00    +0.000 C 
ATOM     17  C   UNL     1       3.045   3.154  16.443  0.00  0.00    +0.000 C 
ATOM     18  C   UNL     1       5.242   3.105  17.666  0.00  0.00    +0.000 C 
ENDBRANCH   6  16
BRANCH   5  19
ATOM     19  C   UNL     1       3.428   5.997  17.730  0.00  0.00    +0.000 C 
ATOM     20  C   UNL     1       4.716   6.376  17.673  0.00  0.00    +0.000 C 
BRANCH  20  21
ATOM     21  C   UNL     1       5.352   7.135  16.536  0.00  0.00    +0.000 C 
BRANCH  21  22
ATOM     22  O   UNL     1       6.689   7.516  16.879  0.00  0.00    +0.000 OA
ATOM     23  H   UNL     1       6.912   7.062  17.709  0.00  0.00    +0.000 HD
ENDBRANCH  21  22
BRANCH  21  24
ATOM     24  C   UNL     1       5.427   6.342  15.223  0.00  0.00    +0.000 C 
BRANCH  24  25
ATOM     25  C   UNL     1       6.745   5.590  15.012  0.00  0.00    +0.000 C 
BRANCH  25  26
ATOM     26  O   UNL     1       7.211   5.081  16.264  0.00  0.00    +0.000 OA
ATOM     27  H   UNL     1       7.447   4.144  16.156  0.00  0.00    +0.000 HD
ENDBRANCH  25  26
BRANCH  25  28
ATOM     28  C   UNL     1       6.605   4.414  14.042  0.00  0.00    +0.000 C 
BRANCH  28  29
ATOM     29  C   UNL     1       7.332   4.660  12.749  0.00  0.00    +0.000 C 
ATOM     30  O   UNL     1       7.230   3.966  11.746  0.00  0.00    +0.000 OA
BRANCH  29  31
ATOM     31  O   UNL     1       8.128   5.752  12.785  0.00  0.00    +0.000 OA
ATOM     32  H   UNL     1       8.791   5.797  12.070  0.00  0.00    +0.000 HD
ENDBRANCH  29  31
ENDBRANCH  28  29
ENDBRANCH  25  28
ENDBRANCH  24  25
ENDBRANCH  21  24
ENDBRANCH  20  21
ENDBRANCH   5  19
TORSDOF 11
ENDMDL
