MODEL 1
REMARK VINA RESULT:      -7.6      0.000      0.000
REMARK  Name = 
REMARK  8 active torsions:
REMARK  status: ('A' for Active; 'I' for Inactive)
REMARK    1  A    between atoms: C_8  and  C_9
REMARK    2  A    between atoms: C_9  and  C_11
REMARK    3  A    between atoms: C_11  and  O_12
REMARK    4  A    between atoms: O_12  and  C_13
REMARK    5  A    between atoms: C_13  and  C_15
REMARK    6  A    between atoms: C_15  and  C_16
REMARK    7  A    between atoms: C_16  and  S_17
REMARK    8  A    between atoms: S_17  and  C_18
REMARK                            x       y       z     vdW  Elec       q    Type
REMARK                         _______ _______ _______ _____ _____    ______ ____
ROOT
ATOM      1  C   UNL     1       3.105   2.002  18.614  0.00  0.00    +0.000 C 
ATOM      2  O   UNL     1       3.651   0.920  18.835  0.00  0.00    +0.000 OA
ENDROOT
BRANCH   1  10
ATOM      3  O   UNL     1       8.510   6.769  19.244  0.00  0.00    +0.000 OA
ATOM      4  C   UNL     1       7.611   6.271  18.573  0.00  0.00    +0.000 C 
ATOM      5  C   UNL     1       7.367   6.613  17.107  0.00  0.00    +0.000 C 
ATOM      6  O   UNL     1       6.090   6.355  16.541  0.00  0.00    +0.000 OA
ATOM      7  C   UNL     1       5.435   5.290  17.093  0.00  0.00    +0.000 A 
ATOM      8  C   UNL     1       4.360   4.783  16.372  0.00  0.00    +0.000 A 
ATOM      9  C   UNL     1       3.620   3.714  16.884  0.00  0.00    +0.000 A 
ATOM     10  C   UNL     1       3.936   3.153  18.132  0.00  0.00    +0.000 A 
ATOM     11  C   UNL     1       5.009   3.682  18.866  0.00  0.00    +0.000 A 
ATOM     12  C   UNL     1       5.754   4.746  18.340  0.00  0.00    +0.000 A 
ATOM     13  N   UNL     1       6.805   5.288  19.083  0.00  0.00    +0.000 N 
ATOM     14  H   UNL     1       6.998   4.993  20.030  0.00  0.00    +0.000 HD
ENDBRANCH   1  10
BRANCH   1  15
ATOM     15  C   UNL     1       1.610   2.215  18.843  0.00  0.00    +0.000 C 
BRANCH  15  16
ATOM     16  O   UNL     1       1.230   2.074  20.218  0.00  0.00    +0.000 OA
BRANCH  16  17
ATOM     17  C   UNL     1       1.659   3.084  21.024  0.00  0.00    +0.000 C 
ATOM     18  O   UNL     1       2.221   2.925  22.103  0.00  0.00    +0.000 OA
BRANCH  17  19
ATOM     19  C   UNL     1       1.271   4.427  20.455  0.00  0.00    +0.000 C 
BRANCH  19  20
ATOM     20  C   UNL     1       2.389   5.441  20.698  0.00  0.00    +0.000 C 
BRANCH  20  21
ATOM     21  S   UNL     1       2.511   6.596  19.283  0.00  0.00    +0.000 S 
BRANCH  21  22
ATOM     22  C   UNL     1       1.683   8.070  19.877  0.00  0.00    +0.000 A 
ATOM     23  C   UNL     1       1.451   9.096  18.947  0.00  0.00    +0.000 A 
ATOM     24  C   UNL     1       0.780  10.268  19.317  0.00  0.00    +0.000 A 
ATOM     25  C   UNL     1       0.324  10.418  20.623  0.00  0.00    +0.000 A 
ATOM     26 CL   UNL     1      -0.498  11.856  21.084  0.00  0.00    +0.000 Cl
ATOM     27  C   UNL     1       0.531   9.404  21.554  0.00  0.00    +0.000 A 
ATOM     28  C   UNL     1       1.204   8.233  21.182  0.00  0.00    +0.000 A 
ENDBRANCH  21  22
ENDBRANCH  20  21
ENDBRANCH  19  20
ENDBRANCH  17  19
ENDBRANCH  16  17
ENDBRANCH  15  16
ENDBRANCH   1  15
TORSDOF 8
ENDMDL
MODEL 2
REMARK VINA RESULT:      -7.2      3.718      6.344
REMARK  Name = 
REMARK  8 active torsions:
REMARK  status: ('A' for Active; 'I' for Inactive)
REMARK    1  A    between atoms: C_8  and  C_9
REMARK    2  A    between atoms: C_9  and  C_11
REMARK    3  A    between atoms: C_11  and  O_12
REMARK    4  A    between atoms: O_12  and  C_13
REMARK    5  A    between atoms: C_13  and  C_15
REMARK    6  A    between atoms: C_15  and  C_16
REMARK    7  A    between atoms: C_16  and  S_17
REMARK    8  A    between atoms: S_17  and  C_18
REMARK                            x       y       z     vdW  Elec       q    Type
REMARK                         _______ _______ _______ _____ _____    ______ ____
ROOT
ATOM      1  C   UNL     1       2.392   5.908  20.077  0.00  0.00    +0.000 C 
ATOM      2  O   UNL     1       3.583   5.602  20.000  0.00  0.00    +0.000 OA
ENDROOT
BRANCH   1  10
ATOM      3  O   UNL     1      -0.091  12.422  22.011  0.00  0.00    +0.000 OA
ATOM      4  C   UNL     1       0.385  11.682  21.155  0.00  0.00    +0.000 C 
ATOM      5  C   UNL     1       0.811  12.161  19.770  0.00  0.00    +0.000 C 
ATOM      6  O   UNL     1       0.927  11.215  18.717  0.00  0.00    +0.000 OA
ATOM      7  C   UNL     1       1.285   9.960  19.127  0.00  0.00    +0.000 A 
ATOM      8  C   UNL     1       1.742   9.095  18.139  0.00  0.00    +0.000 A 
ATOM      9  C   UNL     1       2.098   7.785  18.471  0.00  0.00    +0.000 A 
ATOM     10  C   UNL     1       1.983   7.321  19.792  0.00  0.00    +0.000 A 
ATOM     11  C   UNL     1       1.501   8.192  20.781  0.00  0.00    +0.000 A 
ATOM     12  C   UNL     1       1.158   9.508  20.443  0.00  0.00    +0.000 A 
ATOM     13  N   UNL     1       0.654  10.366  21.423  0.00  0.00    +0.000 N 
ATOM     14  H   UNL     1       0.450  10.045  22.359  0.00  0.00    +0.000 HD
ENDBRANCH   1  10
BRANCH   1  15
ATOM     15  C   UNL     1       1.322   4.896  20.482  0.00  0.00    +0.000 C 
BRANCH  15  16
ATOM     16  O   UNL     1       1.206   3.807  19.557  0.00  0.00    +0.000 OA
BRANCH  16  17
ATOM     17  C   UNL     1       1.720   2.630  20.010  0.00  0.00    +0.000 C 
ATOM     18  O   UNL     1       1.670   2.250  21.175  0.00  0.00    +0.000 OA
BRANCH  17  19
ATOM     19  C   UNL     1       2.436   1.896  18.903  0.00  0.00    +0.000 C 
BRANCH  19  20
ATOM     20  C   UNL     1       3.798   2.540  18.645  0.00  0.00    +0.000 C 
BRANCH  20  21
ATOM     21  S   UNL     1       3.786   3.417  17.039  0.00  0.00    +0.000 S 
BRANCH  21  22
ATOM     22  C   UNL     1       5.040   4.681  17.245  0.00  0.00    +0.000 A 
ATOM     23  C   UNL     1       4.780   5.942  16.686  0.00  0.00    +0.000 A 
ATOM     24  C   UNL     1       5.690   6.996  16.828  0.00  0.00    +0.000 A 
ATOM     25  C   UNL     1       6.866   6.800  17.544  0.00  0.00    +0.000 A 
ATOM     26 CL   UNL     1       7.989   8.091  17.722  0.00  0.00    +0.000 Cl
ATOM     27  C   UNL     1       7.133   5.561  18.120  0.00  0.00    +0.000 A 
ATOM     28  C   UNL     1       6.221   4.506  17.974  0.00  0.00    +0.000 A 
ENDBRANCH  21  22
ENDBRANCH  20  21
ENDBRANCH  19  20
ENDBRANCH  17  19
ENDBRANCH  16  17
ENDBRANCH  15  16
ENDBRANCH   1  15
TORSDOF 8
ENDMDL
MODEL 3
REMARK VINA RESULT:      -7.1      3.979      7.065
REMARK  Name = 
REMARK  8 active torsions:
REMARK  status: ('A' for Active; 'I' for Inactive)
REMARK    1  A    between atoms: C_8  and  C_9
REMARK    2  A    between atoms: C_9  and  C_11
REMARK    3  A    between atoms: C_11  and  O_12
REMARK    4  A    between atoms: O_12  and  C_13
REMARK    5  A    between atoms: C_13  and  C_15
REMARK    6  A    between atoms: C_15  and  C_16
REMARK    7  A    between atoms: C_16  and  S_17
REMARK    8  A    between atoms: S_17  and  C_18
REMARK                            x       y       z     vdW  Elec       q    Type
REMARK                         _______ _______ _______ _____ _____    ______ ____
ROOT
ATOM      1  C   UNL     1       2.077   6.998  19.965  0.00  0.00    +0.000 C 
ATOM      2  O   UNL     1       2.990   6.903  19.144  0.00  0.00    +0.000 OA
ENDROOT
BRANCH   1  10
ATOM      3  O   UNL     1      -0.491  13.447  17.924  0.00  0.00    +0.000 OA
ATOM      4  C   UNL     1      -0.297  12.616  18.807  0.00  0.00    +0.000 C 
ATOM      5  C   UNL     1      -0.826  12.760  20.231  0.00  0.00    +0.000 C 
ATOM      6  O   UNL     1      -0.210  12.019  21.275  0.00  0.00    +0.000 OA
ATOM      7  C   UNL     1       0.315  10.821  20.879  0.00  0.00    +0.000 A 
ATOM      8  C   UNL     1       0.617   9.914  21.889  0.00  0.00    +0.000 A 
ATOM      9  C   UNL     1       1.186   8.678  21.568  0.00  0.00    +0.000 A 
ATOM     10  C   UNL     1       1.477   8.345  20.235  0.00  0.00    +0.000 A 
ATOM     11  C   UNL     1       1.190   9.272  19.221  0.00  0.00    +0.000 A 
ATOM     12  C   UNL     1       0.608  10.503  19.549  0.00  0.00    +0.000 A 
ATOM     13  N   UNL     1       0.346  11.436  18.543  0.00  0.00    +0.000 N 
ATOM     14  H   UNL     1       0.639  11.286  17.587  0.00  0.00    +0.000 HD
ENDBRANCH   1  10
BRANCH   1  15
ATOM     15  C   UNL     1       1.555   5.788  20.738  0.00  0.00    +0.000 C 
BRANCH  15  16
ATOM     16  O   UNL     1       2.569   4.806  20.988  0.00  0.00    +0.000 OA
BRANCH  16  17
ATOM     17  C   UNL     1       2.098   3.537  21.133  0.00  0.00    +0.000 C 
ATOM     18  O   UNL     1       2.135   2.895  22.177  0.00  0.00    +0.000 OA
BRANCH  17  19
ATOM     19  C   UNL     1       1.603   2.995  19.815  0.00  0.00    +0.000 C 
BRANCH  19  20
ATOM     20  C   UNL     1       2.747   2.310  19.068  0.00  0.00    +0.000 C 
BRANCH  20  21
ATOM     21  S   UNL     1       2.976   3.080  17.424  0.00  0.00    +0.000 S 
BRANCH  21  22
ATOM     22  C   UNL     1       4.378   4.170  17.666  0.00  0.00    +0.000 A 
ATOM     23  C   UNL     1       4.662   5.090  16.644  0.00  0.00    +0.000 A 
ATOM     24  C   UNL     1       5.717   6.002  16.766  0.00  0.00    +0.000 A 
ATOM     25  C   UNL     1       6.494   6.007  17.920  0.00  0.00    +0.000 A 
ATOM     26 CL   UNL     1       7.794   7.123  18.074  0.00  0.00    +0.000 Cl
ATOM     27  C   UNL     1       6.217   5.113  18.951  0.00  0.00    +0.000 A 
ATOM     28  C   UNL     1       5.160   4.201  18.826  0.00  0.00    +0.000 A 
ENDBRANCH  21  22
ENDBRANCH  20  21
ENDBRANCH  19  20
ENDBRANCH  17  19
ENDBRANCH  16  17
ENDBRANCH  15  16
ENDBRANCH   1  15
TORSDOF 8
ENDMDL
MODEL 4
REMARK VINA RESULT:      -7.1      4.469      7.050
REMARK  Name = 
REMARK  8 active torsions:
REMARK  status: ('A' for Active; 'I' for Inactive)
REMARK    1  A    between atoms: C_8  and  C_9
REMARK    2  A    between atoms: C_9  and  C_11
REMARK    3  A    between atoms: C_11  and  O_12
REMARK    4  A    between atoms: O_12  and  C_13
REMARK    5  A    between atoms: C_13  and  C_15
REMARK    6  A    between atoms: C_15  and  C_16
REMARK    7  A    between atoms: C_16  and  S_17
REMARK    8  A    between atoms: S_17  and  C_18
REMARK                            x       y       z     vdW  Elec       q    Type
REMARK                         _______ _______ _______ _____ _____    ______ ____
ROOT
ATOM      1  C   UNL     1       6.703   4.562  17.674  0.00  0.00    +0.000 C 
ATOM      2  O   UNL     1       7.582   4.380  18.517  0.00  0.00    +0.000 OA
ENDROOT
BRANCH   1  10
ATOM      3  O   UNL     1       1.427   2.498  22.173  0.00  0.00    +0.000 OA
ATOM      4  C   UNL     1       1.788   2.835  21.049  0.00  0.00    +0.000 C 
ATOM      5  C   UNL     1       0.824   3.071  19.890  0.00  0.00    +0.000 C 
ATOM      6  O   UNL     1       1.319   3.019  18.560  0.00  0.00    +0.000 OA
ATOM      7  C   UNL     1       2.623   3.408  18.430  0.00  0.00    +0.000 A 
ATOM      8  C   UNL     1       3.054   3.705  17.142  0.00  0.00    +0.000 A 
ATOM      9  C   UNL     1       4.382   4.079  16.920  0.00  0.00    +0.000 A 
ATOM     10  C   UNL     1       5.298   4.143  17.984  0.00  0.00    +0.000 A 
ATOM     11  C   UNL     1       4.863   3.822  19.279  0.00  0.00    +0.000 A 
ATOM     12  C   UNL     1       3.527   3.459  19.494  0.00  0.00    +0.000 A 
ATOM     13  N   UNL     1       3.101   3.115  20.779  0.00  0.00    +0.000 N 
ATOM     14  H   UNL     1       3.747   3.038  21.553  0.00  0.00    +0.000 HD
ENDBRANCH   1  10
BRANCH   1  15
ATOM     15  C   UNL     1       7.007   5.177  16.309  0.00  0.00    +0.000 C 
BRANCH  15  16
ATOM     16  O   UNL     1       7.748   6.401  16.401  0.00  0.00    +0.000 OA
BRANCH  16  17
ATOM     17  C   UNL     1       7.129   7.379  17.118  0.00  0.00    +0.000 C 
ATOM     18  O   UNL     1       5.956   7.710  16.976  0.00  0.00    +0.000 OA
BRANCH  17  19
ATOM     19  C   UNL     1       8.102   8.061  18.047  0.00  0.00    +0.000 C 
BRANCH  19  20
ATOM     20  C   UNL     1       8.010   9.578  17.880  0.00  0.00    +0.000 C 
BRANCH  20  21
ATOM     21  S   UNL     1       9.478  10.384  18.618  0.00  0.00    +0.000 S 
BRANCH  21  22
ATOM     22  C   UNL     1       9.069  12.128  18.558  0.00  0.00    +0.000 A 
ATOM     23  C   UNL     1       8.151  12.541  17.580  0.00  0.00    +0.000 A 
ATOM     24  C   UNL     1       7.750  13.878  17.484  0.00  0.00    +0.000 A 
ATOM     25  C   UNL     1       8.258  14.816  18.377  0.00  0.00    +0.000 A 
ATOM     26 CL   UNL     1       7.772  16.462  18.263  0.00  0.00    +0.000 Cl
ATOM     27  C   UNL     1       9.158  14.422  19.365  0.00  0.00    +0.000 A 
ATOM     28  C   UNL     1       9.559  13.082  19.457  0.00  0.00    +0.000 A 
ENDBRANCH  21  22
ENDBRANCH  20  21
ENDBRANCH  19  20
ENDBRANCH  17  19
ENDBRANCH  16  17
ENDBRANCH  15  16
ENDBRANCH   1  15
TORSDOF 8
ENDMDL
MODEL 5
REMARK VINA RESULT:      -7.1      3.879      7.458
REMARK  Name = 
REMARK  8 active torsions:
REMARK  status: ('A' for Active; 'I' for Inactive)
REMARK    1  A    between atoms: C_8  and  C_9
REMARK    2  A    between atoms: C_9  and  C_11
REMARK    3  A    between atoms: C_11  and  O_12
REMARK    4  A    between atoms: O_12  and  C_13
REMARK    5  A    between atoms: C_13  and  C_15
REMARK    6  A    between atoms: C_15  and  C_16
REMARK    7  A    between atoms: C_16  and  S_17
REMARK    8  A    between atoms: S_17  and  C_18
REMARK                            x       y       z     vdW  Elec       q    Type
REMARK                         _______ _______ _______ _____ _____    ______ ____
ROOT
ATOM      1  C   UNL     1       2.842   7.109  18.890  0.00  0.00    +0.000 C 
ATOM      2  O   UNL     1       3.015   6.222  19.726  0.00  0.00    +0.000 OA
ENDROOT
BRANCH   1  10
ATOM      3  O   UNL     1      -1.377  10.967  23.324  0.00  0.00    +0.000 OA
ATOM      4  C   UNL     1      -0.872  10.807  22.216  0.00  0.00    +0.000 C 
ATOM      5  C   UNL     1      -0.992  11.820  21.082  0.00  0.00    +0.000 C 
ATOM      6  O   UNL     1      -0.778  11.390  19.746  0.00  0.00    +0.000 OA
ATOM      7  C   UNL     1       0.108  10.356  19.623  0.00  0.00    +0.000 A 
ATOM      8  C   UNL     1       0.613  10.121  18.349  0.00  0.00    +0.000 A 
ATOM      9  C   UNL     1       1.501   9.063  18.135  0.00  0.00    +0.000 A 
ATOM     10  C   UNL     1       1.879   8.217  19.191  0.00  0.00    +0.000 A 
ATOM     11  C   UNL     1       1.350   8.445  20.471  0.00  0.00    +0.000 A 
ATOM     12  C   UNL     1       0.471   9.515  20.679  0.00  0.00    +0.000 A 
ATOM     13  N   UNL     1      -0.075   9.726  21.948  0.00  0.00    +0.000 N 
ATOM     14  H   UNL     1       0.080   9.079  22.709  0.00  0.00    +0.000 HD
ENDBRANCH   1  10
BRANCH   1  15
ATOM     15  C   UNL     1       3.560   7.101  17.541  0.00  0.00    +0.000 C 
BRANCH  15  16
ATOM     16  O   UNL     1       4.950   6.769  17.652  0.00  0.00    +0.000 OA
BRANCH  16  17
ATOM     17  C   UNL     1       5.584   6.602  16.458  0.00  0.00    +0.000 C 
ATOM     18  O   UNL     1       5.133   6.956  15.374  0.00  0.00    +0.000 OA
BRANCH  17  19
ATOM     19  C   UNL     1       6.876   5.844  16.637  0.00  0.00    +0.000 C 
BRANCH  19  20
ATOM     20  C   UNL     1       6.605   4.500  17.312  0.00  0.00    +0.000 C 
BRANCH  20  21
ATOM     21  S   UNL     1       5.293   3.595  16.410  0.00  0.00    +0.000 S 
BRANCH  21  22
ATOM     22  C   UNL     1       4.040   3.321  17.662  0.00  0.00    +0.000 A 
ATOM     23  C   UNL     1       4.482   3.047  18.966  0.00  0.00    +0.000 A 
ATOM     24  C   UNL     1       3.572   2.854  20.011  0.00  0.00    +0.000 A 
ATOM     25  C   UNL     1       2.206   2.944  19.761  0.00  0.00    +0.000 A 
ATOM     26 CL   UNL     1       1.082   2.705  21.041  0.00  0.00    +0.000 Cl
ATOM     27  C   UNL     1       1.750   3.231  18.478  0.00  0.00    +0.000 A 
ATOM     28  C   UNL     1       2.663   3.423  17.432  0.00  0.00    +0.000 A 
ENDBRANCH  21  22
ENDBRANCH  20  21
ENDBRANCH  19  20
ENDBRANCH  17  19
ENDBRANCH  16  17
ENDBRANCH  15  16
ENDBRANCH   1  15
TORSDOF 8
ENDMDL
MODEL 6
REMARK VINA RESULT:      -7.0      3.271      4.535
REMARK  Name = 
REMARK  8 active torsions:
REMARK  status: ('A' for Active; 'I' for Inactive)
REMARK    1  A    between atoms: C_8  and  C_9
REMARK    2  A    between atoms: C_9  and  C_11
REMARK    3  A    between atoms: C_11  and  O_12
REMARK    4  A    between atoms: O_12  and  C_13
REMARK    5  A    between atoms: C_13  and  C_15
REMARK    6  A    between atoms: C_15  and  C_16
REMARK    7  A    between atoms: C_16  and  S_17
REMARK    8  A    between atoms: S_17  and  C_18
REMARK                            x       y       z     vdW  Elec       q    Type
REMARK                         _______ _______ _______ _____ _____    ______ ____
ROOT
ATOM      1  C   UNL     1       4.183   4.227  18.662  0.00  0.00    +0.000 C 
ATOM      2  O   UNL     1       4.135   3.097  19.149  0.00  0.00    +0.000 OA
ENDROOT
BRANCH   1  10
ATOM      3  O   UNL     1       6.617   3.243  11.921  0.00  0.00    +0.000 OA
ATOM      4  C   UNL     1       6.669   3.849  12.987  0.00  0.00    +0.000 C 
ATOM      5  C   UNL     1       7.548   5.075  13.217  0.00  0.00    +0.000 C 
ATOM      6  O   UNL     1       7.890   5.440  14.546  0.00  0.00    +0.000 OA
ATOM      7  C   UNL     1       6.945   5.115  15.479  0.00  0.00    +0.000 A 
ATOM      8  C   UNL     1       7.058   5.738  16.717  0.00  0.00    +0.000 A 
ATOM      9  C   UNL     1       6.149   5.436  17.734  0.00  0.00    +0.000 A 
ATOM     10  C   UNL     1       5.128   4.494  17.530  0.00  0.00    +0.000 A 
ATOM     11  C   UNL     1       5.031   3.852  16.285  0.00  0.00    +0.000 A 
ATOM     12  C   UNL     1       5.938   4.169  15.267  0.00  0.00    +0.000 A 
ATOM     13  N   UNL     1       5.857   3.512  14.037  0.00  0.00    +0.000 N 
ATOM     14  H   UNL     1       5.212   2.749  13.881  0.00  0.00    +0.000 HD
ENDBRANCH   1  10
BRANCH   1  15
ATOM     15  C   UNL     1       3.327   5.375  19.196  0.00  0.00    +0.000 C 
BRANCH  15  16
ATOM     16  O   UNL     1       2.560   6.021  18.172  0.00  0.00    +0.000 OA
BRANCH  16  17
ATOM     17  C   UNL     1       2.896   7.322  17.955  0.00  0.00    +0.000 C 
ATOM     18  O   UNL     1       3.800   7.695  17.214  0.00  0.00    +0.000 OA
BRANCH  17  19
ATOM     19  C   UNL     1       2.067   8.242  18.817  0.00  0.00    +0.000 C 
BRANCH  19  20
ATOM     20  C   UNL     1       1.546   9.413  17.983  0.00  0.00    +0.000 C 
BRANCH  20  21
ATOM     21  S   UNL     1       0.822  10.692  19.074  0.00  0.00    +0.000 S 
BRANCH  21  22
ATOM     22  C   UNL     1      -0.897  10.745  18.569  0.00  0.00    +0.000 A 
ATOM     23  C   UNL     1      -1.728  11.675  19.212  0.00  0.00    +0.000 A 
ATOM     24  C   UNL     1      -3.075  11.808  18.856  0.00  0.00    +0.000 A 
ATOM     25  C   UNL     1      -3.601  11.014  17.842  0.00  0.00    +0.000 A 
ATOM     26 CL   UNL     1      -5.257  11.170  17.401  0.00  0.00    +0.000 Cl
ATOM     27  C   UNL     1      -2.788  10.097  17.181  0.00  0.00    +0.000 A 
ATOM     28  C   UNL     1      -1.440   9.966  17.541  0.00  0.00    +0.000 A 
ENDBRANCH  21  22
ENDBRANCH  20  21
ENDBRANCH  19  20
ENDBRANCH  17  19
ENDBRANCH  16  17
ENDBRANCH  15  16
ENDBRANCH   1  15
TORSDOF 8
ENDMDL
MODEL 7
REMARK VINA RESULT:      -6.8      3.977      7.078
REMARK  Name = 
REMARK  8 active torsions:
REMARK  status: ('A' for Active; 'I' for Inactive)
REMARK    1  A    between atoms: C_8  and  C_9
REMARK    2  A    between atoms: C_9  and  C_11
REMARK    3  A    between atoms: C_11  and  O_12
REMARK    4  A    between atoms: O_12  and  C_13
REMARK    5  A    between atoms: C_13  and  C_15
REMARK    6  A    between atoms: C_15  and  C_16
REMARK    7  A    between atoms: C_16  and  S_17
REMARK    8  A    between atoms: S_17  and  C_18
REMARK                            x       y       z     vdW  Elec       q    Type
REMARK                         _______ _______ _______ _____ _____    ______ ____
ROOT
ATOM      1  C   UNL     1       2.360   7.028  19.612  0.00  0.00    +0.000 C 
ATOM      2  O   UNL     1       3.216   6.941  18.732  0.00  0.00    +0.000 OA
ENDROOT
BRANCH   1  10
ATOM      3  O   UNL     1      -1.636  11.761  23.351  0.00  0.00    +0.000 OA
ATOM      4  C   UNL     1      -1.015  11.472  22.332  0.00  0.00    +0.000 C 
ATOM      5  C   UNL     1      -0.771  12.452  21.188  0.00  0.00    +0.000 C 
ATOM      6  O   UNL     1      -0.452  11.945  19.900  0.00  0.00    +0.000 OA
ATOM      7  C   UNL     1       0.226  10.757  19.916  0.00  0.00    +0.000 A 
ATOM      8  C   UNL     1       0.856  10.390  18.732  0.00  0.00    +0.000 A 
ATOM      9  C   UNL     1       1.545   9.176  18.657  0.00  0.00    +0.000 A 
ATOM     10  C   UNL     1       1.594   8.309  19.761  0.00  0.00    +0.000 A 
ATOM     11  C   UNL     1       0.939   8.675  20.947  0.00  0.00    +0.000 A 
ATOM     12  C   UNL     1       0.262   9.899  21.018  0.00  0.00    +0.000 A 
ATOM     13  N   UNL     1      -0.411  10.251  22.190  0.00  0.00    +0.000 N 
ATOM     14  H   UNL     1      -0.497   9.612  22.969  0.00  0.00    +0.000 HD
ENDBRANCH   1  10
BRANCH   1  15
ATOM     15  C   UNL     1       2.071   5.879  20.578  0.00  0.00    +0.000 C 
BRANCH  15  16
ATOM     16  O   UNL     1       1.947   4.614  19.916  0.00  0.00    +0.000 OA
BRANCH  16  17
ATOM     17  C   UNL     1       2.060   3.536  20.741  0.00  0.00    +0.000 C 
ATOM     18  O   UNL     1       2.136   3.599  21.963  0.00  0.00    +0.000 OA
BRANCH  17  19
ATOM     19  C   UNL     1       2.169   2.259  19.944  0.00  0.00    +0.000 C 
BRANCH  19  20
ATOM     20  C   UNL     1       3.583   2.114  19.380  0.00  0.00    +0.000 C 
BRANCH  20  21
ATOM     21  S   UNL     1       3.629   2.685  17.641  0.00  0.00    +0.000 S 
BRANCH  21  22
ATOM     22  C   UNL     1       4.813   4.030  17.675  0.00  0.00    +0.000 A 
ATOM     23  C   UNL     1       4.911   4.831  16.527  0.00  0.00    +0.000 A 
ATOM     24  C   UNL     1       5.785   5.923  16.480  0.00  0.00    +0.000 A 
ATOM     25  C   UNL     1       6.565   6.229  17.591  0.00  0.00    +0.000 A 
ATOM     26 CL   UNL     1       7.644   7.568  17.539  0.00  0.00    +0.000 Cl
ATOM     27  C   UNL     1       6.470   5.455  18.745  0.00  0.00    +0.000 A 
ATOM     28  C   UNL     1       5.595   4.362  18.788  0.00  0.00    +0.000 A 
ENDBRANCH  21  22
ENDBRANCH  20  21
ENDBRANCH  19  20
ENDBRANCH  17  19
ENDBRANCH  16  17
ENDBRANCH  15  16
ENDBRANCH   1  15
TORSDOF 8
ENDMDL
MODEL 8
REMARK VINA RESULT:      -6.8      4.414      7.611
REMARK  Name = 
REMARK  8 active torsions:
REMARK  status: ('A' for Active; 'I' for Inactive)
REMARK    1  A    between atoms: C_8  and  C_9
REMARK    2  A    between atoms: C_9  and  C_11
REMARK    3  A    between atoms: C_11  and  O_12
REMARK    4  A    between atoms: O_12  and  C_13
REMARK    5  A    between atoms: C_13  and  C_15
REMARK    6  A    between atoms: C_15  and  C_16
REMARK    7  A    between atoms: C_16  and  S_17
REMARK    8  A    between atoms: S_17  and  C_18
REMARK                            x       y       z     vdW  Elec       q    Type
REMARK                         _______ _______ _______ _____ _____    ______ ____
ROOT
ATOM      1  C   UNL     1       2.395   8.081  18.403  0.00  0.00    +0.000 C 
ATOM      2  O   UNL     1       3.176   8.309  17.480  0.00  0.00    +0.000 OA
ENDROOT
BRANCH   1  10
ATOM      3  O   UNL     1      -3.539  11.518  16.098  0.00  0.00    +0.000 OA
ATOM      4  C   UNL     1      -2.792  11.197  17.018  0.00  0.00    +0.000 C 
ATOM      5  C   UNL     1      -3.088  11.491  18.485  0.00  0.00    +0.000 C 
ATOM      6  O   UNL     1      -2.017  11.496  19.418  0.00  0.00    +0.000 OA
ATOM      7  C   UNL     1      -0.994  10.646  19.103  0.00  0.00    +0.000 A 
ATOM      8  C   UNL     1      -0.097  10.353  20.125  0.00  0.00    +0.000 A 
ATOM      9  C   UNL     1       0.994   9.516  19.875  0.00  0.00    +0.000 A 
ATOM     10  C   UNL     1       1.210   8.978  18.596  0.00  0.00    +0.000 A 
ATOM     11  C   UNL     1       0.314   9.294  17.563  0.00  0.00    +0.000 A 
ATOM     12  C   UNL     1      -0.784  10.124  17.824  0.00  0.00    +0.000 A 
ATOM     13  N   UNL     1      -1.661  10.459  16.790  0.00  0.00    +0.000 N 
ATOM     14  H   UNL     1      -1.485  10.188  15.832  0.00  0.00    +0.000 HD
ENDBRANCH   1  10
BRANCH   1  15
ATOM     15  C   UNL     1       2.611   6.924  19.378  0.00  0.00    +0.000 C 
BRANCH  15  16
ATOM     16  O   UNL     1       1.774   5.794  19.097  0.00  0.00    +0.000 OA
BRANCH  16  17
ATOM     17  C   UNL     1       1.822   4.813  20.040  0.00  0.00    +0.000 C 
ATOM     18  O   UNL     1       2.286   4.950  21.167  0.00  0.00    +0.000 OA
BRANCH  17  19
ATOM     19  C   UNL     1       1.308   3.508  19.483  0.00  0.00    +0.000 C 
BRANCH  19  20
ATOM     20  C   UNL     1       2.227   2.362  19.902  0.00  0.00    +0.000 C 
BRANCH  20  21
ATOM     21  S   UNL     1       3.305   1.874  18.505  0.00  0.00    +0.000 S 
BRANCH  21  22
ATOM     22  C   UNL     1       4.193   3.382  18.118  0.00  0.00    +0.000 A 
ATOM     23  C   UNL     1       5.070   3.881  19.094  0.00  0.00    +0.000 A 
ATOM     24  C   UNL     1       5.829   5.034  18.863  0.00  0.00    +0.000 A 
ATOM     25  C   UNL     1       5.724   5.694  17.643  0.00  0.00    +0.000 A 
ATOM     26 CL   UNL     1       6.652   7.113  17.352  0.00  0.00    +0.000 Cl
ATOM     27  C   UNL     1       4.872   5.205  16.656  0.00  0.00    +0.000 A 
ATOM     28  C   UNL     1       4.112   4.051  16.892  0.00  0.00    +0.000 A 
ENDBRANCH  21  22
ENDBRANCH  20  21
ENDBRANCH  19  20
ENDBRANCH  17  19
ENDBRANCH  16  17
ENDBRANCH  15  16
ENDBRANCH   1  15
TORSDOF 8
ENDMDL
MODEL 9
REMARK VINA RESULT:      -6.7      4.261      5.742
REMARK  Name = 
REMARK  8 active torsions:
REMARK  status: ('A' for Active; 'I' for Inactive)
REMARK    1  A    between atoms: C_8  and  C_9
REMARK    2  A    between atoms: C_9  and  C_11
REMARK    3  A    between atoms: C_11  and  O_12
REMARK    4  A    between atoms: O_12  and  C_13
REMARK    5  A    between atoms: C_13  and  C_15
REMARK    6  A    between atoms: C_15  and  C_16
REMARK    7  A    between atoms: C_16  and  S_17
REMARK    8  A    between atoms: S_17  and  C_18
REMARK                            x       y       z     vdW  Elec       q    Type
REMARK                         _______ _______ _______ _____ _____    ______ ____
ROOT
ATOM      1  C   UNL     1       2.103   8.283  18.743  0.00  0.00    +0.000 C 
ATOM      2  O   UNL     1       1.844   9.274  18.059  0.00  0.00    +0.000 OA
ENDROOT
BRANCH   1  10
ATOM      3  O   UNL     1       7.608   5.486  14.972  0.00  0.00    +0.000 OA
ATOM      4  C   UNL     1       6.601   5.322  15.656  0.00  0.00    +0.000 C 
ATOM      5  C   UNL     1       6.119   3.954  16.130  0.00  0.00    +0.000 C 
ATOM      6  O   UNL     1       4.762   3.796  16.517  0.00  0.00    +0.000 OA
ATOM      7  C   UNL     1       4.193   4.922  17.045  0.00  0.00    +0.000 A 
ATOM      8  C   UNL     1       3.005   4.744  17.745  0.00  0.00    +0.000 A 
ATOM      9  C   UNL     1       2.345   5.849  18.289  0.00  0.00    +0.000 A 
ATOM     10  C   UNL     1       2.858   7.147  18.123  0.00  0.00    +0.000 A 
ATOM     11  C   UNL     1       4.047   7.323  17.398  0.00  0.00    +0.000 A 
ATOM     12  C   UNL     1       4.709   6.208  16.866  0.00  0.00    +0.000 A 
ATOM     13  N   UNL     1       5.878   6.387  16.123  0.00  0.00    +0.000 N 
ATOM     14  H   UNL     1       6.222   7.307  15.883  0.00  0.00    +0.000 HD
ENDBRANCH   1  10
BRANCH   1  15
ATOM     15  C   UNL     1       1.654   8.165  20.198  0.00  0.00    +0.000 C 
BRANCH  15  16
ATOM     16  O   UNL     1       0.707   9.174  20.573  0.00  0.00    +0.000 OA
BRANCH  16  17
ATOM     17  C   UNL     1       0.801   9.577  21.871  0.00  0.00    +0.000 C 
ATOM     18  O   UNL     1       1.760   9.356  22.602  0.00  0.00    +0.000 OA
BRANCH  17  19
ATOM     19  C   UNL     1      -0.473  10.254  22.316  0.00  0.00    +0.000 C 
BRANCH  19  20
ATOM     20  C   UNL     1      -0.895  11.301  21.286  0.00  0.00    +0.000 C 
BRANCH  20  21
ATOM     21  S   UNL     1      -1.088  12.934  22.090  0.00  0.00    +0.000 S 
BRANCH  21  22
ATOM     22  C   UNL     1      -2.772  12.900  22.704  0.00  0.00    +0.000 A 
ATOM     23  C   UNL     1      -3.804  13.018  21.761  0.00  0.00    +0.000 A 
ATOM     24  C   UNL     1      -5.147  12.967  22.149  0.00  0.00    +0.000 A 
ATOM     25  C   UNL     1      -5.470  12.785  23.490  0.00  0.00    +0.000 A 
ATOM     26 CL   UNL     1      -7.119  12.724  23.975  0.00  0.00    +0.000 Cl
ATOM     27  C   UNL     1      -4.460  12.650  24.439  0.00  0.00    +0.000 A 
ATOM     28  C   UNL     1      -3.115  12.703  24.047  0.00  0.00    +0.000 A 
ENDBRANCH  21  22
ENDBRANCH  20  21
ENDBRANCH  19  20
ENDBRANCH  17  19
ENDBRANCH  16  17
ENDBRANCH  15  16
ENDBRANCH   1  15
TORSDOF 8
ENDMDL
