MODEL 1
REMARK VINA RESULT:      -7.0      0.000      0.000
REMARK  Name = 
REMARK  3 active torsions:
REMARK  status: ('A' for Active; 'I' for Inactive)
REMARK    1  A    between atoms: C_1  and  N_2
REMARK    2  A    between atoms: C_8  and  C_9
REMARK    3  A    between atoms: C_18  and  C_19
REMARK                            x       y       z     vdW  Elec       q    Type
REMARK                         _______ _______ _______ _____ _____    ______ ____
ROOT
ATOM      1  C   UNL     1      -3.530  14.747  23.840  0.00  0.00    +0.000 C 
ATOM      2  N   UNL     1      -2.555  13.738  23.469  0.00  0.00    +0.000 N 
ATOM      3  C   UNL     1      -1.385  14.014  22.775  0.00  0.00    +0.000 A 
ATOM      4  N   UNL     1      -1.035  15.324  22.534  0.00  0.00    +0.000 N 
ATOM      5  C   UNL     1      -0.809  16.341  23.571  0.00  0.00    +0.000 C 
ATOM      6  C   UNL     1      -1.288  17.706  23.036  0.00  0.00    +0.000 C 
ATOM      7  O   UNL     1      -0.675  18.040  21.779  0.00  0.00    +0.000 OA
ATOM      8  C   UNL     1      -0.920  17.008  20.795  0.00  0.00    +0.000 C 
ATOM      9  C   UNL     1      -0.335  15.667  21.287  0.00  0.00    +0.000 C 
ATOM     10  N   UNL     1      -0.637  13.068  22.282  0.00  0.00    +0.000 NA
ATOM     11  C   UNL     1      -1.019  11.763  22.439  0.00  0.00    +0.000 A 
ATOM     12  C   UNL     1      -2.106  11.402  23.123  0.00  0.00    +0.000 A 
ATOM     13  C   UNL     1      -2.962  12.440  23.682  0.00  0.00    +0.000 A 
ATOM     14  O   UNL     1      -4.004  12.113  24.262  0.00  0.00    +0.000 OA
ENDROOT
BRANCH   8  15
ATOM     15  C   UNL     1      -0.324  17.406  19.467  0.00  0.00    +0.000 A 
ATOM     16  C   UNL     1       1.033  17.177  19.187  0.00  0.00    +0.000 A 
ATOM     17  C   UNL     1       1.558  17.498  17.939  0.00  0.00    +0.000 A 
ATOM     18  C   UNL     1       0.731  18.052  16.971  0.00  0.00    +0.000 A 
ATOM     19  F   UNL     1       1.237  18.354  15.768  0.00  0.00    +0.000 F 
ATOM     20  C   UNL     1      -0.613  18.295  17.225  0.00  0.00    +0.000 A 
ATOM     21  C   UNL     1      -1.143  17.970  18.474  0.00  0.00    +0.000 A 
ENDBRANCH   8  15
BRANCH  11  22
ATOM     22  C   UNL     1      -0.201  10.714  21.794  0.00  0.00    +0.000 A 
ATOM     23  C   UNL     1       0.050  10.749  20.418  0.00  0.00    +0.000 A 
ATOM     24  C   UNL     1       0.810   9.735  19.848  0.00  0.00    +0.000 A 
ATOM     25  N   UNL     1       1.332   8.703  20.548  0.00  0.00    +0.000 NA
ATOM     26  C   UNL     1       1.073   8.682  21.871  0.00  0.00    +0.000 A 
ATOM     27  C   UNL     1       0.324   9.638  22.520  0.00  0.00    +0.000 A 
ATOM     28  F   UNL     1       0.113   9.504  23.839  0.00  0.00    +0.000 F 
ENDBRANCH  11  22
TORSDOF 2
ENDMDL
MODEL 2
REMARK VINA RESULT:      -6.9      4.600      6.448
REMARK  Name = 
REMARK  3 active torsions:
REMARK  status: ('A' for Active; 'I' for Inactive)
REMARK    1  A    between atoms: C_1  and  N_2
REMARK    2  A    between atoms: C_8  and  C_9
REMARK    3  A    between atoms: C_18  and  C_19
REMARK                            x       y       z     vdW  Elec       q    Type
REMARK                         _______ _______ _______ _____ _____    ______ ____
ROOT
ATOM      1  C   UNL     1      -0.390  11.327  22.390  0.00  0.00    +0.000 C 
ATOM      2  N   UNL     1       0.397  10.276  21.771  0.00  0.00    +0.000 N 
ATOM      3  C   UNL     1       0.496  10.095  20.399  0.00  0.00    +0.000 A 
ATOM      4  N   UNL     1      -0.056  11.029  19.551  0.00  0.00    +0.000 N 
ATOM      5  C   UNL     1       0.305  12.453  19.516  0.00  0.00    +0.000 C 
ATOM      6  C   UNL     1      -0.957  13.274  19.178  0.00  0.00    +0.000 C 
ATOM      7  O   UNL     1      -1.587  12.824  17.967  0.00  0.00    +0.000 OA
ATOM      8  C   UNL     1      -1.917  11.419  18.048  0.00  0.00    +0.000 C 
ATOM      9  C   UNL     1      -0.633  10.591  18.271  0.00  0.00    +0.000 C 
ATOM     10  N   UNL     1       1.039   9.029  19.883  0.00  0.00    +0.000 NA
ATOM     11  C   UNL     1       1.515   8.050  20.713  0.00  0.00    +0.000 A 
ATOM     12  C   UNL     1       1.496   8.156  22.043  0.00  0.00    +0.000 A 
ATOM     13  C   UNL     1       0.892   9.336  22.647  0.00  0.00    +0.000 A 
ATOM     14  O   UNL     1       0.815   9.410  23.879  0.00  0.00    +0.000 OA
ENDROOT
BRANCH   8  15
ATOM     15  C   UNL     1      -2.634  10.980  16.794  0.00  0.00    +0.000 A 
ATOM     16  C   UNL     1      -2.103   9.972  15.974  0.00  0.00    +0.000 A 
ATOM     17  C   UNL     1      -2.800   9.540  14.850  0.00  0.00    +0.000 A 
ATOM     18  C   UNL     1      -4.024  10.116  14.541  0.00  0.00    +0.000 A 
ATOM     19  F   UNL     1      -4.697   9.692  13.463  0.00  0.00    +0.000 F 
ATOM     20  C   UNL     1      -4.569  11.119  15.333  0.00  0.00    +0.000 A 
ATOM     21  C   UNL     1      -3.874  11.552  16.462  0.00  0.00    +0.000 A 
ENDBRANCH   8  15
BRANCH  11  22
ATOM     22  C   UNL     1       2.044   6.813  20.104  0.00  0.00    +0.000 A 
ATOM     23  C   UNL     1       1.833   5.570  20.710  0.00  0.00    +0.000 A 
ATOM     24  C   UNL     1       2.361   4.432  20.114  0.00  0.00    +0.000 A 
ATOM     25  N   UNL     1       3.076   4.449  18.966  0.00  0.00    +0.000 NA
ATOM     26  C   UNL     1       3.277   5.656  18.401  0.00  0.00    +0.000 A 
ATOM     27  C   UNL     1       2.800   6.836  18.924  0.00  0.00    +0.000 A 
ATOM     28  F   UNL     1       3.078   7.984  18.286  0.00  0.00    +0.000 F 
ENDBRANCH  11  22
TORSDOF 2
ENDMDL
MODEL 3
REMARK VINA RESULT:      -6.8      0.941      1.291
REMARK  Name = 
REMARK  3 active torsions:
REMARK  status: ('A' for Active; 'I' for Inactive)
REMARK    1  A    between atoms: C_1  and  N_2
REMARK    2  A    between atoms: C_8  and  C_9
REMARK    3  A    between atoms: C_18  and  C_19
REMARK                            x       y       z     vdW  Elec       q    Type
REMARK                         _______ _______ _______ _____ _____    ______ ____
ROOT
ATOM      1  C   UNL     1      -3.876  14.821  23.904  0.00  0.00    +0.000 C 
ATOM      2  N   UNL     1      -2.878  13.818  23.577  0.00  0.00    +0.000 N 
ATOM      3  C   UNL     1      -1.685  14.100  22.928  0.00  0.00    +0.000 A 
ATOM      4  N   UNL     1      -1.335  15.411  22.694  0.00  0.00    +0.000 N 
ATOM      5  C   UNL     1      -1.159  16.435  23.733  0.00  0.00    +0.000 C 
ATOM      6  C   UNL     1      -1.627  17.794  23.173  0.00  0.00    +0.000 C 
ATOM      7  O   UNL     1      -0.968  18.127  21.940  0.00  0.00    +0.000 OA
ATOM      8  C   UNL     1      -1.166  17.089  20.952  0.00  0.00    +0.000 C 
ATOM      9  C   UNL     1      -0.591  15.754  21.473  0.00  0.00    +0.000 C 
ATOM     10  N   UNL     1      -0.911  13.158  22.470  0.00  0.00    +0.000 NA
ATOM     11  C   UNL     1      -1.288  11.851  22.618  0.00  0.00    +0.000 A 
ATOM     12  C   UNL     1      -2.398  11.484  23.260  0.00  0.00    +0.000 A 
ATOM     13  C   UNL     1      -3.284  12.518  23.780  0.00  0.00    +0.000 A 
ATOM     14  O   UNL     1      -4.345  12.185  24.320  0.00  0.00    +0.000 OA
ENDROOT
BRANCH   8  15
ATOM     15  C   UNL     1      -0.521  17.484  19.646  0.00  0.00    +0.000 A 
ATOM     16  C   UNL     1       0.870  17.410  19.477  0.00  0.00    +0.000 A 
ATOM     17  C   UNL     1       1.447  17.726  18.250  0.00  0.00    +0.000 A 
ATOM     18  C   UNL     1       0.637  18.121  17.194  0.00  0.00    +0.000 A 
ATOM     19  F   UNL     1       1.194  18.416  16.013  0.00  0.00    +0.000 F 
ATOM     20  C   UNL     1      -0.742  18.208  17.338  0.00  0.00    +0.000 A 
ATOM     21  C   UNL     1      -1.324  17.888  18.565  0.00  0.00    +0.000 A 
ENDBRANCH   8  15
BRANCH  11  22
ATOM     22  C   UNL     1      -0.437  10.805  22.011  0.00  0.00    +0.000 A 
ATOM     23  C   UNL     1       0.196   9.846  22.810  0.00  0.00    +0.000 A 
ATOM     24  C   UNL     1       1.000   8.891  22.202  0.00  0.00    +0.000 A 
ATOM     25  N   UNL     1       1.213   8.826  20.869  0.00  0.00    +0.000 NA
ATOM     26  C   UNL     1       0.603   9.763  20.117  0.00  0.00    +0.000 A 
ATOM     27  C   UNL     1      -0.205  10.752  20.631  0.00  0.00    +0.000 A 
ATOM     28  F   UNL     1      -0.746  11.646  19.788  0.00  0.00    +0.000 F 
ENDBRANCH  11  22
TORSDOF 2
ENDMDL
MODEL 4
REMARK VINA RESULT:      -6.8      3.629      4.600
REMARK  Name = 
REMARK  3 active torsions:
REMARK  status: ('A' for Active; 'I' for Inactive)
REMARK    1  A    between atoms: C_1  and  N_2
REMARK    2  A    between atoms: C_8  and  C_9
REMARK    3  A    between atoms: C_18  and  C_19
REMARK                            x       y       z     vdW  Elec       q    Type
REMARK                         _______ _______ _______ _____ _____    ______ ____
ROOT
ATOM      1  C   UNL     1      -1.241  14.241  19.848  0.00  0.00    +0.000 C 
ATOM      2  N   UNL     1      -0.578  12.950  19.902  0.00  0.00    +0.000 N 
ATOM      3  C   UNL     1       0.781  12.791  20.126  0.00  0.00    +0.000 A 
ATOM      4  N   UNL     1       1.546  13.887  20.459  0.00  0.00    +0.000 N 
ATOM      5  C   UNL     1       1.324  14.744  21.632  0.00  0.00    +0.000 C 
ATOM      6  C   UNL     1       1.694  16.195  21.260  0.00  0.00    +0.000 C 
ATOM      7  O   UNL     1       3.029  16.295  20.736  0.00  0.00    +0.000 OA
ATOM      8  C   UNL     1       3.198  15.431  19.589  0.00  0.00    +0.000 C 
ATOM      9  C   UNL     1       2.939  13.964  19.995  0.00  0.00    +0.000 C 
ATOM     10  N   UNL     1       1.376  11.643  19.966  0.00  0.00    +0.000 NA
ATOM     11  C   UNL     1       0.645  10.562  19.550  0.00  0.00    +0.000 A 
ATOM     12  C   UNL     1      -0.673  10.613  19.347  0.00  0.00    +0.000 A 
ATOM     13  C   UNL     1      -1.362  11.886  19.516  0.00  0.00    +0.000 A 
ATOM     14  O   UNL     1      -2.571  11.953  19.267  0.00  0.00    +0.000 OA
ENDROOT
BRANCH   8  15
ATOM     15  C   UNL     1       4.584  15.597  19.014  0.00  0.00    +0.000 A 
ATOM     16  C   UNL     1       5.368  16.717  19.332  0.00  0.00    +0.000 A 
ATOM     17  C   UNL     1       6.665  16.831  18.838  0.00  0.00    +0.000 A 
ATOM     18  C   UNL     1       7.177  15.831  18.024  0.00  0.00    +0.000 A 
ATOM     19  F   UNL     1       8.428  15.940  17.557  0.00  0.00    +0.000 F 
ATOM     20  C   UNL     1       6.420  14.716  17.689  0.00  0.00    +0.000 A 
ATOM     21  C   UNL     1       5.121  14.596  18.186  0.00  0.00    +0.000 A 
ENDBRANCH   8  15
BRANCH  11  22
ATOM     22  C   UNL     1       1.358   9.294  19.290  0.00  0.00    +0.000 A 
ATOM     23  C   UNL     1       1.934   9.042  18.040  0.00  0.00    +0.000 A 
ATOM     24  C   UNL     1       2.581   7.831  17.831  0.00  0.00    +0.000 A 
ATOM     25  N   UNL     1       2.695   6.867  18.773  0.00  0.00    +0.000 NA
ATOM     26  C   UNL     1       2.127   7.125  19.968  0.00  0.00    +0.000 A 
ATOM     27  C   UNL     1       1.459   8.292  20.263  0.00  0.00    +0.000 A 
ATOM     28  F   UNL     1       0.914   8.432  21.482  0.00  0.00    +0.000 F 
ENDBRANCH  11  22
TORSDOF 2
ENDMDL
MODEL 5
REMARK VINA RESULT:      -6.7      3.463      7.235
REMARK  Name = 
REMARK  3 active torsions:
REMARK  status: ('A' for Active; 'I' for Inactive)
REMARK    1  A    between atoms: C_1  and  N_2
REMARK    2  A    between atoms: C_8  and  C_9
REMARK    3  A    between atoms: C_18  and  C_19
REMARK                            x       y       z     vdW  Elec       q    Type
REMARK                         _______ _______ _______ _____ _____    ______ ____
ROOT
ATOM      1  C   UNL     1       0.549   9.309  19.429  0.00  0.00    +0.000 C 
ATOM      2  N   UNL     1       1.253  10.578  19.360  0.00  0.00    +0.000 N 
ATOM      3  C   UNL     1       1.083  11.604  20.278  0.00  0.00    +0.000 A 
ATOM      4  N   UNL     1       0.319  11.386  21.403  0.00  0.00    +0.000 N 
ATOM      5  C   UNL     1       0.585  10.355  22.415  0.00  0.00    +0.000 C 
ATOM      6  C   UNL     1      -0.763   9.833  22.955  0.00  0.00    +0.000 C 
ATOM      7  O   UNL     1      -1.598  10.896  23.442  0.00  0.00    +0.000 OA
ATOM      8  C   UNL     1      -1.826  11.887  22.413  0.00  0.00    +0.000 C 
ATOM      9  C   UNL     1      -0.479  12.489  21.959  0.00  0.00    +0.000 C 
ATOM     10  N   UNL     1       1.569  12.795  20.076  0.00  0.00    +0.000 NA
ATOM     11  C   UNL     1       2.257  13.051  18.921  0.00  0.00    +0.000 A 
ATOM     12  C   UNL     1       2.501  12.117  18.000  0.00  0.00    +0.000 A 
ATOM     13  C   UNL     1       1.966  10.776  18.199  0.00  0.00    +0.000 A 
ATOM     14  O   UNL     1       2.135   9.924  17.320  0.00  0.00    +0.000 OA
ENDROOT
BRANCH   8  15
ATOM     15  C   UNL     1      -2.756  12.961  22.923  0.00  0.00    +0.000 A 
ATOM     16  C   UNL     1      -4.112  12.973  22.563  0.00  0.00    +0.000 A 
ATOM     17  C   UNL     1      -4.970  13.938  23.083  0.00  0.00    +0.000 A 
ATOM     18  C   UNL     1      -4.474  14.894  23.958  0.00  0.00    +0.000 A 
ATOM     19  F   UNL     1      -5.303  15.816  24.463  0.00  0.00    +0.000 F 
ATOM     20  C   UNL     1      -3.134  14.908  24.326  0.00  0.00    +0.000 A 
ATOM     21  C   UNL     1      -2.273  13.940  23.810  0.00  0.00    +0.000 A 
ENDBRANCH   8  15
BRANCH  11  22
ATOM     22  C   UNL     1       2.721  14.433  18.675  0.00  0.00    +0.000 A 
ATOM     23  C   UNL     1       4.085  14.717  18.554  0.00  0.00    +0.000 A 
ATOM     24  C   UNL     1       4.482  16.031  18.340  0.00  0.00    +0.000 A 
ATOM     25  N   UNL     1       3.620  17.068  18.238  0.00  0.00    +0.000 NA
ATOM     26  C   UNL     1       2.311  16.777  18.366  0.00  0.00    +0.000 A 
ATOM     27  C   UNL     1       1.826  15.507  18.588  0.00  0.00    +0.000 A 
ATOM     28  F   UNL     1       0.501  15.336  18.719  0.00  0.00    +0.000 F 
ENDBRANCH  11  22
TORSDOF 2
ENDMDL
MODEL 6
REMARK VINA RESULT:      -6.7      6.229      9.596
REMARK  Name = 
REMARK  3 active torsions:
REMARK  status: ('A' for Active; 'I' for Inactive)
REMARK    1  A    between atoms: C_1  and  N_2
REMARK    2  A    between atoms: C_8  and  C_9
REMARK    3  A    between atoms: C_18  and  C_19
REMARK                            x       y       z     vdW  Elec       q    Type
REMARK                         _______ _______ _______ _____ _____    ______ ____
ROOT
ATOM      1  C   UNL     1       0.647   3.940  19.361  0.00  0.00    +0.000 C 
ATOM      2  N   UNL     1       1.955   4.116  18.756  0.00  0.00    +0.000 N 
ATOM      3  C   UNL     1       2.682   5.295  18.824  0.00  0.00    +0.000 A 
ATOM      4  N   UNL     1       2.230   6.326  19.617  0.00  0.00    +0.000 N 
ATOM      5  C   UNL     1       2.001   6.237  21.066  0.00  0.00    +0.000 C 
ATOM      6  C   UNL     1       0.791   7.122  21.430  0.00  0.00    +0.000 C 
ATOM      7  O   UNL     1       0.952   8.474  20.970  0.00  0.00    +0.000 OA
ATOM      8  C   UNL     1       1.179   8.509  19.542  0.00  0.00    +0.000 C 
ATOM      9  C   UNL     1       2.458   7.716  19.195  0.00  0.00    +0.000 C 
ATOM     10  N   UNL     1       3.751   5.487  18.104  0.00  0.00    +0.000 NA
ATOM     11  C   UNL     1       4.165   4.505  17.245  0.00  0.00    +0.000 A 
ATOM     12  C   UNL     1       3.551   3.325  17.142  0.00  0.00    +0.000 A 
ATOM     13  C   UNL     1       2.351   3.085  17.933  0.00  0.00    +0.000 A 
ATOM     14  O   UNL     1       1.742   2.019  17.795  0.00  0.00    +0.000 OA
ENDROOT
BRANCH   8  15
ATOM     15  C   UNL     1       1.282   9.938  19.067  0.00  0.00    +0.000 A 
ATOM     16  C   UNL     1       0.408  10.924  19.551  0.00  0.00    +0.000 A 
ATOM     17  C   UNL     1       0.548  12.248  19.145  0.00  0.00    +0.000 A 
ATOM     18  C   UNL     1       1.557  12.588  18.255  0.00  0.00    +0.000 A 
ATOM     19  F   UNL     1       1.694  13.865  17.873  0.00  0.00    +0.000 F 
ATOM     20  C   UNL     1       2.431  11.630  17.757  0.00  0.00    +0.000 A 
ATOM     21  C   UNL     1       2.296  10.303  18.164  0.00  0.00    +0.000 A 
ENDBRANCH   8  15
BRANCH  11  22
ATOM     22  C   UNL     1       5.328   4.781  16.376  0.00  0.00    +0.000 A 
ATOM     23  C   UNL     1       5.293   4.466  15.013  0.00  0.00    +0.000 A 
ATOM     24  C   UNL     1       6.412   4.727  14.233  0.00  0.00    +0.000 A 
ATOM     25  N   UNL     1       7.550   5.276  14.714  0.00  0.00    +0.000 NA
ATOM     26  C   UNL     1       7.569   5.565  16.030  0.00  0.00    +0.000 A 
ATOM     27  C   UNL     1       6.512   5.334  16.881  0.00  0.00    +0.000 A 
ATOM     28  F   UNL     1       6.650   5.644  18.179  0.00  0.00    +0.000 F 
ENDBRANCH  11  22
TORSDOF 2
ENDMDL
MODEL 7
REMARK VINA RESULT:      -6.7      1.166      1.744
REMARK  Name = 
REMARK  3 active torsions:
REMARK  status: ('A' for Active; 'I' for Inactive)
REMARK    1  A    between atoms: C_1  and  N_2
REMARK    2  A    between atoms: C_8  and  C_9
REMARK    3  A    between atoms: C_18  and  C_19
REMARK                            x       y       z     vdW  Elec       q    Type
REMARK                         _______ _______ _______ _____ _____    ______ ____
ROOT
ATOM      1  C   UNL     1      -4.133  15.517  23.754  0.00  0.00    +0.000 C 
ATOM      2  N   UNL     1      -3.201  14.432  23.499  0.00  0.00    +0.000 N 
ATOM      3  C   UNL     1      -1.998  14.592  22.828  0.00  0.00    +0.000 A 
ATOM      4  N   UNL     1      -1.571  15.858  22.496  0.00  0.00    +0.000 N 
ATOM      5  C   UNL     1      -1.324  16.943  23.456  0.00  0.00    +0.000 C 
ATOM      6  C   UNL     1      -1.713  18.283  22.797  0.00  0.00    +0.000 C 
ATOM      7  O   UNL     1      -1.043  18.482  21.540  0.00  0.00    +0.000 OA
ATOM      8  C   UNL     1      -1.312  17.388  20.634  0.00  0.00    +0.000 C 
ATOM      9  C   UNL     1      -0.815  16.062  21.251  0.00  0.00    +0.000 C 
ATOM     10  N   UNL     1      -1.286  13.573  22.439  0.00  0.00    +0.000 NA
ATOM     11  C   UNL     1      -1.741  12.305  22.685  0.00  0.00    +0.000 A 
ATOM     12  C   UNL     1      -2.867  12.057  23.357  0.00  0.00    +0.000 A 
ATOM     13  C   UNL     1      -3.684  13.178  23.801  0.00  0.00    +0.000 A 
ATOM     14  O   UNL     1      -4.759  12.953  24.367  0.00  0.00    +0.000 OA
ENDROOT
BRANCH   8  15
ATOM     15  C   UNL     1      -0.653  17.644  19.300  0.00  0.00    +0.000 A 
ATOM     16  C   UNL     1      -1.322  18.354  18.290  0.00  0.00    +0.000 A 
ATOM     17  C   UNL     1      -0.683  18.630  17.084  0.00  0.00    +0.000 A 
ATOM     18  C   UNL     1       0.619  18.195  16.884  0.00  0.00    +0.000 A 
ATOM     19  F   UNL     1       1.234  18.470  15.726  0.00  0.00    +0.000 F 
ATOM     20  C   UNL     1       1.301  17.486  17.865  0.00  0.00    +0.000 A 
ATOM     21  C   UNL     1       0.665  17.210  19.076  0.00  0.00    +0.000 A 
ENDBRANCH   8  15
BRANCH  11  22
ATOM     22  C   UNL     1      -0.960  11.167  22.156  0.00  0.00    +0.000 A 
ATOM     23  C   UNL     1      -0.380  10.234  23.022  0.00  0.00    +0.000 A 
ATOM     24  C   UNL     1       0.360   9.189  22.486  0.00  0.00    +0.000 A 
ATOM     25  N   UNL     1       0.557   9.011  21.160  0.00  0.00    +0.000 NA
ATOM     26  C   UNL     1      -0.002   9.924  20.342  0.00  0.00    +0.000 A 
ATOM     27  C   UNL     1      -0.744  10.997  20.783  0.00  0.00    +0.000 A 
ATOM     28  F   UNL     1      -1.237  11.856  19.877  0.00  0.00    +0.000 F 
ENDBRANCH  11  22
TORSDOF 2
ENDMDL
MODEL 8
REMARK VINA RESULT:      -6.7      4.045      6.957
REMARK  Name = 
REMARK  3 active torsions:
REMARK  status: ('A' for Active; 'I' for Inactive)
REMARK    1  A    between atoms: C_1  and  N_2
REMARK    2  A    between atoms: C_8  and  C_9
REMARK    3  A    between atoms: C_18  and  C_19
REMARK                            x       y       z     vdW  Elec       q    Type
REMARK                         _______ _______ _______ _____ _____    ______ ____
ROOT
ATOM      1  C   UNL     1       0.358  13.721  22.252  0.00  0.00    +0.000 C 
ATOM      2  N   UNL     1      -1.031  13.634  22.668  0.00  0.00    +0.000 N 
ATOM      3  C   UNL     1      -1.947  12.751  22.115  0.00  0.00    +0.000 A 
ATOM      4  N   UNL     1      -1.513  11.798  21.220  0.00  0.00    +0.000 N 
ATOM      5  C   UNL     1      -0.504  10.769  21.508  0.00  0.00    +0.000 C 
ATOM      6  C   UNL     1       0.315  10.509  20.226  0.00  0.00    +0.000 C 
ATOM      7  O   UNL     1      -0.523  10.176  19.107  0.00  0.00    +0.000 OA
ATOM      8  C   UNL     1      -1.501  11.214  18.868  0.00  0.00    +0.000 C 
ATOM      9  C   UNL     1      -2.394  11.390  20.115  0.00  0.00    +0.000 C 
ATOM     10  N   UNL     1      -3.222  12.836  22.364  0.00  0.00    +0.000 NA
ATOM     11  C   UNL     1      -3.680  13.833  23.183  0.00  0.00    +0.000 A 
ATOM     12  C   UNL     1      -2.869  14.703  23.788  0.00  0.00    +0.000 A 
ATOM     13  C   UNL     1      -1.438  14.632  23.525  0.00  0.00    +0.000 A 
ATOM     14  O   UNL     1      -0.690  15.474  24.033  0.00  0.00    +0.000 OA
ENDROOT
BRANCH   8  15
ATOM     15  C   UNL     1      -2.329  10.877  17.652  0.00  0.00    +0.000 A 
ATOM     16  C   UNL     1      -3.586  11.468  17.448  0.00  0.00    +0.000 A 
ATOM     17  C   UNL     1      -4.316  11.190  16.296  0.00  0.00    +0.000 A 
ATOM     18  C   UNL     1      -3.795  10.319  15.350  0.00  0.00    +0.000 A 
ATOM     19  F   UNL     1      -4.496  10.060  14.238  0.00  0.00    +0.000 F 
ATOM     20  C   UNL     1      -2.556   9.717  15.530  0.00  0.00    +0.000 A 
ATOM     21  C   UNL     1      -1.820   9.996  16.682  0.00  0.00    +0.000 A 
ENDBRANCH   8  15
BRANCH  11  22
ATOM     22  C   UNL     1      -5.139  13.963  23.378  0.00  0.00    +0.000 A 
ATOM     23  C   UNL     1      -5.832  15.066  22.869  0.00  0.00    +0.000 A 
ATOM     24  C   UNL     1      -7.201  15.159  23.088  0.00  0.00    +0.000 A 
ATOM     25  N   UNL     1      -7.916  14.237  23.770  0.00  0.00    +0.000 NA
ATOM     26  C   UNL     1      -7.230  13.186  24.260  0.00  0.00    +0.000 A 
ATOM     27  C   UNL     1      -5.874  13.014  24.100  0.00  0.00    +0.000 A 
ATOM     28  F   UNL     1      -5.291  11.937  24.649  0.00  0.00    +0.000 F 
ENDBRANCH  11  22
TORSDOF 2
ENDMDL
MODEL 9
REMARK VINA RESULT:      -6.7      3.812      4.810
REMARK  Name = 
REMARK  3 active torsions:
REMARK  status: ('A' for Active; 'I' for Inactive)
REMARK    1  A    between atoms: C_1  and  N_2
REMARK    2  A    between atoms: C_8  and  C_9
REMARK    3  A    between atoms: C_18  and  C_19
REMARK                            x       y       z     vdW  Elec       q    Type
REMARK                         _______ _______ _______ _____ _____    ______ ____
ROOT
ATOM      1  C   UNL     1      -1.212  14.318  19.836  0.00  0.00    +0.000 C 
ATOM      2  N   UNL     1      -0.608  13.005  19.980  0.00  0.00    +0.000 N 
ATOM      3  C   UNL     1       0.734  12.802  20.267  0.00  0.00    +0.000 A 
ATOM      4  N   UNL     1       1.531  13.881  20.577  0.00  0.00    +0.000 N 
ATOM      5  C   UNL     1       1.301  14.805  21.697  0.00  0.00    +0.000 C 
ATOM      6  C   UNL     1       1.748  16.219  21.270  0.00  0.00    +0.000 C 
ATOM      7  O   UNL     1       3.105  16.237  20.797  0.00  0.00    +0.000 OA
ATOM      8  C   UNL     1       3.282  15.310  19.701  0.00  0.00    +0.000 C 
ATOM      9  C   UNL     1       2.944  13.877  20.168  0.00  0.00    +0.000 C 
ATOM     10  N   UNL     1       1.284  11.624  20.188  0.00  0.00    +0.000 NA
ATOM     11  C   UNL     1       0.524  10.555  19.796  0.00  0.00    +0.000 A 
ATOM     12  C   UNL     1      -0.781  10.650  19.536  0.00  0.00    +0.000 A 
ATOM     13  C   UNL     1      -1.421  11.956  19.615  0.00  0.00    +0.000 A 
ATOM     14  O   UNL     1      -2.615  12.060  19.314  0.00  0.00    +0.000 OA
ENDROOT
BRANCH   8  15
ATOM     15  C   UNL     1       4.695  15.389  19.176  0.00  0.00    +0.000 A 
ATOM     16  C   UNL     1       5.123  14.560  18.127  0.00  0.00    +0.000 A 
ATOM     17  C   UNL     1       6.413  14.681  17.617  0.00  0.00    +0.000 A 
ATOM     18  C   UNL     1       7.276  15.625  18.155  0.00  0.00    +0.000 A 
ATOM     19  F   UNL     1       8.513  15.744  17.656  0.00  0.00    +0.000 F 
ATOM     20  C   UNL     1       6.879  16.453  19.197  0.00  0.00    +0.000 A 
ATOM     21  C   UNL     1       5.586  16.337  19.709  0.00  0.00    +0.000 A 
ENDBRANCH   8  15
BRANCH  11  22
ATOM     22  C   UNL     1       1.192   9.247  19.628  0.00  0.00    +0.000 A 
ATOM     23  C   UNL     1       1.242   8.329  20.683  0.00  0.00    +0.000 A 
ATOM     24  C   UNL     1       1.893   7.118  20.489  0.00  0.00    +0.000 A 
ATOM     25  N   UNL     1       2.489   6.763  19.329  0.00  0.00    +0.000 NA
ATOM     26  C   UNL     1       2.438   7.662  18.327  0.00  0.00    +0.000 A 
ATOM     27  C   UNL     1       1.823   8.890  18.430  0.00  0.00    +0.000 A 
ATOM     28  F   UNL     1       1.851   9.716  17.372  0.00  0.00    +0.000 F 
ENDBRANCH  11  22
TORSDOF 2
ENDMDL
