MODEL 1
REMARK VINA RESULT:      -7.9      0.000      0.000
REMARK  Name = 
REMARK  5 active torsions:
REMARK  status: ('A' for Active; 'I' for Inactive)
REMARK    1  A    between atoms: C_1  and  C_2
REMARK    2  A    between atoms: N_4  and  C_5
REMARK    3  A    between atoms: C_5  and  C_6
REMARK    4  A    between atoms: N_8  and  C_9
REMARK    5  A    between atoms: C_12  and  C_13
REMARK                            x       y       z     vdW  Elec       q    Type
REMARK                         _______ _______ _______ _____ _____    ______ ____
ROOT
ATOM      1  C   UNL     1       5.424   4.580  18.377  0.00  0.00    +0.000 C 
ATOM      2  C   UNL     1       5.076   6.051  18.417  0.00  0.00    +0.000 C 
ATOM      3  N   UNL     1       3.648   6.052  18.319  0.00  0.00    +0.000 N 
ATOM      4  C   UNL     1       3.198   4.794  17.946  0.00  0.00    +0.000 C 
ATOM      5  O   UNL     1       2.063   4.415  17.720  0.00  0.00    +0.000 OA
ATOM      6  O   UNL     1       4.264   3.943  17.820  0.00  0.00    +0.000 OA
ENDROOT
BRANCH   3   7
ATOM      7  C   UNL     1       2.859   7.202  18.562  0.00  0.00    +0.000 A 
ATOM      8  C   UNL     1       2.686   8.188  17.589  0.00  0.00    +0.000 A 
ATOM      9  C   UNL     1       1.860   9.291  17.815  0.00  0.00    +0.000 A 
ATOM     10  C   UNL     1       1.177   9.460  19.024  0.00  0.00    +0.000 A 
ATOM     11  C   UNL     1       1.384   8.492  20.016  0.00  0.00    +0.000 A 
ATOM     12  C   UNL     1       2.200   7.376  19.787  0.00  0.00    +0.000 A 
BRANCH  10  13
ATOM     13  C   UNL     1       0.271  10.645  19.232  0.00  0.00    +0.000 C 
ATOM     14  C   UNL     1      -1.207  10.503  18.928  0.00  0.00    +0.000 C 
ATOM     15  C   UNL     1      -2.062  11.689  18.648  0.00  0.00    +0.000 C 
ATOM     16  O   UNL     1      -2.402  12.243  19.930  0.00  0.00    +0.000 OA
ATOM     17  C   UNL     1      -1.364  11.885  20.857  0.00  0.00    +0.000 C 
ATOM     18  C   UNL     1      -0.760  10.628  20.336  0.00  0.00    +0.000 C 
ENDBRANCH  10  13
ENDBRANCH   3   7
BRANCH   1  19
ATOM     19  C   UNL     1       6.631   4.277  17.498  0.00  0.00    +0.000 C 
BRANCH  19  23
ATOM     20  C   UNL     1       6.179   3.912  13.758  0.00  0.00    +0.000 C 
ATOM     21  C   UNL     1       6.718   4.473  15.044  0.00  0.00    +0.000 C 
ATOM     22  O   UNL     1       7.484   5.431  15.084  0.00  0.00    +0.000 OA
ATOM     23  N   UNL     1       6.240   3.842  16.168  0.00  0.00    +0.000 N 
ATOM     24  H   UNL     1       5.849   2.912  16.072  0.00  0.00    +0.000 HD
ENDBRANCH  19  23
ENDBRANCH   1  19
TORSDOF 4
ENDMDL
MODEL 2
REMARK VINA RESULT:      -7.7      1.494      2.040
REMARK  Name = 
REMARK  5 active torsions:
REMARK  status: ('A' for Active; 'I' for Inactive)
REMARK    1  A    between atoms: C_1  and  C_2
REMARK    2  A    between atoms: N_4  and  C_5
REMARK    3  A    between atoms: C_5  and  C_6
REMARK    4  A    between atoms: N_8  and  C_9
REMARK    5  A    between atoms: C_12  and  C_13
REMARK                            x       y       z     vdW  Elec       q    Type
REMARK                         _______ _______ _______ _____ _____    ______ ____
ROOT
ATOM      1  C   UNL     1       5.793   4.432  17.821  0.00  0.00    +0.000 C 
ATOM      2  C   UNL     1       5.242   5.786  18.205  0.00  0.00    +0.000 C 
ATOM      3  N   UNL     1       3.834   5.550  18.303  0.00  0.00    +0.000 N 
ATOM      4  C   UNL     1       3.520   4.318  17.747  0.00  0.00    +0.000 C 
ATOM      5  O   UNL     1       2.433   3.789  17.604  0.00  0.00    +0.000 OA
ATOM      6  O   UNL     1       4.665   3.707  17.308  0.00  0.00    +0.000 OA
ENDROOT
BRANCH   3   7
ATOM      7  C   UNL     1       2.934   6.479  18.879  0.00  0.00    +0.000 A 
ATOM      8  C   UNL     1       2.317   6.233  20.108  0.00  0.00    +0.000 A 
ATOM      9  C   UNL     1       1.475   7.179  20.697  0.00  0.00    +0.000 A 
ATOM     10  C   UNL     1       1.208   8.406  20.082  0.00  0.00    +0.000 A 
ATOM     11  C   UNL     1       1.792   8.635  18.830  0.00  0.00    +0.000 A 
ATOM     12  C   UNL     1       2.650   7.696  18.242  0.00  0.00    +0.000 A 
BRANCH  10  13
ATOM     13  C   UNL     1       0.317   9.419  20.752  0.00  0.00    +0.000 C 
ATOM     14  C   UNL     1       0.469   9.661  22.241  0.00  0.00    +0.000 C 
ATOM     15  C   UNL     1      -0.631  10.253  23.050  0.00  0.00    +0.000 C 
ATOM     16  O   UNL     1      -0.563  11.672  22.834  0.00  0.00    +0.000 OA
ATOM     17  C   UNL     1       0.042  11.897  21.551  0.00  0.00    +0.000 C 
ATOM     18  C   UNL     1       0.898  10.708  21.283  0.00  0.00    +0.000 C 
ENDBRANCH  10  13
ENDBRANCH   3   7
BRANCH   1  19
ATOM     19  C   UNL     1       6.868   4.510  16.744  0.00  0.00    +0.000 C 
BRANCH  19  23
ATOM     20  C   UNL     1       6.223   3.822  13.078  0.00  0.00    +0.000 C 
ATOM     21  C   UNL     1       6.826   4.493  14.281  0.00  0.00    +0.000 C 
ATOM     22  O   UNL     1       7.587   5.452  14.197  0.00  0.00    +0.000 OA
ATOM     23  N   UNL     1       6.411   3.961  15.478  0.00  0.00    +0.000 N 
ATOM     24  H   UNL     1       6.020   3.025  15.484  0.00  0.00    +0.000 HD
ENDBRANCH  19  23
ENDBRANCH   1  19
TORSDOF 4
ENDMDL
MODEL 3
REMARK VINA RESULT:      -7.7      1.943      2.514
REMARK  Name = 
REMARK  5 active torsions:
REMARK  status: ('A' for Active; 'I' for Inactive)
REMARK    1  A    between atoms: C_1  and  C_2
REMARK    2  A    between atoms: N_4  and  C_5
REMARK    3  A    between atoms: C_5  and  C_6
REMARK    4  A    between atoms: N_8  and  C_9
REMARK    5  A    between atoms: C_12  and  C_13
REMARK                            x       y       z     vdW  Elec       q    Type
REMARK                         _______ _______ _______ _____ _____    ______ ____
ROOT
ATOM      1  C   UNL     1       5.903   4.828  16.198  0.00  0.00    +0.000 C 
ATOM      2  C   UNL     1       5.213   6.066  16.723  0.00  0.00    +0.000 C 
ATOM      3  N   UNL     1       4.087   5.537  17.432  0.00  0.00    +0.000 N 
ATOM      4  C   UNL     1       3.920   4.195  17.121  0.00  0.00    +0.000 C 
ATOM      5  O   UNL     1       3.057   3.418  17.486  0.00  0.00    +0.000 OA
ATOM      6  O   UNL     1       4.906   3.797  16.256  0.00  0.00    +0.000 OA
ENDROOT
BRANCH   3   7
ATOM      7  C   UNL     1       3.285   6.316  18.299  0.00  0.00    +0.000 A 
ATOM      8  C   UNL     1       2.885   7.610  17.958  0.00  0.00    +0.000 A 
ATOM      9  C   UNL     1       2.046   8.351  18.794  0.00  0.00    +0.000 A 
ATOM     10  C   UNL     1       1.577   7.836  20.007  0.00  0.00    +0.000 A 
ATOM     11  C   UNL     1       2.014   6.555  20.368  0.00  0.00    +0.000 A 
ATOM     12  C   UNL     1       2.842   5.801  19.526  0.00  0.00    +0.000 A 
BRANCH  10  13
ATOM     13  C   UNL     1       0.653   8.646  20.876  0.00  0.00    +0.000 C 
ATOM     14  C   UNL     1       1.138   9.107  22.236  0.00  0.00    +0.000 C 
ATOM     15  C   UNL     1       0.187   9.478  23.319  0.00  0.00    +0.000 C 
ATOM     16  O   UNL     1      -0.230  10.824  23.036  0.00  0.00    +0.000 OA
ATOM     17  C   UNL     1      -0.106  11.039  21.621  0.00  0.00    +0.000 C 
ATOM     18  C   UNL     1       0.951  10.101  21.152  0.00  0.00    +0.000 C 
ENDBRANCH  10  13
ENDBRANCH   3   7
BRANCH   1  19
ATOM     19  C   UNL     1       6.383   4.979  14.759  0.00  0.00    +0.000 C 
BRANCH  19  23
ATOM     20  C   UNL     1       5.601   2.671  11.863  0.00  0.00    +0.000 C 
ATOM     21  C   UNL     1       6.329   3.737  12.632  0.00  0.00    +0.000 C 
ATOM     22  O   UNL     1       7.267   4.374  12.162  0.00  0.00    +0.000 OA
ATOM     23  N   UNL     1       5.821   3.960  13.889  0.00  0.00    +0.000 N 
ATOM     24  H   UNL     1       5.250   3.238  14.317  0.00  0.00    +0.000 HD
ENDBRANCH  19  23
ENDBRANCH   1  19
TORSDOF 4
ENDMDL
MODEL 4
REMARK VINA RESULT:      -7.6      0.569      1.144
REMARK  Name = 
REMARK  5 active torsions:
REMARK  status: ('A' for Active; 'I' for Inactive)
REMARK    1  A    between atoms: C_1  and  C_2
REMARK    2  A    between atoms: N_4  and  C_5
REMARK    3  A    between atoms: C_5  and  C_6
REMARK    4  A    between atoms: N_8  and  C_9
REMARK    5  A    between atoms: C_12  and  C_13
REMARK                            x       y       z     vdW  Elec       q    Type
REMARK                         _______ _______ _______ _____ _____    ______ ____
ROOT
ATOM      1  C   UNL     1       4.903   4.519  18.565  0.00  0.00    +0.000 C 
ATOM      2  C   UNL     1       4.614   5.995  18.708  0.00  0.00    +0.000 C 
ATOM      3  N   UNL     1       3.200   6.073  18.498  0.00  0.00    +0.000 N 
ATOM      4  C   UNL     1       2.731   4.874  17.981  0.00  0.00    +0.000 C 
ATOM      5  O   UNL     1       1.605   4.571  17.633  0.00  0.00    +0.000 OA
ATOM      6  O   UNL     1       3.769   3.987  17.864  0.00  0.00    +0.000 OA
ENDROOT
BRANCH   3   7
ATOM      7  C   UNL     1       2.441   7.235  18.780  0.00  0.00    +0.000 A 
ATOM      8  C   UNL     1       1.960   7.500  20.064  0.00  0.00    +0.000 A 
ATOM      9  C   UNL     1       1.261   8.675  20.346  0.00  0.00    +0.000 A 
ATOM     10  C   UNL     1       1.006   9.632  19.358  0.00  0.00    +0.000 A 
ATOM     11  C   UNL     1       1.451   9.346  18.061  0.00  0.00    +0.000 A 
ATOM     12  C   UNL     1       2.167   8.176  17.777  0.00  0.00    +0.000 A 
BRANCH  10  13
ATOM     13  C   UNL     1       0.273  10.903  19.696  0.00  0.00    +0.000 C 
ATOM     14  C   UNL     1      -1.231  10.955  19.511  0.00  0.00    +0.000 C 
ATOM     15  C   UNL     1      -1.953  12.248  19.359  0.00  0.00    +0.000 C 
ATOM     16  O   UNL     1      -2.120  12.767  20.689  0.00  0.00    +0.000 OA
ATOM     17  C   UNL     1      -1.066  12.237  21.508  0.00  0.00    +0.000 C 
ATOM     18  C   UNL     1      -0.663  10.948  20.880  0.00  0.00    +0.000 C 
ENDBRANCH  10  13
ENDBRANCH   3   7
BRANCH   1  19
ATOM     19  C   UNL     1       6.166   4.233  17.762  0.00  0.00    +0.000 C 
BRANCH  19  23
ATOM     20  C   UNL     1       6.167   3.886  13.993  0.00  0.00    +0.000 C 
ATOM     21  C   UNL     1       6.649   4.323  15.348  0.00  0.00    +0.000 C 
ATOM     22  O   UNL     1       7.631   5.042  15.505  0.00  0.00    +0.000 OA
ATOM     23  N   UNL     1       5.865   3.878  16.385  0.00  0.00    +0.000 N 
ATOM     24  H   UNL     1       5.255   3.083  16.226  0.00  0.00    +0.000 HD
ENDBRANCH  19  23
ENDBRANCH   1  19
TORSDOF 4
ENDMDL
MODEL 5
REMARK VINA RESULT:      -7.6      0.733      1.141
REMARK  Name = 
REMARK  5 active torsions:
REMARK  status: ('A' for Active; 'I' for Inactive)
REMARK    1  A    between atoms: C_1  and  C_2
REMARK    2  A    between atoms: N_4  and  C_5
REMARK    3  A    between atoms: C_5  and  C_6
REMARK    4  A    between atoms: N_8  and  C_9
REMARK    5  A    between atoms: C_12  and  C_13
REMARK                            x       y       z     vdW  Elec       q    Type
REMARK                         _______ _______ _______ _____ _____    ______ ____
ROOT
ATOM      1  C   UNL     1       5.540   4.576  18.201  0.00  0.00    +0.000 C 
ATOM      2  C   UNL     1       5.132   6.023  18.355  0.00  0.00    +0.000 C 
ATOM      3  N   UNL     1       3.703   5.970  18.281  0.00  0.00    +0.000 N 
ATOM      4  C   UNL     1       3.299   4.723  17.824  0.00  0.00    +0.000 C 
ATOM      5  O   UNL     1       2.177   4.312  17.590  0.00  0.00    +0.000 OA
ATOM      6  O   UNL     1       4.398   3.931  17.619  0.00  0.00    +0.000 OA
ENDROOT
BRANCH   3   7
ATOM      7  C   UNL     1       2.871   7.063  18.621  0.00  0.00    +0.000 A 
ATOM      8  C   UNL     1       2.545   8.050  17.688  0.00  0.00    +0.000 A 
ATOM      9  C   UNL     1       1.677   9.095  18.014  0.00  0.00    +0.000 A 
ATOM     10  C   UNL     1       1.104   9.203  19.285  0.00  0.00    +0.000 A 
ATOM     11  C   UNL     1       1.465   8.237  20.233  0.00  0.00    +0.000 A 
ATOM     12  C   UNL     1       2.323   7.178  19.906  0.00  0.00    +0.000 A 
BRANCH  10  13
ATOM     13  C   UNL     1       0.151  10.325  19.602  0.00  0.00    +0.000 C 
ATOM     14  C   UNL     1       0.701  11.618  20.169  0.00  0.00    +0.000 C 
ATOM     15  C   UNL     1      -0.159  12.563  20.933  0.00  0.00    +0.000 C 
ATOM     16  O   UNL     1      -0.880  13.325  19.951  0.00  0.00    +0.000 OA
ATOM     17  C   UNL     1      -0.985  12.528  18.760  0.00  0.00    +0.000 C 
ATOM     18  C   UNL     1       0.174  11.594  18.784  0.00  0.00    +0.000 C 
ENDBRANCH  10  13
ENDBRANCH   3   7
BRANCH   1  19
ATOM     19  C   UNL     1       6.742   4.390  17.283  0.00  0.00    +0.000 C 
BRANCH  19  23
ATOM     20  C   UNL     1       6.229   3.772  13.585  0.00  0.00    +0.000 C 
ATOM     21  C   UNL     1       6.745   4.454  14.821  0.00  0.00    +0.000 C 
ATOM     22  O   UNL     1       7.416   5.481  14.784  0.00  0.00    +0.000 OA
ATOM     23  N   UNL     1       6.360   3.846  15.991  0.00  0.00    +0.000 N 
ATOM     24  H   UNL     1       6.057   2.878  15.959  0.00  0.00    +0.000 HD
ENDBRANCH  19  23
ENDBRANCH   1  19
TORSDOF 4
ENDMDL
MODEL 6
REMARK VINA RESULT:      -7.6      0.776      1.261
REMARK  Name = 
REMARK  5 active torsions:
REMARK  status: ('A' for Active; 'I' for Inactive)
REMARK    1  A    between atoms: C_1  and  C_2
REMARK    2  A    between atoms: N_4  and  C_5
REMARK    3  A    between atoms: C_5  and  C_6
REMARK    4  A    between atoms: N_8  and  C_9
REMARK    5  A    between atoms: C_12  and  C_13
REMARK                            x       y       z     vdW  Elec       q    Type
REMARK                         _______ _______ _______ _____ _____    ______ ____
ROOT
ATOM      1  C   UNL     1       6.231   4.938  18.564  0.00  0.00    +0.000 C 
ATOM      2  C   UNL     1       5.541   6.212  18.131  0.00  0.00    +0.000 C 
ATOM      3  N   UNL     1       4.194   6.021  18.577  0.00  0.00    +0.000 N 
ATOM      4  C   UNL     1       3.998   4.697  18.941  0.00  0.00    +0.000 C 
ATOM      5  O   UNL     1       2.985   4.142  19.325  0.00  0.00    +0.000 OA
ATOM      6  O   UNL     1       5.168   4.000  18.785  0.00  0.00    +0.000 OA
ENDROOT
BRANCH   3   7
ATOM      7  C   UNL     1       3.236   7.063  18.607  0.00  0.00    +0.000 A 
ATOM      8  C   UNL     1       2.390   7.245  19.702  0.00  0.00    +0.000 A 
ATOM      9  C   UNL     1       1.487   8.310  19.749  0.00  0.00    +0.000 A 
ATOM     10  C   UNL     1       1.387   9.233  18.704  0.00  0.00    +0.000 A 
ATOM     11  C   UNL     1       2.206   9.025  17.586  0.00  0.00    +0.000 A 
ATOM     12  C   UNL     1       3.124   7.968  17.541  0.00  0.00    +0.000 A 
BRANCH  10  13
ATOM     13  C   UNL     1       0.423  10.387  18.792  0.00  0.00    +0.000 C 
ATOM     14  C   UNL     1      -0.969  10.228  18.214  0.00  0.00    +0.000 C 
ATOM     15  C   UNL     1      -1.795  11.406  17.833  0.00  0.00    +0.000 C 
ATOM     16  O   UNL     1      -2.380  11.891  19.053  0.00  0.00    +0.000 OA
ATOM     17  C   UNL     1      -1.519  11.512  20.139  0.00  0.00    +0.000 C 
ATOM     18  C   UNL     1      -0.792  10.295  19.685  0.00  0.00    +0.000 C 
ENDBRANCH  10  13
ENDBRANCH   3   7
BRANCH   1  19
ATOM     19  C   UNL     1       7.177   4.383  17.506  0.00  0.00    +0.000 C 
BRANCH  19  23
ATOM     20  C   UNL     1       5.933   4.019  13.950  0.00  0.00    +0.000 C 
ATOM     21  C   UNL     1       6.793   4.520  15.076  0.00  0.00    +0.000 C 
ATOM     22  O   UNL     1       7.675   5.358  14.919  0.00  0.00    +0.000 OA
ATOM     23  N   UNL     1       6.469   3.985  16.300  0.00  0.00    +0.000 N 
ATOM     24  H   UNL     1       5.942   3.119  16.328  0.00  0.00    +0.000 HD
ENDBRANCH  19  23
ENDBRANCH   1  19
TORSDOF 4
ENDMDL
MODEL 7
REMARK VINA RESULT:      -7.5      1.969      2.850
REMARK  Name = 
REMARK  5 active torsions:
REMARK  status: ('A' for Active; 'I' for Inactive)
REMARK    1  A    between atoms: C_1  and  C_2
REMARK    2  A    between atoms: N_4  and  C_5
REMARK    3  A    between atoms: C_5  and  C_6
REMARK    4  A    between atoms: N_8  and  C_9
REMARK    5  A    between atoms: C_12  and  C_13
REMARK                            x       y       z     vdW  Elec       q    Type
REMARK                         _______ _______ _______ _____ _____    ______ ____
ROOT
ATOM      1  C   UNL     1       6.266   4.605  16.222  0.00  0.00    +0.000 C 
ATOM      2  C   UNL     1       5.434   5.781  16.680  0.00  0.00    +0.000 C 
ATOM      3  N   UNL     1       4.368   5.164  17.409  0.00  0.00    +0.000 N 
ATOM      4  C   UNL     1       4.357   3.798  17.165  0.00  0.00    +0.000 C 
ATOM      5  O   UNL     1       3.582   2.948  17.564  0.00  0.00    +0.000 OA
ATOM      6  O   UNL     1       5.391   3.472  16.327  0.00  0.00    +0.000 OA
ENDROOT
BRANCH   3   7
ATOM      7  C   UNL     1       3.473   5.890  18.231  0.00  0.00    +0.000 A 
ATOM      8  C   UNL     1       2.918   5.326  19.382  0.00  0.00    +0.000 A 
ATOM      9  C   UNL     1       2.082   6.067  20.219  0.00  0.00    +0.000 A 
ATOM     10  C   UNL     1       1.758   7.399  19.940  0.00  0.00    +0.000 A 
ATOM     11  C   UNL     1       2.280   7.950  18.763  0.00  0.00    +0.000 A 
ATOM     12  C   UNL     1       3.133   7.216  17.929  0.00  0.00    +0.000 A 
BRANCH  10  13
ATOM     13  C   UNL     1       0.874   8.182  20.874  0.00  0.00    +0.000 C 
ATOM     14  C   UNL     1       1.512   8.966  22.004  0.00  0.00    +0.000 C 
ATOM     15  C   UNL     1       0.738   9.360  23.213  0.00  0.00    +0.000 C 
ATOM     16  O   UNL     1      -0.003  10.535  22.844  0.00  0.00    +0.000 OA
ATOM     17  C   UNL     1      -0.210  10.501  21.423  0.00  0.00    +0.000 C 
ATOM     18  C   UNL     1       0.907   9.693  20.862  0.00  0.00    +0.000 C 
ENDBRANCH  10  13
ENDBRANCH   3   7
BRANCH   1  19
ATOM     19  C   UNL     1       6.742   4.737  14.781  0.00  0.00    +0.000 C 
BRANCH  19  23
ATOM     20  C   UNL     1       5.696   2.607  11.832  0.00  0.00    +0.000 C 
ATOM     21  C   UNL     1       6.469   3.653  12.585  0.00  0.00    +0.000 C 
ATOM     22  O   UNL     1       7.306   4.376  12.052  0.00  0.00    +0.000 OA
ATOM     23  N   UNL     1       6.119   3.754  13.910  0.00  0.00    +0.000 N 
ATOM     24  H   UNL     1       5.644   2.972  14.348  0.00  0.00    +0.000 HD
ENDBRANCH  19  23
ENDBRANCH   1  19
TORSDOF 4
ENDMDL
MODEL 8
REMARK VINA RESULT:      -7.5      1.286      1.620
REMARK  Name = 
REMARK  5 active torsions:
REMARK  status: ('A' for Active; 'I' for Inactive)
REMARK    1  A    between atoms: C_1  and  C_2
REMARK    2  A    between atoms: N_4  and  C_5
REMARK    3  A    between atoms: C_5  and  C_6
REMARK    4  A    between atoms: N_8  and  C_9
REMARK    5  A    between atoms: C_12  and  C_13
REMARK                            x       y       z     vdW  Elec       q    Type
REMARK                         _______ _______ _______ _____ _____    ______ ____
ROOT
ATOM      1  C   UNL     1       5.093   4.346  18.527  0.00  0.00    +0.000 C 
ATOM      2  C   UNL     1       4.744   5.742  18.990  0.00  0.00    +0.000 C 
ATOM      3  N   UNL     1       3.326   5.804  18.798  0.00  0.00    +0.000 N 
ATOM      4  C   UNL     1       2.904   4.729  18.029  0.00  0.00    +0.000 C 
ATOM      5  O   UNL     1       1.790   4.462  17.620  0.00  0.00    +0.000 OA
ATOM      6  O   UNL     1       3.978   3.934  17.723  0.00  0.00    +0.000 OA
ENDROOT
BRANCH   3   7
ATOM      7  C   UNL     1       2.521   6.843  19.325  0.00  0.00    +0.000 A 
ATOM      8  C   UNL     1       2.285   8.018  18.610  0.00  0.00    +0.000 A 
ATOM      9  C   UNL     1       1.443   9.013  19.111  0.00  0.00    +0.000 A 
ATOM     10  C   UNL     1       0.807   8.881  20.350  0.00  0.00    +0.000 A 
ATOM     11  C   UNL     1       1.079   7.720  21.086  0.00  0.00    +0.000 A 
ATOM     12  C   UNL     1       1.910   6.712  20.580  0.00  0.00    +0.000 A 
BRANCH  10  13
ATOM     13  C   UNL     1      -0.116   9.958  20.855  0.00  0.00    +0.000 C 
ATOM     14  C   UNL     1      -0.048  10.358  22.315  0.00  0.00    +0.000 C 
ATOM     15  C   UNL     1      -1.189  11.032  22.993  0.00  0.00    +0.000 C 
ATOM     16  O   UNL     1      -1.102  12.420  22.630  0.00  0.00    +0.000 OA
ATOM     17  C   UNL     1      -0.424  12.507  21.366  0.00  0.00    +0.000 C 
ATOM     18  C   UNL     1       0.440  11.297  21.277  0.00  0.00    +0.000 C 
ENDBRANCH  10  13
ENDBRANCH   3   7
BRANCH   1  19
ATOM     19  C   UNL     1       6.362   4.297  17.684  0.00  0.00    +0.000 C 
BRANCH  19  23
ATOM     20  C   UNL     1       6.224   3.932  13.920  0.00  0.00    +0.000 C 
ATOM     21  C   UNL     1       6.637   4.507  15.245  0.00  0.00    +0.000 C 
ATOM     22  O   UNL     1       7.361   5.493  15.347  0.00  0.00    +0.000 OA
ATOM     23  N   UNL     1       6.095   3.854  16.326  0.00  0.00    +0.000 N 
ATOM     24  H   UNL     1       5.748   2.910  16.198  0.00  0.00    +0.000 HD
ENDBRANCH  19  23
ENDBRANCH   1  19
TORSDOF 4
ENDMDL
MODEL 9
REMARK VINA RESULT:      -7.4      0.923      1.603
REMARK  Name = 
REMARK  5 active torsions:
REMARK  status: ('A' for Active; 'I' for Inactive)
REMARK    1  A    between atoms: C_1  and  C_2
REMARK    2  A    between atoms: N_4  and  C_5
REMARK    3  A    between atoms: C_5  and  C_6
REMARK    4  A    between atoms: N_8  and  C_9
REMARK    5  A    between atoms: C_12  and  C_13
REMARK                            x       y       z     vdW  Elec       q    Type
REMARK                         _______ _______ _______ _____ _____    ______ ____
ROOT
ATOM      1  C   UNL     1       5.933   4.609  18.159  0.00  0.00    +0.000 C 
ATOM      2  C   UNL     1       5.410   6.021  18.297  0.00  0.00    +0.000 C 
ATOM      3  N   UNL     1       3.990   5.850  18.236  0.00  0.00    +0.000 N 
ATOM      4  C   UNL     1       3.685   4.569  17.799  0.00  0.00    +0.000 C 
ATOM      5  O   UNL     1       2.599   4.065  17.579  0.00  0.00    +0.000 OA
ATOM      6  O   UNL     1       4.843   3.865  17.594  0.00  0.00    +0.000 OA
ENDROOT
BRANCH   3   7
ATOM      7  C   UNL     1       3.073   6.876  18.569  0.00  0.00    +0.000 A 
ATOM      8  C   UNL     1       2.415   6.896  19.800  0.00  0.00    +0.000 A 
ATOM      9  C   UNL     1       1.556   7.942  20.144  0.00  0.00    +0.000 A 
ATOM     10  C   UNL     1       1.314   9.009  19.273  0.00  0.00    +0.000 A 
ATOM     11  C   UNL     1       1.941   8.967  18.021  0.00  0.00    +0.000 A 
ATOM     12  C   UNL     1       2.816   7.928  17.678  0.00  0.00    +0.000 A 
BRANCH  10  13
ATOM     13  C   UNL     1       0.404  10.138  19.680  0.00  0.00    +0.000 C 
ATOM     14  C   UNL     1       1.016  11.454  20.118  0.00  0.00    +0.000 C 
ATOM     15  C   UNL     1       0.261  12.422  20.960  0.00  0.00    +0.000 C 
ATOM     16  O   UNL     1      -0.597  13.144  20.063  0.00  0.00    +0.000 OA
ATOM     17  C   UNL     1      -0.861  12.303  18.928  0.00  0.00    +0.000 C 
ATOM     18  C   UNL     1       0.300  11.376  18.822  0.00  0.00    +0.000 C 
ENDBRANCH  10  13
ENDBRANCH   3   7
BRANCH   1  19
ATOM     19  C   UNL     1       7.139   4.509  17.233  0.00  0.00    +0.000 C 
BRANCH  19  23
ATOM     20  C   UNL     1       6.144   3.812  13.648  0.00  0.00    +0.000 C 
ATOM     21  C   UNL     1       6.503   4.632  14.856  0.00  0.00    +0.000 C 
ATOM     22  O   UNL     1       6.490   5.859  14.857  0.00  0.00    +0.000 OA
ATOM     23  N   UNL     1       6.802   3.880  15.967  0.00  0.00    +0.000 N 
ATOM     24  H   UNL     1       7.065   2.909  15.839  0.00  0.00    +0.000 HD
ENDBRANCH  19  23
ENDBRANCH   1  19
TORSDOF 4
ENDMDL
