MODEL 1
REMARK VINA RESULT:      -7.1      0.000      0.000
REMARK  Name = 
REMARK  7 active torsions:
REMARK  status: ('A' for Active; 'I' for Inactive)
REMARK    1  A    between atoms: C_1  and  O_2
REMARK    2  A    between atoms: O_2  and  C_3
REMARK    3  A    between atoms: C_6  and  N_7
REMARK    4  A    between atoms: C_8  and  C_10
REMARK    5  A    between atoms: C_10  and  N_11
REMARK    6  A    between atoms: C_15  and  C_16
REMARK    7  A    between atoms: C_18  and  N_19
REMARK                            x       y       z     vdW  Elec       q    Type
REMARK                         _______ _______ _______ _____ _____    ______ ____
ROOT
ATOM      1  N   UNL     1       5.006   4.852  17.872  0.00  0.00    +0.000 N 
ATOM      2  C   UNL     1       4.140   5.799  18.397  0.00  0.00    +0.000 C 
ATOM      3  O   UNL     1       3.860   6.874  17.862  0.00  0.00    +0.000 OA
ATOM      4  H   UNL     1       5.089   3.993  18.411  0.00  0.00    +0.000 HD
ENDROOT
BRANCH   1   8
ATOM      5  C   UNL     1       6.884   4.649  14.012  0.00  0.00    +0.000 A 
ATOM      6  C   UNL     1       5.569   4.233  14.196  0.00  0.00    +0.000 A 
ATOM      7  C   UNL     1       4.940   4.349  15.449  0.00  0.00    +0.000 A 
ATOM      8  C   UNL     1       5.581   4.909  16.566  0.00  0.00    +0.000 A 
ATOM      9  C   UNL     1       6.849   5.451  16.291  0.00  0.00    +0.000 A 
ATOM     10  C   UNL     1       7.535   5.268  15.072  0.00  0.00    +0.000 A 
BRANCH   9  11
ATOM     11  N   UNL     1       7.442   6.408  17.196  0.00  0.00    +0.000 N 
ATOM     12  O   UNL     1       7.763   5.980  18.317  0.00  0.00    +0.000 OA
ATOM     13  O   UNL     1       7.550   7.579  16.812  0.00  0.00    +0.000 OA
ENDBRANCH   9  11
BRANCH   5  15
ATOM     14  C   UNL     1       6.694   3.519  11.936  0.00  0.00    +0.000 C 
ATOM     15  O   UNL     1       7.393   4.441  12.764  0.00  0.00    +0.000 OA
ENDBRANCH   5  15
ENDBRANCH   1   8
BRANCH   2  16
ATOM     16  C   UNL     1       3.359   5.413  19.660  0.00  0.00    +0.000 C 
BRANCH  16  17
ATOM     17  N   UNL     1       1.903   5.200  19.497  0.00  0.00    +0.000 NA
ATOM     18  C   UNL     1       1.562   4.398  18.311  0.00  0.00    +0.000 C 
ATOM     19  C   UNL     1       2.091   2.964  18.331  0.00  0.00    +0.000 C 
ATOM     20  C   UNL     1       1.818   2.214  19.636  0.00  0.00    +0.000 C 
ATOM     21  C   UNL     1       1.944   3.075  20.901  0.00  0.00    +0.000 C 
ATOM     22  C   UNL     1       1.296   2.351  22.086  0.00  0.00    +0.000 C 
ATOM     23  C   UNL     1       1.359   4.490  20.688  0.00  0.00    +0.000 C 
ENDBRANCH  16  17
ENDBRANCH   2  16
TORSDOF 5
ENDMDL
MODEL 2
REMARK VINA RESULT:      -6.6      2.317      3.899
REMARK  Name = 
REMARK  7 active torsions:
REMARK  status: ('A' for Active; 'I' for Inactive)
REMARK    1  A    between atoms: C_1  and  O_2
REMARK    2  A    between atoms: O_2  and  C_3
REMARK    3  A    between atoms: C_6  and  N_7
REMARK    4  A    between atoms: C_8  and  C_10
REMARK    5  A    between atoms: C_10  and  N_11
REMARK    6  A    between atoms: C_15  and  C_16
REMARK    7  A    between atoms: C_18  and  N_19
REMARK                            x       y       z     vdW  Elec       q    Type
REMARK                         _______ _______ _______ _____ _____    ______ ____
ROOT
ATOM      1  N   UNL     1       5.026   3.689  17.623  0.00  0.00    +0.000 N 
ATOM      2  C   UNL     1       4.510   2.902  18.643  0.00  0.00    +0.000 C 
ATOM      3  O   UNL     1       4.951   2.860  19.793  0.00  0.00    +0.000 OA
ATOM      4  H   UNL     1       4.514   3.650  16.745  0.00  0.00    +0.000 HD
ENDROOT
BRANCH   1   8
ATOM      5  C   UNL     1       7.782   6.930  18.228  0.00  0.00    +0.000 A 
ATOM      6  C   UNL     1       7.446   6.067  19.267  0.00  0.00    +0.000 A 
ATOM      7  C   UNL     1       6.584   4.976  19.053  0.00  0.00    +0.000 A 
ATOM      8  C   UNL     1       6.041   4.678  17.792  0.00  0.00    +0.000 A 
ATOM      9  C   UNL     1       6.530   5.486  16.750  0.00  0.00    +0.000 A 
ATOM     10  C   UNL     1       7.320   6.636  16.950  0.00  0.00    +0.000 A 
BRANCH   9  11
ATOM     11  N   UNL     1       6.405   5.054  15.377  0.00  0.00    +0.000 N 
ATOM     12  O   UNL     1       7.415   5.180  14.666  0.00  0.00    +0.000 OA
ATOM     13  O   UNL     1       5.304   4.634  14.999  0.00  0.00    +0.000 OA
ENDBRANCH   9  11
BRANCH   5  15
ATOM     14  C   UNL     1       8.260   9.243  18.023  0.00  0.00    +0.000 C 
ATOM     15  O   UNL     1       8.588   7.973  18.574  0.00  0.00    +0.000 OA
ENDBRANCH   5  15
ENDBRANCH   1   8
BRANCH   2  16
ATOM     16  C   UNL     1       3.206   2.146  18.356  0.00  0.00    +0.000 C 
BRANCH  16  17
ATOM     17  N   UNL     1       2.078   2.951  17.835  0.00  0.00    +0.000 NA
ATOM     18  C   UNL     1       0.776   2.561  18.401  0.00  0.00    +0.000 C 
ATOM     19  C   UNL     1       0.643   2.771  19.910  0.00  0.00    +0.000 C 
ATOM     20  C   UNL     1       1.096   4.149  20.394  0.00  0.00    +0.000 C 
ATOM     21  C   UNL     1       2.332   4.701  19.668  0.00  0.00    +0.000 C 
ATOM     22  C   UNL     1       2.471   6.201  19.949  0.00  0.00    +0.000 C 
ATOM     23  C   UNL     1       2.292   4.390  18.155  0.00  0.00    +0.000 C 
ENDBRANCH  16  17
ENDBRANCH   2  16
TORSDOF 5
ENDMDL
MODEL 3
REMARK VINA RESULT:      -6.5      1.050      1.785
REMARK  Name = 
REMARK  7 active torsions:
REMARK  status: ('A' for Active; 'I' for Inactive)
REMARK    1  A    between atoms: C_1  and  O_2
REMARK    2  A    between atoms: O_2  and  C_3
REMARK    3  A    between atoms: C_6  and  N_7
REMARK    4  A    between atoms: C_8  and  C_10
REMARK    5  A    between atoms: C_10  and  N_11
REMARK    6  A    between atoms: C_15  and  C_16
REMARK    7  A    between atoms: C_18  and  N_19
REMARK                            x       y       z     vdW  Elec       q    Type
REMARK                         _______ _______ _______ _____ _____    ______ ____
ROOT
ATOM      1  N   UNL     1       5.485   4.291  17.952  0.00  0.00    +0.000 N 
ATOM      2  C   UNL     1       4.556   5.046  18.653  0.00  0.00    +0.000 C 
ATOM      3  O   UNL     1       4.057   6.100  18.254  0.00  0.00    +0.000 OA
ATOM      4  H   UNL     1       5.759   3.418  18.396  0.00  0.00    +0.000 HD
ENDROOT
BRANCH   1   8
ATOM      5  C   UNL     1       6.912   4.695  13.918  0.00  0.00    +0.000 A 
ATOM      6  C   UNL     1       5.737   4.003  14.201  0.00  0.00    +0.000 A 
ATOM      7  C   UNL     1       5.246   3.917  15.517  0.00  0.00    +0.000 A 
ATOM      8  C   UNL     1       5.883   4.538  16.604  0.00  0.00    +0.000 A 
ATOM      9  C   UNL     1       6.976   5.347  16.244  0.00  0.00    +0.000 A 
ATOM     10  C   UNL     1       7.541   5.379  14.952  0.00  0.00    +0.000 A 
BRANCH   9  11
ATOM     11  N   UNL     1       7.462   6.357  17.156  0.00  0.00    +0.000 N 
ATOM     12  O   UNL     1       7.855   5.956  18.263  0.00  0.00    +0.000 OA
ATOM     13  O   UNL     1       7.414   7.538  16.791  0.00  0.00    +0.000 OA
ENDBRANCH   9  11
BRANCH   5  15
ATOM     14  C   UNL     1       6.865   3.557  11.839  0.00  0.00    +0.000 C 
ATOM     15  O   UNL     1       7.306   4.665  12.614  0.00  0.00    +0.000 OA
ENDBRANCH   5  15
ENDBRANCH   1   8
BRANCH   2  16
ATOM     16  C   UNL     1       3.999   4.446  19.951  0.00  0.00    +0.000 C 
BRANCH  16  17
ATOM     17  N   UNL     1       3.864   2.972  19.992  0.00  0.00    +0.000 NA
ATOM     18  C   UNL     1       3.543   2.455  21.332  0.00  0.00    +0.000 C 
ATOM     19  C   UNL     1       2.195   2.913  21.892  0.00  0.00    +0.000 C 
ATOM     20  C   UNL     1       1.027   2.759  20.917  0.00  0.00    +0.000 C 
ATOM     21  C   UNL     1       1.376   3.075  19.455  0.00  0.00    +0.000 C 
ATOM     22  C   UNL     1       0.277   2.537  18.533  0.00  0.00    +0.000 C 
ATOM     23  C   UNL     1       2.774   2.539  19.073  0.00  0.00    +0.000 C 
ENDBRANCH  16  17
ENDBRANCH   2  16
TORSDOF 5
ENDMDL
MODEL 4
REMARK VINA RESULT:      -6.5      0.886      1.705
REMARK  Name = 
REMARK  7 active torsions:
REMARK  status: ('A' for Active; 'I' for Inactive)
REMARK    1  A    between atoms: C_1  and  O_2
REMARK    2  A    between atoms: O_2  and  C_3
REMARK    3  A    between atoms: C_6  and  N_7
REMARK    4  A    between atoms: C_8  and  C_10
REMARK    5  A    between atoms: C_10  and  N_11
REMARK    6  A    between atoms: C_15  and  C_16
REMARK    7  A    between atoms: C_18  and  N_19
REMARK                            x       y       z     vdW  Elec       q    Type
REMARK                         _______ _______ _______ _____ _____    ______ ____
ROOT
ATOM      1  N   UNL     1       4.947   5.290  18.340  0.00  0.00    +0.000 N 
ATOM      2  C   UNL     1       3.718   5.852  18.653  0.00  0.00    +0.000 C 
ATOM      3  O   UNL     1       3.000   6.466  17.862  0.00  0.00    +0.000 OA
ATOM      4  H   UNL     1       5.390   4.769  19.093  0.00  0.00    +0.000 HD
ENDROOT
BRANCH   1   8
ATOM      5  C   UNL     1       6.721   4.658  14.477  0.00  0.00    +0.000 A 
ATOM      6  C   UNL     1       5.396   4.312  14.727  0.00  0.00    +0.000 A 
ATOM      7  C   UNL     1       4.803   4.568  15.977  0.00  0.00    +0.000 A 
ATOM      8  C   UNL     1       5.491   5.204  17.023  0.00  0.00    +0.000 A 
ATOM      9  C   UNL     1       6.771   5.669  16.672  0.00  0.00    +0.000 A 
ATOM     10  C   UNL     1       7.420   5.348  15.461  0.00  0.00    +0.000 A 
BRANCH   9  11
ATOM     11  N   UNL     1       7.420   6.682  17.470  0.00  0.00    +0.000 N 
ATOM     12  O   UNL     1       7.798   6.334  18.601  0.00  0.00    +0.000 OA
ATOM     13  O   UNL     1       7.516   7.821  16.996  0.00  0.00    +0.000 OA
ENDBRANCH   9  11
BRANCH   5  15
ATOM     14  C   UNL     1       6.334   3.520  12.434  0.00  0.00    +0.000 C 
ATOM     15  O   UNL     1       7.190   4.316  13.244  0.00  0.00    +0.000 OA
ENDBRANCH   5  15
ENDBRANCH   1   8
BRANCH   2  16
ATOM     16  C   UNL     1       3.145   5.557  20.046  0.00  0.00    +0.000 C 
BRANCH  16  17
ATOM     17  N   UNL     1       3.366   4.192  20.575  0.00  0.00    +0.000 NA
ATOM     18  C   UNL     1       2.271   3.719  21.437  0.00  0.00    +0.000 C 
ATOM     19  C   UNL     1       0.919   3.572  20.738  0.00  0.00    +0.000 C 
ATOM     20  C   UNL     1       0.980   2.814  19.411  0.00  0.00    +0.000 C 
ATOM     21  C   UNL     1       2.229   3.110  18.568  0.00  0.00    +0.000 C 
ATOM     22  C   UNL     1       2.378   2.048  17.474  0.00  0.00    +0.000 C 
ATOM     23  C   UNL     1       3.495   3.227  19.447  0.00  0.00    +0.000 C 
ENDBRANCH  16  17
ENDBRANCH   2  16
TORSDOF 5
ENDMDL
MODEL 5
REMARK VINA RESULT:      -6.5      2.716      4.215
REMARK  Name = 
REMARK  7 active torsions:
REMARK  status: ('A' for Active; 'I' for Inactive)
REMARK    1  A    between atoms: C_1  and  O_2
REMARK    2  A    between atoms: O_2  and  C_3
REMARK    3  A    between atoms: C_6  and  N_7
REMARK    4  A    between atoms: C_8  and  C_10
REMARK    5  A    between atoms: C_10  and  N_11
REMARK    6  A    between atoms: C_15  and  C_16
REMARK    7  A    between atoms: C_18  and  N_19
REMARK                            x       y       z     vdW  Elec       q    Type
REMARK                         _______ _______ _______ _____ _____    ______ ____
ROOT
ATOM      1  N   UNL     1       6.343   4.295  18.423  0.00  0.00    +0.000 N 
ATOM      2  C   UNL     1       5.265   4.124  19.278  0.00  0.00    +0.000 C 
ATOM      3  O   UNL     1       4.813   4.992  20.027  0.00  0.00    +0.000 OA
ATOM      4  H   UNL     1       6.558   3.496  17.830  0.00  0.00    +0.000 HD
ENDROOT
BRANCH   1   8
ATOM      5  C   UNL     1       8.010   8.221  17.896  0.00  0.00    +0.000 A 
ATOM      6  C   UNL     1       8.451   7.382  18.916  0.00  0.00    +0.000 A 
ATOM      7  C   UNL     1       7.940   6.078  19.053  0.00  0.00    +0.000 A 
ATOM      8  C   UNL     1       6.990   5.542  18.168  0.00  0.00    +0.000 A 
ATOM      9  C   UNL     1       6.692   6.371  17.073  0.00  0.00    +0.000 A 
ATOM     10  C   UNL     1       7.119   7.711  16.960  0.00  0.00    +0.000 A 
BRANCH   9  11
ATOM     11  N   UNL     1       6.080   5.816  15.887  0.00  0.00    +0.000 N 
ATOM     12  O   UNL     1       6.474   4.691  15.540  0.00  0.00    +0.000 OA
ATOM     13  O   UNL     1       5.250   6.507  15.286  0.00  0.00    +0.000 OA
ENDBRANCH   9  11
BRANCH   5  15
ATOM     14  C   UNL     1       9.132   9.915  19.119  0.00  0.00    +0.000 C 
ATOM     15  O   UNL     1       8.547   9.474  17.899  0.00  0.00    +0.000 OA
ENDBRANCH   5  15
ENDBRANCH   1   8
BRANCH   2  16
ATOM     16  C   UNL     1       4.487   2.806  19.173  0.00  0.00    +0.000 C 
BRANCH  16  17
ATOM     17  N   UNL     1       3.740   2.579  17.914  0.00  0.00    +0.000 NA
ATOM     18  C   UNL     1       2.606   1.654  18.071  0.00  0.00    +0.000 C 
ATOM     19  C   UNL     1       1.502   2.144  19.009  0.00  0.00    +0.000 C 
ATOM     20  C   UNL     1       1.047   3.580  18.745  0.00  0.00    +0.000 C 
ATOM     21  C   UNL     1       2.179   4.542  18.356  0.00  0.00    +0.000 C 
ATOM     22  C   UNL     1       1.587   5.823  17.758  0.00  0.00    +0.000 C 
ATOM     23  C   UNL     1       3.198   3.870  17.408  0.00  0.00    +0.000 C 
ENDBRANCH  16  17
ENDBRANCH   2  16
TORSDOF 5
ENDMDL
MODEL 6
REMARK VINA RESULT:      -6.4      1.308      2.107
REMARK  Name = 
REMARK  7 active torsions:
REMARK  status: ('A' for Active; 'I' for Inactive)
REMARK    1  A    between atoms: C_1  and  O_2
REMARK    2  A    between atoms: O_2  and  C_3
REMARK    3  A    between atoms: C_6  and  N_7
REMARK    4  A    between atoms: C_8  and  C_10
REMARK    5  A    between atoms: C_10  and  N_11
REMARK    6  A    between atoms: C_15  and  C_16
REMARK    7  A    between atoms: C_18  and  N_19
REMARK                            x       y       z     vdW  Elec       q    Type
REMARK                         _______ _______ _______ _____ _____    ______ ____
ROOT
ATOM      1  N   UNL     1       5.550   3.630  18.394  0.00  0.00    +0.000 N 
ATOM      2  C   UNL     1       4.867   4.369  19.349  0.00  0.00    +0.000 C 
ATOM      3  O   UNL     1       4.612   5.571  19.263  0.00  0.00    +0.000 OA
ATOM      4  H   UNL     1       5.631   2.635  18.592  0.00  0.00    +0.000 HD
ENDROOT
BRANCH   1   8
ATOM      5  C   UNL     1       6.864   4.729  14.453  0.00  0.00    +0.000 A 
ATOM      6  C   UNL     1       5.631   4.115  14.657  0.00  0.00    +0.000 A 
ATOM      7  C   UNL     1       5.182   3.804  15.953  0.00  0.00    +0.000 A 
ATOM      8  C   UNL     1       5.924   4.114  17.105  0.00  0.00    +0.000 A 
ATOM      9  C   UNL     1       7.085   4.867  16.856  0.00  0.00    +0.000 A 
ATOM     10  C   UNL     1       7.602   5.113  15.567  0.00  0.00    +0.000 A 
BRANCH   9  11
ATOM     11  N   UNL     1       7.714   5.607  17.925  0.00  0.00    +0.000 N 
ATOM     12  O   UNL     1       8.201   4.935  18.848  0.00  0.00    +0.000 OA
ATOM     13  O   UNL     1       7.687   6.843  17.868  0.00  0.00    +0.000 OA
ENDBRANCH   9  11
BRANCH   5  15
ATOM     14  C   UNL     1       6.814   3.931  12.221  0.00  0.00    +0.000 C 
ATOM     15  O   UNL     1       7.204   4.936  13.150  0.00  0.00    +0.000 OA
ENDBRANCH   5  15
ENDBRANCH   1   8
BRANCH   2  16
ATOM     16  C   UNL     1       4.253   3.599  20.526  0.00  0.00    +0.000 C 
BRANCH  16  17
ATOM     17  N   UNL     1       3.387   2.448  20.183  0.00  0.00    +0.000 NA
ATOM     18  C   UNL     1       2.325   2.204  21.171  0.00  0.00    +0.000 C 
ATOM     19  C   UNL     1       1.305   3.335  21.311  0.00  0.00    +0.000 C 
ATOM     20  C   UNL     1       0.753   3.848  19.981  0.00  0.00    +0.000 C 
ATOM     21  C   UNL     1       1.785   3.908  18.846  0.00  0.00    +0.000 C 
ATOM     22  C   UNL     1       1.068   4.064  17.501  0.00  0.00    +0.000 C 
ATOM     23  C   UNL     1       2.729   2.685  18.868  0.00  0.00    +0.000 C 
ENDBRANCH  16  17
ENDBRANCH   2  16
TORSDOF 5
ENDMDL
MODEL 7
REMARK VINA RESULT:      -6.4      4.387      8.194
REMARK  Name = 
REMARK  7 active torsions:
REMARK  status: ('A' for Active; 'I' for Inactive)
REMARK    1  A    between atoms: C_1  and  O_2
REMARK    2  A    between atoms: O_2  and  C_3
REMARK    3  A    between atoms: C_6  and  N_7
REMARK    4  A    between atoms: C_8  and  C_10
REMARK    5  A    between atoms: C_10  and  N_11
REMARK    6  A    between atoms: C_15  and  C_16
REMARK    7  A    between atoms: C_18  and  N_19
REMARK                            x       y       z     vdW  Elec       q    Type
REMARK                         _______ _______ _______ _____ _____    ______ ____
ROOT
ATOM      1  N   UNL     1       2.148   7.662  20.028  0.00  0.00    +0.000 N 
ATOM      2  C   UNL     1       1.980   6.288  20.126  0.00  0.00    +0.000 C 
ATOM      3  O   UNL     1       1.228   5.724  20.923  0.00  0.00    +0.000 OA
ATOM      4  H   UNL     1       2.766   7.971  19.280  0.00  0.00    +0.000 HD
ENDROOT
BRANCH   1   8
ATOM      5  C   UNL     1      -0.493  10.285  22.175  0.00  0.00    +0.000 A 
ATOM      6  C   UNL     1       0.473   9.533  22.839  0.00  0.00    +0.000 A 
ATOM      7  C   UNL     1       1.369   8.716  22.128  0.00  0.00    +0.000 A 
ATOM      8  C   UNL     1       1.365   8.630  20.726  0.00  0.00    +0.000 A 
ATOM      9  C   UNL     1       0.476   9.520  20.098  0.00  0.00    +0.000 A 
ATOM     10  C   UNL     1      -0.492  10.281  20.785  0.00  0.00    +0.000 A 
BRANCH   9  11
ATOM     11  N   UNL     1       0.646   9.852  18.702  0.00  0.00    +0.000 N 
ATOM     12  O   UNL     1       1.812  10.044  18.320  0.00  0.00    +0.000 OA
ATOM     13  O   UNL     1      -0.369   9.961  18.004  0.00  0.00    +0.000 OA
ENDBRANCH   9  11
BRANCH   5  15
ATOM     14  C   UNL     1      -1.215  12.417  22.920  0.00  0.00    +0.000 C 
ATOM     15  O   UNL     1      -1.330  11.000  22.978  0.00  0.00    +0.000 OA
ENDBRANCH   5  15
ENDBRANCH   1   8
BRANCH   2  16
ATOM     16  C   UNL     1       2.665   5.419  19.064  0.00  0.00    +0.000 C 
BRANCH  16  17
ATOM     17  N   UNL     1       4.118   5.191  19.234  0.00  0.00    +0.000 NA
ATOM     18  C   UNL     1       4.492   3.768  19.193  0.00  0.00    +0.000 C 
ATOM     19  C   UNL     1       4.218   3.070  17.860  0.00  0.00    +0.000 C 
ATOM     20  C   UNL     1       4.719   3.838  16.636  0.00  0.00    +0.000 C 
ATOM     21  C   UNL     1       4.553   5.361  16.730  0.00  0.00    +0.000 C 
ATOM     22  C   UNL     1       5.408   6.043  15.657  0.00  0.00    +0.000 C 
ATOM     23  C   UNL     1       4.869   5.883  18.150  0.00  0.00    +0.000 C 
ENDBRANCH  16  17
ENDBRANCH   2  16
TORSDOF 5
ENDMDL
MODEL 8
REMARK VINA RESULT:      -6.3      3.554      4.964
REMARK  Name = 
REMARK  7 active torsions:
REMARK  status: ('A' for Active; 'I' for Inactive)
REMARK    1  A    between atoms: C_1  and  O_2
REMARK    2  A    between atoms: O_2  and  C_3
REMARK    3  A    between atoms: C_6  and  N_7
REMARK    4  A    between atoms: C_8  and  C_10
REMARK    5  A    between atoms: C_10  and  N_11
REMARK    6  A    between atoms: C_15  and  C_16
REMARK    7  A    between atoms: C_18  and  N_19
REMARK                            x       y       z     vdW  Elec       q    Type
REMARK                         _______ _______ _______ _____ _____    ______ ____
ROOT
ATOM      1  N   UNL     1       2.503   6.274  18.724  0.00  0.00    +0.000 N 
ATOM      2  C   UNL     1       2.117   6.065  20.040  0.00  0.00    +0.000 C 
ATOM      3  O   UNL     1       2.535   5.159  20.763  0.00  0.00    +0.000 OA
ATOM      4  H   UNL     1       2.106   7.100  18.281  0.00  0.00    +0.000 HD
ENDROOT
BRANCH   1   8
ATOM      5  C   UNL     1       5.592   4.391  16.405  0.00  0.00    +0.000 A 
ATOM      6  C   UNL     1       5.871   5.479  17.228  0.00  0.00    +0.000 A 
ATOM      7  C   UNL     1       4.868   6.060  18.025  0.00  0.00    +0.000 A 
ATOM      8  C   UNL     1       3.552   5.569  18.061  0.00  0.00    +0.000 A 
ATOM      9  C   UNL     1       3.361   4.382  17.333  0.00  0.00    +0.000 A 
ATOM     10  C   UNL     1       4.321   3.832  16.458  0.00  0.00    +0.000 A 
BRANCH   9  11
ATOM     11  N   UNL     1       2.217   3.541  17.601  0.00  0.00    +0.000 N 
ATOM     12  O   UNL     1       2.460   2.396  18.014  0.00  0.00    +0.000 OA
ATOM     13  O   UNL     1       1.093   4.000  17.366  0.00  0.00    +0.000 OA
ENDBRANCH   9  11
BRANCH   5  15
ATOM     14  C   UNL     1       6.483   4.035  14.237  0.00  0.00    +0.000 C 
ATOM     15  O   UNL     1       6.637   3.950  15.649  0.00  0.00    +0.000 OA
ENDBRANCH   5  15
ENDBRANCH   1   8
BRANCH   2  16
ATOM     16  C   UNL     1       1.220   7.129  20.687  0.00  0.00    +0.000 C 
BRANCH  16  17
ATOM     17  N   UNL     1       1.798   8.485  20.824  0.00  0.00    +0.000 NA
ATOM     18  C   UNL     1       1.503   9.361  19.678  0.00  0.00    +0.000 C 
ATOM     19  C   UNL     1       0.020   9.670  19.471  0.00  0.00    +0.000 C 
ATOM     20  C   UNL     1      -0.712  10.108  20.740  0.00  0.00    +0.000 C 
ATOM     21  C   UNL     1      -0.273   9.370  22.013  0.00  0.00    +0.000 C 
ATOM     22  C   UNL     1      -0.774  10.125  23.248  0.00  0.00    +0.000 C 
ATOM     23  C   UNL     1       1.255   9.146  22.044  0.00  0.00    +0.000 C 
ENDBRANCH  16  17
ENDBRANCH   2  16
TORSDOF 5
ENDMDL
MODEL 9
REMARK VINA RESULT:      -6.2      1.513      2.325
REMARK  Name = 
REMARK  7 active torsions:
REMARK  status: ('A' for Active; 'I' for Inactive)
REMARK    1  A    between atoms: C_1  and  O_2
REMARK    2  A    between atoms: O_2  and  C_3
REMARK    3  A    between atoms: C_6  and  N_7
REMARK    4  A    between atoms: C_8  and  C_10
REMARK    5  A    between atoms: C_10  and  N_11
REMARK    6  A    between atoms: C_15  and  C_16
REMARK    7  A    between atoms: C_18  and  N_19
REMARK                            x       y       z     vdW  Elec       q    Type
REMARK                         _______ _______ _______ _____ _____    ______ ____
ROOT
ATOM      1  N   UNL     1       4.579   3.555  17.767  0.00  0.00    +0.000 N 
ATOM      2  C   UNL     1       3.264   3.141  17.611  0.00  0.00    +0.000 C 
ATOM      3  O   UNL     1       2.572   3.352  16.614  0.00  0.00    +0.000 OA
ATOM      4  H   UNL     1       5.029   3.254  18.629  0.00  0.00    +0.000 HD
ENDROOT
BRANCH   1   8
ATOM      5  C   UNL     1       7.165   4.982  14.646  0.00  0.00    +0.000 A 
ATOM      6  C   UNL     1       5.931   4.409  14.353  0.00  0.00    +0.000 A 
ATOM      7  C   UNL     1       5.065   3.991  15.380  0.00  0.00    +0.000 A 
ATOM      8  C   UNL     1       5.374   4.148  16.741  0.00  0.00    +0.000 A 
ATOM      9  C   UNL     1       6.558   4.867  16.982  0.00  0.00    +0.000 A 
ATOM     10  C   UNL     1       7.485   5.217  15.978  0.00  0.00    +0.000 A 
BRANCH   9  11
ATOM     11  N   UNL     1       6.793   5.466  18.276  0.00  0.00    +0.000 N 
ATOM     12  O   UNL     1       6.632   4.729  19.261  0.00  0.00    +0.000 OA
ATOM     13  O   UNL     1       7.093   6.665  18.313  0.00  0.00    +0.000 OA
ENDBRANCH   9  11
BRANCH   5  15
ATOM     14  C   UNL     1       7.470   4.845  12.299  0.00  0.00    +0.000 C 
ATOM     15  O   UNL     1       7.931   5.303  13.565  0.00  0.00    +0.000 OA
ENDBRANCH   5  15
ENDBRANCH   1   8
BRANCH   2  16
ATOM     16  C   UNL     1       2.682   2.226  18.696  0.00  0.00    +0.000 C 
BRANCH  16  17
ATOM     17  N   UNL     1       1.390   2.643  19.287  0.00  0.00    +0.000 NA
ATOM     18  C   UNL     1       1.234   2.231  20.692  0.00  0.00    +0.000 C 
ATOM     19  C   UNL     1       2.240   2.855  21.660  0.00  0.00    +0.000 C 
ATOM     20  C   UNL     1       2.394   4.369  21.513  0.00  0.00    +0.000 C 
ATOM     21  C   UNL     1       2.338   4.876  20.064  0.00  0.00    +0.000 C 
ATOM     22  C   UNL     1       2.122   6.393  20.054  0.00  0.00    +0.000 C 
ATOM     23  C   UNL     1       1.267   4.127  19.240  0.00  0.00    +0.000 C 
ENDBRANCH  16  17
ENDBRANCH   2  16
TORSDOF 5
ENDMDL
