MODEL 1
REMARK VINA RESULT:      -8.3      0.000      0.000
REMARK  Name = 
REMARK  8 active torsions:
REMARK  status: ('A' for Active; 'I' for Inactive)
REMARK    1  A    between atoms: C_1  and  O_2
REMARK    2  A    between atoms: O_2  and  C_3
REMARK    3  A    between atoms: C_12  and  O_13
REMARK    4  A    between atoms: C_12  and  C_14
REMARK    5  A    between atoms: C_14  and  N_15
REMARK    6  A    between atoms: C_16  and  C_18
REMARK    7  A    between atoms: C_20  and  C_21
REMARK    8  A    between atoms: C_23  and  C_24
REMARK                            x       y       z     vdW  Elec       q    Type
REMARK                         _______ _______ _______ _____ _____    ______ ____
ROOT
ATOM      1  C   UNL     1       2.146   7.221  18.466  0.00  0.00    +0.000 A 
ATOM      2  C   UNL     1       2.735   7.063  19.719  0.00  0.00    +0.000 A 
ATOM      3  C   UNL     1       2.981   5.783  20.220  0.00  0.00    +0.000 A 
ATOM      4  C   UNL     1       2.643   4.633  19.485  0.00  0.00    +0.000 A 
ATOM      5  C   UNL     1       2.064   4.792  18.211  0.00  0.00    +0.000 A 
ATOM      6  C   UNL     1       1.812   6.087  17.724  0.00  0.00    +0.000 A 
ATOM      7  C   UNL     1       1.639   3.611  17.369  0.00  0.00    +0.000 C 
ATOM      8  C   UNL     1       2.246   2.288  17.824  0.00  0.00    +0.000 C 
ATOM      9  C   UNL     1       2.139   2.159  19.337  0.00  0.00    +0.000 C 
ATOM     10  C   UNL     1       2.955   3.251  20.056  0.00  0.00    +0.000 C 
ENDROOT
BRANCH   1  12
ATOM     11  C   UNL     1       1.304   9.428  18.706  0.00  0.00    +0.000 C 
ATOM     12  O   UNL     1       1.846   8.414  17.868  0.00  0.00    +0.000 OA
ENDBRANCH   1  12
BRANCH  10  13
ATOM     13  O   UNL     1       2.556   3.204  21.441  0.00  0.00    +0.000 OA
ATOM     14  H   UNL     1       2.762   2.305  21.754  0.00  0.00    +0.000 HD
ENDBRANCH  10  13
BRANCH  10  15
ATOM     15  C   UNL     1       4.485   2.991  19.992  0.00  0.00    +0.000 C 
BRANCH  15  16
ATOM     16  N   UNL     1       5.082   3.443  18.743  0.00  0.00    +0.000 N 
ATOM     17  C   UNL     1       6.001   4.466  18.708  0.00  0.00    +0.000 C 
ATOM     18  O   UNL     1       6.348   5.070  19.719  0.00  0.00    +0.000 OA
ATOM     19  H   UNL     1       4.951   2.846  17.939  0.00  0.00    +0.000 HD
BRANCH  17  20
ATOM     20  C   UNL     1       6.513   4.800  17.385  0.00  0.00    +0.000 A 
ATOM     21  C   UNL     1       6.391   4.117  16.135  0.00  0.00    +0.000 A 
ATOM     22  C   UNL     1       7.002   4.907  15.185  0.00  0.00    +0.000 A 
ATOM     23  C   UNL     1       7.173   4.802  13.723  0.00  0.00    +0.000 C 
ATOM     24  O   UNL     1       7.522   6.017  15.767  0.00  0.00    +0.000 OA
ATOM     25  C   UNL     1       7.226   5.954  17.093  0.00  0.00    +0.000 A 
ATOM     26  C   UNL     1       7.687   7.096  17.915  0.00  0.00    +0.000 C 
ENDBRANCH  17  20
ENDBRANCH  15  16
ENDBRANCH  10  15
TORSDOF 5
ENDMDL
MODEL 2
REMARK VINA RESULT:      -7.7      1.703      2.290
REMARK  Name = 
REMARK  8 active torsions:
REMARK  status: ('A' for Active; 'I' for Inactive)
REMARK    1  A    between atoms: C_1  and  O_2
REMARK    2  A    between atoms: O_2  and  C_3
REMARK    3  A    between atoms: C_12  and  O_13
REMARK    4  A    between atoms: C_12  and  C_14
REMARK    5  A    between atoms: C_14  and  N_15
REMARK    6  A    between atoms: C_16  and  C_18
REMARK    7  A    between atoms: C_20  and  C_21
REMARK    8  A    between atoms: C_23  and  C_24
REMARK                            x       y       z     vdW  Elec       q    Type
REMARK                         _______ _______ _______ _____ _____    ______ ____
ROOT
ATOM      1  C   UNL     1       2.090   7.036  20.014  0.00  0.00    +0.000 A 
ATOM      2  C   UNL     1       3.275   6.875  19.300  0.00  0.00    +0.000 A 
ATOM      3  C   UNL     1       3.873   5.616  19.210  0.00  0.00    +0.000 A 
ATOM      4  C   UNL     1       3.304   4.490  19.832  0.00  0.00    +0.000 A 
ATOM      5  C   UNL     1       2.095   4.649  20.539  0.00  0.00    +0.000 A 
ATOM      6  C   UNL     1       1.511   5.925  20.630  0.00  0.00    +0.000 A 
ATOM      7  C   UNL     1       1.434   3.501  21.266  0.00  0.00    +0.000 C 
ATOM      8  C   UNL     1       1.948   2.131  20.837  0.00  0.00    +0.000 C 
ATOM      9  C   UNL     1       3.468   2.145  20.764  0.00  0.00    +0.000 C 
ATOM     10  C   UNL     1       3.972   3.126  19.687  0.00  0.00    +0.000 C 
ENDROOT
BRANCH   1  12
ATOM     11  C   UNL     1       1.273   8.681  21.518  0.00  0.00    +0.000 C 
ATOM     12  O   UNL     1       1.411   8.212  20.182  0.00  0.00    +0.000 OA
ENDBRANCH   1  12
BRANCH  10  13
ATOM     13  O   UNL     1       5.392   3.263  19.902  0.00  0.00    +0.000 OA
ATOM     14  H   UNL     1       5.721   3.847  19.196  0.00  0.00    +0.000 HD
ENDBRANCH  10  13
BRANCH  10  15
ATOM     15  C   UNL     1       3.759   2.589  18.245  0.00  0.00    +0.000 C 
BRANCH  15  16
ATOM     16  N   UNL     1       4.784   3.045  17.317  0.00  0.00    +0.000 N 
ATOM     17  C   UNL     1       4.540   4.045  16.404  0.00  0.00    +0.000 C 
ATOM     18  O   UNL     1       3.443   4.587  16.303  0.00  0.00    +0.000 OA
ATOM     19  H   UNL     1       5.730   2.746  17.506  0.00  0.00    +0.000 HD
BRANCH  17  20
ATOM     20  C   UNL     1       5.666   4.396  15.547  0.00  0.00    +0.000 A 
ATOM     21  C   UNL     1       5.857   4.233  14.140  0.00  0.00    +0.000 A 
ATOM     22  C   UNL     1       7.072   4.805  13.832  0.00  0.00    +0.000 A 
ATOM     23  C   UNL     1       7.815   5.015  12.574  0.00  0.00    +0.000 C 
ATOM     24  O   UNL     1       7.662   5.282  14.957  0.00  0.00    +0.000 OA
ATOM     25  C   UNL     1       6.814   5.037  15.992  0.00  0.00    +0.000 A 
ATOM     26  C   UNL     1       7.262   5.506  17.323  0.00  0.00    +0.000 C 
ENDBRANCH  17  20
ENDBRANCH  15  16
ENDBRANCH  10  15
TORSDOF 5
ENDMDL
MODEL 3
REMARK VINA RESULT:      -7.7      2.920      5.688
REMARK  Name = 
REMARK  8 active torsions:
REMARK  status: ('A' for Active; 'I' for Inactive)
REMARK    1  A    between atoms: C_1  and  O_2
REMARK    2  A    between atoms: O_2  and  C_3
REMARK    3  A    between atoms: C_12  and  O_13
REMARK    4  A    between atoms: C_12  and  C_14
REMARK    5  A    between atoms: C_14  and  N_15
REMARK    6  A    between atoms: C_16  and  C_18
REMARK    7  A    between atoms: C_20  and  C_21
REMARK    8  A    between atoms: C_23  and  C_24
REMARK                            x       y       z     vdW  Elec       q    Type
REMARK                         _______ _______ _______ _____ _____    ______ ____
ROOT
ATOM      1  C   UNL     1       3.308   3.766  18.971  0.00  0.00    +0.000 A 
ATOM      2  C   UNL     1       3.134   3.880  17.593  0.00  0.00    +0.000 A 
ATOM      3  C   UNL     1       4.112   4.500  16.813  0.00  0.00    +0.000 A 
ATOM      4  C   UNL     1       5.284   5.022  17.389  0.00  0.00    +0.000 A 
ATOM      5  C   UNL     1       5.469   4.890  18.779  0.00  0.00    +0.000 A 
ATOM      6  C   UNL     1       4.470   4.274  19.554  0.00  0.00    +0.000 A 
ATOM      7  C   UNL     1       6.681   5.453  19.484  0.00  0.00    +0.000 C 
ATOM      8  C   UNL     1       7.832   5.792  18.542  0.00  0.00    +0.000 C 
ATOM      9  C   UNL     1       7.305   6.541  17.326  0.00  0.00    +0.000 C 
ATOM     10  C   UNL     1       6.343   5.666  16.498  0.00  0.00    +0.000 C 
ENDROOT
BRANCH   1  12
ATOM     11  C   UNL     1       1.327   2.491  19.270  0.00  0.00    +0.000 C 
ATOM     12  O   UNL     1       2.425   3.191  19.843  0.00  0.00    +0.000 OA
ENDBRANCH   1  12
BRANCH  10  13
ATOM     13  O   UNL     1       5.704   6.553  15.558  0.00  0.00    +0.000 OA
ATOM     14  H   UNL     1       5.689   6.083  14.705  0.00  0.00    +0.000 HD
ENDBRANCH  10  13
BRANCH  10  15
ATOM     15  C   UNL     1       7.085   4.568  15.688  0.00  0.00    +0.000 C 
BRANCH  15  16
ATOM     16  N   UNL     1       6.266   4.003  14.624  0.00  0.00    +0.000 N 
ATOM     17  C   UNL     1       6.595   4.156  13.297  0.00  0.00    +0.000 C 
ATOM     18  O   UNL     1       7.578   4.796  12.936  0.00  0.00    +0.000 OA
ATOM     19  H   UNL     1       5.568   3.327  14.903  0.00  0.00    +0.000 HD
BRANCH  17  20
ATOM     20  C   UNL     1       5.681   3.528  12.351  0.00  0.00    +0.000 A 
ATOM     21  C   UNL     1       4.334   3.849  11.998  0.00  0.00    +0.000 A 
ATOM     22  C   UNL     1       3.964   2.979  10.996  0.00  0.00    +0.000 A 
ATOM     23  C   UNL     1       2.746   2.820  10.176  0.00  0.00    +0.000 C 
ATOM     24  O   UNL     1       4.978   2.119  10.727  0.00  0.00    +0.000 OA
ATOM     25  C   UNL     1       6.015   2.450  11.543  0.00  0.00    +0.000 A 
ATOM     26  C   UNL     1       7.245   1.641  11.390  0.00  0.00    +0.000 C 
ENDBRANCH  17  20
ENDBRANCH  15  16
ENDBRANCH  10  15
TORSDOF 5
ENDMDL
MODEL 4
REMARK VINA RESULT:      -7.4      3.495      6.619
REMARK  Name = 
REMARK  8 active torsions:
REMARK  status: ('A' for Active; 'I' for Inactive)
REMARK    1  A    between atoms: C_1  and  O_2
REMARK    2  A    between atoms: O_2  and  C_3
REMARK    3  A    between atoms: C_12  and  O_13
REMARK    4  A    between atoms: C_12  and  C_14
REMARK    5  A    between atoms: C_14  and  N_15
REMARK    6  A    between atoms: C_16  and  C_18
REMARK    7  A    between atoms: C_20  and  C_21
REMARK    8  A    between atoms: C_23  and  C_24
REMARK                            x       y       z     vdW  Elec       q    Type
REMARK                         _______ _______ _______ _____ _____    ______ ____
ROOT
ATOM      1  C   UNL     1      -3.242  10.942  17.960  0.00  0.00    +0.000 A 
ATOM      2  C   UNL     1      -2.474  10.040  17.227  0.00  0.00    +0.000 A 
ATOM      3  C   UNL     1      -1.107   9.917  17.480  0.00  0.00    +0.000 A 
ATOM      4  C   UNL     1      -0.474  10.693  18.468  0.00  0.00    +0.000 A 
ATOM      5  C   UNL     1      -1.253  11.593  19.221  0.00  0.00    +0.000 A 
ATOM      6  C   UNL     1      -2.627  11.714  18.948  0.00  0.00    +0.000 A 
ATOM      7  C   UNL     1      -0.648  12.490  20.276  0.00  0.00    +0.000 C 
ATOM      8  C   UNL     1       0.745  12.055  20.720  0.00  0.00    +0.000 C 
ATOM      9  C   UNL     1       1.595  11.713  19.505  0.00  0.00    +0.000 C 
ATOM     10  C   UNL     1       1.018  10.510  18.734  0.00  0.00    +0.000 C 
ENDROOT
BRANCH   1  12
ATOM     11  C   UNL     1      -5.265  11.747  18.908  0.00  0.00    +0.000 C 
ATOM     12  O   UNL     1      -4.584  11.161  17.805  0.00  0.00    +0.000 OA
ENDBRANCH   1  12
BRANCH  10  13
ATOM     13  O   UNL     1       1.727  10.461  17.479  0.00  0.00    +0.000 OA
ATOM     14  H   UNL     1       1.129  10.846  16.812  0.00  0.00    +0.000 HD
ENDBRANCH  10  13
BRANCH  10  15
ATOM     15  C   UNL     1       1.257   9.162  19.468  0.00  0.00    +0.000 C 
BRANCH  15  16
ATOM     16  N   UNL     1       2.012   8.210  18.665  0.00  0.00    +0.000 N 
ATOM     17  C   UNL     1       2.369   6.974  19.153  0.00  0.00    +0.000 C 
ATOM     18  O   UNL     1       2.095   6.616  20.295  0.00  0.00    +0.000 OA
ATOM     19  H   UNL     1       2.084   8.410  17.677  0.00  0.00    +0.000 HD
BRANCH  17  20
ATOM     20  C   UNL     1       3.117   6.130  18.229  0.00  0.00    +0.000 A 
ATOM     21  C   UNL     1       4.376   6.338  17.584  0.00  0.00    +0.000 A 
ATOM     22  C   UNL     1       4.655   5.191  16.872  0.00  0.00    +0.000 A 
ATOM     23  C   UNL     1       5.799   4.749  16.051  0.00  0.00    +0.000 C 
ATOM     24  O   UNL     1       3.639   4.300  17.006  0.00  0.00    +0.000 OA
ATOM     25  C   UNL     1       2.712   4.866  17.825  0.00  0.00    +0.000 A 
ATOM     26  C   UNL     1       1.521   4.039  18.124  0.00  0.00    +0.000 C 
ENDBRANCH  17  20
ENDBRANCH  15  16
ENDBRANCH  10  15
TORSDOF 5
ENDMDL
MODEL 5
REMARK VINA RESULT:      -7.1      1.025      1.887
REMARK  Name = 
REMARK  8 active torsions:
REMARK  status: ('A' for Active; 'I' for Inactive)
REMARK    1  A    between atoms: C_1  and  O_2
REMARK    2  A    between atoms: O_2  and  C_3
REMARK    3  A    between atoms: C_12  and  O_13
REMARK    4  A    between atoms: C_12  and  C_14
REMARK    5  A    between atoms: C_14  and  N_15
REMARK    6  A    between atoms: C_16  and  C_18
REMARK    7  A    between atoms: C_20  and  C_21
REMARK    8  A    between atoms: C_23  and  C_24
REMARK                            x       y       z     vdW  Elec       q    Type
REMARK                         _______ _______ _______ _____ _____    ______ ____
ROOT
ATOM      1  C   UNL     1       2.147   6.871  18.382  0.00  0.00    +0.000 A 
ATOM      2  C   UNL     1       2.983   6.771  19.493  0.00  0.00    +0.000 A 
ATOM      3  C   UNL     1       3.267   5.521  20.045  0.00  0.00    +0.000 A 
ATOM      4  C   UNL     1       2.724   4.342  19.504  0.00  0.00    +0.000 A 
ATOM      5  C   UNL     1       1.893   4.440  18.370  0.00  0.00    +0.000 A 
ATOM      6  C   UNL     1       1.606   5.707  17.832  0.00  0.00    +0.000 A 
ATOM      7  C   UNL     1       1.240   3.229  17.746  0.00  0.00    +0.000 C 
ATOM      8  C   UNL     1       1.865   1.907  18.182  0.00  0.00    +0.000 C 
ATOM      9  C   UNL     1       2.078   1.903  19.689  0.00  0.00    +0.000 C 
ATOM     10  C   UNL     1       3.082   2.991  20.119  0.00  0.00    +0.000 C 
ENDROOT
BRANCH   1  12
ATOM     11  C   UNL     1       2.599   9.171  18.007  0.00  0.00    +0.000 C 
ATOM     12  O   UNL     1       1.786   8.031  17.754  0.00  0.00    +0.000 OA
ENDBRANCH   1  12
BRANCH  10  13
ATOM     13  O   UNL     1       2.988   3.079  21.555  0.00  0.00    +0.000 OA
ATOM     14  H   UNL     1       2.042   3.194  21.761  0.00  0.00    +0.000 HD
ENDBRANCH  10  13
BRANCH  10  15
ATOM     15  C   UNL     1       4.548   2.625  19.759  0.00  0.00    +0.000 C 
BRANCH  15  16
ATOM     16  N   UNL     1       5.302   3.759  19.244  0.00  0.00    +0.000 N 
ATOM     17  C   UNL     1       5.420   3.997  17.894  0.00  0.00    +0.000 C 
ATOM     18  O   UNL     1       4.920   3.257  17.053  0.00  0.00    +0.000 OA
ATOM     19  H   UNL     1       5.559   4.471  19.913  0.00  0.00    +0.000 HD
BRANCH  17  20
ATOM     20  C   UNL     1       6.200   5.174  17.534  0.00  0.00    +0.000 A 
ATOM     21  C   UNL     1       6.540   6.338  18.290  0.00  0.00    +0.000 A 
ATOM     22  C   UNL     1       7.360   7.109  17.494  0.00  0.00    +0.000 A 
ATOM     23  C   UNL     1       8.082   8.380  17.695  0.00  0.00    +0.000 C 
ATOM     24  O   UNL     1       7.524   6.517  16.283  0.00  0.00    +0.000 OA
ATOM     25  C   UNL     1       6.826   5.349  16.308  0.00  0.00    +0.000 A 
ATOM     26  C   UNL     1       6.896   4.527  15.078  0.00  0.00    +0.000 C 
ENDBRANCH  17  20
ENDBRANCH  15  16
ENDBRANCH  10  15
TORSDOF 5
ENDMDL
MODEL 6
REMARK VINA RESULT:      -7.1      1.424      2.078
REMARK  Name = 
REMARK  8 active torsions:
REMARK  status: ('A' for Active; 'I' for Inactive)
REMARK    1  A    between atoms: C_1  and  O_2
REMARK    2  A    between atoms: O_2  and  C_3
REMARK    3  A    between atoms: C_12  and  O_13
REMARK    4  A    between atoms: C_12  and  C_14
REMARK    5  A    between atoms: C_14  and  N_15
REMARK    6  A    between atoms: C_16  and  C_18
REMARK    7  A    between atoms: C_20  and  C_21
REMARK    8  A    between atoms: C_23  and  C_24
REMARK                            x       y       z     vdW  Elec       q    Type
REMARK                         _______ _______ _______ _____ _____    ______ ____
ROOT
ATOM      1  C   UNL     1       1.993   6.897  18.591  0.00  0.00    +0.000 A 
ATOM      2  C   UNL     1       2.603   6.707  19.829  0.00  0.00    +0.000 A 
ATOM      3  C   UNL     1       3.046   5.438  20.204  0.00  0.00    +0.000 A 
ATOM      4  C   UNL     1       2.890   4.328  19.354  0.00  0.00    +0.000 A 
ATOM      5  C   UNL     1       2.290   4.523  18.094  0.00  0.00    +0.000 A 
ATOM      6  C   UNL     1       1.838   5.805  17.735  0.00  0.00    +0.000 A 
ATOM      7  C   UNL     1       2.051   3.381  17.134  0.00  0.00    +0.000 C 
ATOM      8  C   UNL     1       2.858   2.129  17.463  0.00  0.00    +0.000 C 
ATOM      9  C   UNL     1       2.776   1.834  18.954  0.00  0.00    +0.000 C 
ATOM     10  C   UNL     1       3.414   2.962  19.788  0.00  0.00    +0.000 C 
ENDROOT
BRANCH   1  12
ATOM     11  C   UNL     1       2.463   9.120  17.901  0.00  0.00    +0.000 C 
ATOM     12  O   UNL     1       1.511   8.084  18.110  0.00  0.00    +0.000 OA
ENDBRANCH   1  12
BRANCH  10  13
ATOM     13  O   UNL     1       3.031   2.714  21.156  0.00  0.00    +0.000 OA
ATOM     14  H   UNL     1       2.478   1.911  21.145  0.00  0.00    +0.000 HD
ENDBRANCH  10  13
BRANCH  10  15
ATOM     15  C   UNL     1       4.965   2.949  19.719  0.00  0.00    +0.000 C 
BRANCH  15  16
ATOM     16  N   UNL     1       5.524   4.247  19.365  0.00  0.00    +0.000 N 
ATOM     17  C   UNL     1       5.983   4.516  18.096  0.00  0.00    +0.000 C 
ATOM     18  O   UNL     1       5.972   3.673  17.204  0.00  0.00    +0.000 OA
ATOM     19  H   UNL     1       5.372   4.998  20.023  0.00  0.00    +0.000 HD
BRANCH  17  20
ATOM     20  C   UNL     1       6.508   5.861  17.894  0.00  0.00    +0.000 A 
ATOM     21  C   UNL     1       7.579   6.553  18.539  0.00  0.00    +0.000 A 
ATOM     22  C   UNL     1       7.700   7.775  17.913  0.00  0.00    +0.000 A 
ATOM     23  C   UNL     1       8.627   8.914  18.062  0.00  0.00    +0.000 C 
ATOM     24  O   UNL     1       6.755   7.900  16.947  0.00  0.00    +0.000 OA
ATOM     25  C   UNL     1       6.036   6.745  16.934  0.00  0.00    +0.000 A 
ATOM     26  C   UNL     1       4.958   6.664  15.923  0.00  0.00    +0.000 C 
ENDBRANCH  17  20
ENDBRANCH  15  16
ENDBRANCH  10  15
TORSDOF 5
ENDMDL
MODEL 7
REMARK VINA RESULT:      -7.0      2.567      6.824
REMARK  Name = 
REMARK  8 active torsions:
REMARK  status: ('A' for Active; 'I' for Inactive)
REMARK    1  A    between atoms: C_1  and  O_2
REMARK    2  A    between atoms: O_2  and  C_3
REMARK    3  A    between atoms: C_12  and  O_13
REMARK    4  A    between atoms: C_12  and  C_14
REMARK    5  A    between atoms: C_14  and  N_15
REMARK    6  A    between atoms: C_16  and  C_18
REMARK    7  A    between atoms: C_20  and  C_21
REMARK    8  A    between atoms: C_23  and  C_24
REMARK                            x       y       z     vdW  Elec       q    Type
REMARK                         _______ _______ _______ _____ _____    ______ ____
ROOT
ATOM      1  C   UNL     1       6.335   5.120  15.935  0.00  0.00    +0.000 A 
ATOM      2  C   UNL     1       5.886   6.408  16.219  0.00  0.00    +0.000 A 
ATOM      3  C   UNL     1       4.706   6.595  16.942  0.00  0.00    +0.000 A 
ATOM      4  C   UNL     1       3.946   5.502  17.396  0.00  0.00    +0.000 A 
ATOM      5  C   UNL     1       4.409   4.199  17.125  0.00  0.00    +0.000 A 
ATOM      6  C   UNL     1       5.593   4.027  16.387  0.00  0.00    +0.000 A 
ATOM      7  C   UNL     1       3.638   2.970  17.546  0.00  0.00    +0.000 C 
ATOM      8  C   UNL     1       2.575   3.249  18.604  0.00  0.00    +0.000 C 
ATOM      9  C   UNL     1       1.782   4.493  18.230  0.00  0.00    +0.000 C 
ATOM     10  C   UNL     1       2.677   5.747  18.209  0.00  0.00    +0.000 C 
ENDROOT
BRANCH   1  12
ATOM     11  C   UNL     1       7.372   4.868  13.815  0.00  0.00    +0.000 C 
ATOM     12  O   UNL     1       7.465   4.803  15.233  0.00  0.00    +0.000 OA
ENDBRANCH   1  12
BRANCH  10  13
ATOM     13  O   UNL     1       1.899   6.785  17.579  0.00  0.00    +0.000 OA
ATOM     14  H   UNL     1       1.291   7.124  18.261  0.00  0.00    +0.000 HD
ENDBRANCH  10  13
BRANCH  10  15
ATOM     15  C   UNL     1       3.054   6.234  19.635  0.00  0.00    +0.000 C 
BRANCH  15  16
ATOM     16  N   UNL     1       2.343   7.444  20.023  0.00  0.00    +0.000 N 
ATOM     17  C   UNL     1       1.188   7.397  20.769  0.00  0.00    +0.000 C 
ATOM     18  O   UNL     1       0.681   6.337  21.125  0.00  0.00    +0.000 OA
ATOM     19  H   UNL     1       2.837   8.317  19.901  0.00  0.00    +0.000 HD
BRANCH  17  20
ATOM     20  C   UNL     1       0.595   8.691  21.084  0.00  0.00    +0.000 A 
ATOM     21  C   UNL     1       0.034   9.191  22.300  0.00  0.00    +0.000 A 
ATOM     22  C   UNL     1      -0.316  10.504  22.069  0.00  0.00    +0.000 A 
ATOM     23  C   UNL     1      -0.883  11.576  22.911  0.00  0.00    +0.000 C 
ATOM     24  O   UNL     1      -0.041  10.841  20.783  0.00  0.00    +0.000 OA
ATOM     25  C   UNL     1       0.511   9.748  20.189  0.00  0.00    +0.000 A 
ATOM     26  C   UNL     1       0.912   9.913  18.774  0.00  0.00    +0.000 C 
ENDBRANCH  17  20
ENDBRANCH  15  16
ENDBRANCH  10  15
TORSDOF 5
ENDMDL
MODEL 8
REMARK VINA RESULT:      -7.0      2.689      6.763
REMARK  Name = 
REMARK  8 active torsions:
REMARK  status: ('A' for Active; 'I' for Inactive)
REMARK    1  A    between atoms: C_1  and  O_2
REMARK    2  A    between atoms: O_2  and  C_3
REMARK    3  A    between atoms: C_12  and  O_13
REMARK    4  A    between atoms: C_12  and  C_14
REMARK    5  A    between atoms: C_14  and  N_15
REMARK    6  A    between atoms: C_16  and  C_18
REMARK    7  A    between atoms: C_20  and  C_21
REMARK    8  A    between atoms: C_23  and  C_24
REMARK                            x       y       z     vdW  Elec       q    Type
REMARK                         _______ _______ _______ _____ _____    ______ ____
ROOT
ATOM      1  C   UNL     1       6.180   5.514  16.137  0.00  0.00    +0.000 A 
ATOM      2  C   UNL     1       5.629   6.756  16.445  0.00  0.00    +0.000 A 
ATOM      3  C   UNL     1       4.420   6.833  17.141  0.00  0.00    +0.000 A 
ATOM      4  C   UNL     1       3.733   5.673  17.543  0.00  0.00    +0.000 A 
ATOM      5  C   UNL     1       4.300   4.417  17.247  0.00  0.00    +0.000 A 
ATOM      6  C   UNL     1       5.511   4.356  16.537  0.00  0.00    +0.000 A 
ATOM      7  C   UNL     1       3.612   3.122  17.611  0.00  0.00    +0.000 C 
ATOM      8  C   UNL     1       2.506   3.289  18.647  0.00  0.00    +0.000 C 
ATOM      9  C   UNL     1       1.631   4.481  18.287  0.00  0.00    +0.000 C 
ATOM     10  C   UNL     1       2.430   5.799  18.326  0.00  0.00    +0.000 C 
ENDROOT
BRANCH   1  12
ATOM     11  C   UNL     1       7.230   4.849  14.115  0.00  0.00    +0.000 C 
ATOM     12  O   UNL     1       7.348   5.304  15.457  0.00  0.00    +0.000 OA
ENDBRANCH   1  12
BRANCH  10  13
ATOM     13  O   UNL     1       1.591   6.794  17.705  0.00  0.00    +0.000 OA
ATOM     14  H   UNL     1       2.192   7.464  17.332  0.00  0.00    +0.000 HD
ENDBRANCH  10  13
BRANCH  10  15
ATOM     15  C   UNL     1       2.733   6.269  19.776  0.00  0.00    +0.000 C 
BRANCH  15  16
ATOM     16  N   UNL     1       2.327   7.646  20.017  0.00  0.00    +0.000 N 
ATOM     17  C   UNL     1       1.203   7.953  20.748  0.00  0.00    +0.000 C 
ATOM     18  O   UNL     1       0.468   7.087  21.213  0.00  0.00    +0.000 OA
ATOM     19  H   UNL     1       3.009   8.361  19.805  0.00  0.00    +0.000 HD
BRANCH  17  20
ATOM     20  C   UNL     1       0.932   9.376  20.909  0.00  0.00    +0.000 A 
ATOM     21  C   UNL     1       1.021  10.456  19.978  0.00  0.00    +0.000 A 
ATOM     22  C   UNL     1       0.579  11.586  20.631  0.00  0.00    +0.000 A 
ATOM     23  C   UNL     1       0.376  12.990  20.224  0.00  0.00    +0.000 C 
ATOM     24  O   UNL     1       0.254  11.286  21.914  0.00  0.00    +0.000 OA
ATOM     25  C   UNL     1       0.465   9.952  22.082  0.00  0.00    +0.000 A 
ATOM     26  C   UNL     1       0.143   9.409  23.421  0.00  0.00    +0.000 C 
ENDBRANCH  17  20
ENDBRANCH  15  16
ENDBRANCH  10  15
TORSDOF 5
ENDMDL
MODEL 9
REMARK VINA RESULT:      -7.0      3.904      7.277
REMARK  Name = 
REMARK  8 active torsions:
REMARK  status: ('A' for Active; 'I' for Inactive)
REMARK    1  A    between atoms: C_1  and  O_2
REMARK    2  A    between atoms: O_2  and  C_3
REMARK    3  A    between atoms: C_12  and  O_13
REMARK    4  A    between atoms: C_12  and  C_14
REMARK    5  A    between atoms: C_14  and  N_15
REMARK    6  A    between atoms: C_16  and  C_18
REMARK    7  A    between atoms: C_20  and  C_21
REMARK    8  A    between atoms: C_23  and  C_24
REMARK                            x       y       z     vdW  Elec       q    Type
REMARK                         _______ _______ _______ _____ _____    ______ ____
ROOT
ATOM      1  C   UNL     1      -3.683  10.804  17.563  0.00  0.00    +0.000 A 
ATOM      2  C   UNL     1      -2.683   9.945  17.112  0.00  0.00    +0.000 A 
ATOM      3  C   UNL     1      -1.379  10.076  17.592  0.00  0.00    +0.000 A 
ATOM      4  C   UNL     1      -1.041  11.068  18.531  0.00  0.00    +0.000 A 
ATOM      5  C   UNL     1      -2.056  11.925  19.002  0.00  0.00    +0.000 A 
ATOM      6  C   UNL     1      -3.362  11.788  18.500  0.00  0.00    +0.000 A 
ATOM      7  C   UNL     1      -1.775  13.038  19.983  0.00  0.00    +0.000 C 
ATOM      8  C   UNL     1      -0.438  12.893  20.703  0.00  0.00    +0.000 C 
ATOM      9  C   UNL     1       0.654  12.531  19.707  0.00  0.00    +0.000 C 
ATOM     10  C   UNL     1       0.390  11.160  19.054  0.00  0.00    +0.000 C 
ENDROOT
BRANCH   1  12
ATOM     11  C   UNL     1      -5.922  11.455  18.010  0.00  0.00    +0.000 C 
ATOM     12  O   UNL     1      -4.992  10.785  17.167  0.00  0.00    +0.000 OA
ENDBRANCH   1  12
BRANCH  10  13
ATOM     13  O   UNL     1       1.311  11.057  17.949  0.00  0.00    +0.000 OA
ATOM     14  H   UNL     1       1.884  10.293  18.141  0.00  0.00    +0.000 HD
ENDBRANCH  10  13
BRANCH  10  15
ATOM     15  C   UNL     1       0.672   9.977  20.020  0.00  0.00    +0.000 C 
BRANCH  15  16
ATOM     16  N   UNL     1       1.404   8.891  19.383  0.00  0.00    +0.000 N 
ATOM     17  C   UNL     1       1.782   7.766  20.078  0.00  0.00    +0.000 C 
ATOM     18  O   UNL     1       1.546   7.626  21.274  0.00  0.00    +0.000 OA
ATOM     19  H   UNL     1       1.443   8.905  18.373  0.00  0.00    +0.000 HD
BRANCH  17  20
ATOM     20  C   UNL     1       2.503   6.765  19.302  0.00  0.00    +0.000 A 
ATOM     21  C   UNL     1       3.264   6.886  18.098  0.00  0.00    +0.000 A 
ATOM     22  C   UNL     1       3.794   5.641  17.833  0.00  0.00    +0.000 A 
ATOM     23  C   UNL     1       4.698   5.114  16.791  0.00  0.00    +0.000 C 
ATOM     24  O   UNL     1       3.385   4.750  18.772  0.00  0.00    +0.000 OA
ATOM     25  C   UNL     1       2.607   5.428  19.659  0.00  0.00    +0.000 A 
ATOM     26  C   UNL     1       2.074   4.636  20.790  0.00  0.00    +0.000 C 
ENDBRANCH  17  20
ENDBRANCH  15  16
ENDBRANCH  10  15
TORSDOF 5
ENDMDL
