MODEL 1
REMARK VINA RESULT:      -8.7      0.000      0.000
REMARK  Name = 
REMARK  8 active torsions:
REMARK  status: ('A' for Active; 'I' for Inactive)
REMARK    1  A    between atoms: C_1  and  C_2
REMARK    2  A    between atoms: C_2  and  C_3
REMARK    3  A    between atoms: C_6  and  C_7
REMARK    4  A    between atoms: C_9  and  S_10
REMARK    5  A    between atoms: S_10  and  C_11
REMARK    6  A    between atoms: C_16  and  N_17
REMARK    7  A    between atoms: C_18  and  C_20
REMARK    8  A    between atoms: C_22  and  C_23
REMARK                            x       y       z     vdW  Elec       q    Type
REMARK                         _______ _______ _______ _____ _____    ______ ____
ROOT
ATOM      1  C   UNL     1       4.040   5.482  18.126  0.00  0.00    +0.000 A 
ATOM      2  C   UNL     1       4.989   4.836  17.315  0.00  0.00    +0.000 A 
ATOM      3  C   UNL     1       5.690   5.556  16.340  0.00  0.00    +0.000 A 
ATOM      4  C   UNL     1       5.464   6.920  16.163  0.00  0.00    +0.000 A 
ATOM      5  C   UNL     1       4.491   7.556  16.933  0.00  0.00    +0.000 A 
ATOM      6  C   UNL     1       3.768   6.849  17.907  0.00  0.00    +0.000 A 
ENDROOT
BRANCH   1  12
ATOM      7  C   UNL     1       0.877   2.395  19.639  0.00  0.00    +0.000 C 
ATOM      8  C   UNL     1       1.692   2.976  20.812  0.00  0.00    +0.000 C 
ATOM      9  C   UNL     1       1.154   2.357  22.115  0.00  0.00    +0.000 C 
ATOM     10  C   UNL     1       1.527   4.514  20.870  0.00  0.00    +0.000 C 
ATOM     11  C   UNL     1       2.317   5.244  19.821  0.00  0.00    +0.000 C 
ATOM     12  C   UNL     1       3.353   4.694  19.165  0.00  0.00    +0.000 C 
ATOM     13  C   UNL     1       3.856   3.300  19.442  0.00  0.00    +0.000 C 
ATOM     14  C   UNL     1       3.192   2.638  20.662  0.00  0.00    +0.000 C 
ENDBRANCH   1  12
BRANCH   3  15
ATOM     15  S   UNL     1       6.953   4.752  15.383  0.00  0.00    +0.000 S 
ATOM     16  C   UNL     1       6.062   3.590  14.388  0.00  0.00    +0.000 C 
ATOM     17  O   UNL     1       7.530   5.750  14.503  0.00  0.00    +0.000 OA
ATOM     18  O   UNL     1       7.789   4.008  16.303  0.00  0.00    +0.000 OA
ENDBRANCH   3  15
BRANCH   6  19
ATOM     19  N   UNL     1       2.806   7.527  18.686  0.00  0.00    +0.000 N 
ATOM     20  C   UNL     1       2.118   8.634  18.223  0.00  0.00    +0.000 C 
ATOM     21  O   UNL     1       2.227   9.096  17.091  0.00  0.00    +0.000 OA
ATOM     22  H   UNL     1       2.401   7.051  19.486  0.00  0.00    +0.000 HD
BRANCH  20  23
ATOM     23  C   UNL     1       1.175   9.201  19.169  0.00  0.00    +0.000 A 
ATOM     24  N   UNL     1       1.221   9.100  20.487  0.00  0.00    +0.000 NA
ATOM     25  C   UNL     1       0.163   9.862  20.941  0.00  0.00    +0.000 A 
ATOM     26  C   UNL     1      -0.551  10.396  19.892  0.00  0.00    +0.000 A 
ATOM     27  N   UNL     1       0.099   9.962  18.772  0.00  0.00    +0.000 N 
ATOM     28  H   UNL     1      -0.131  10.159  17.805  0.00  0.00    +0.000 HD
BRANCH  25  29
ATOM     29  C   UNL     1      -0.104  10.046  22.336  0.00  0.00    +0.000 C 
ATOM     30  N   UNL     1      -0.322  10.155  23.471  0.00  0.00    +0.000 NA
ENDBRANCH  25  29
ENDBRANCH  20  23
ENDBRANCH   6  19
TORSDOF 5
ENDMDL
MODEL 2
REMARK VINA RESULT:      -8.4      0.582      1.055
REMARK  Name = 
REMARK  8 active torsions:
REMARK  status: ('A' for Active; 'I' for Inactive)
REMARK    1  A    between atoms: C_1  and  C_2
REMARK    2  A    between atoms: C_2  and  C_3
REMARK    3  A    between atoms: C_6  and  C_7
REMARK    4  A    between atoms: C_9  and  S_10
REMARK    5  A    between atoms: S_10  and  C_11
REMARK    6  A    between atoms: C_16  and  N_17
REMARK    7  A    between atoms: C_18  and  C_20
REMARK    8  A    between atoms: C_22  and  C_23
REMARK                            x       y       z     vdW  Elec       q    Type
REMARK                         _______ _______ _______ _____ _____    ______ ____
ROOT
ATOM      1  C   UNL     1       3.700   5.445  17.919  0.00  0.00    +0.000 A 
ATOM      2  C   UNL     1       4.604   4.769  17.081  0.00  0.00    +0.000 A 
ATOM      3  C   UNL     1       5.320   5.472  16.104  0.00  0.00    +0.000 A 
ATOM      4  C   UNL     1       5.154   6.847  15.953  0.00  0.00    +0.000 A 
ATOM      5  C   UNL     1       4.225   7.514  16.750  0.00  0.00    +0.000 A 
ATOM      6  C   UNL     1       3.488   6.825  17.727  0.00  0.00    +0.000 A 
ENDROOT
BRANCH   1  12
ATOM      7  C   UNL     1       3.410   2.145  21.213  0.00  0.00    +0.000 C 
ATOM      8  C   UNL     1       2.062   2.873  21.035  0.00  0.00    +0.000 C 
ATOM      9  C   UNL     1       1.047   2.231  21.997  0.00  0.00    +0.000 C 
ATOM     10  C   UNL     1       1.557   2.719  19.580  0.00  0.00    +0.000 C 
ATOM     11  C   UNL     1       2.281   3.594  18.596  0.00  0.00    +0.000 C 
ATOM     12  C   UNL     1       2.996   4.672  18.959  0.00  0.00    +0.000 C 
ATOM     13  C   UNL     1       3.116   5.139  20.387  0.00  0.00    +0.000 C 
ATOM     14  C   UNL     1       2.200   4.377  21.361  0.00  0.00    +0.000 C 
ENDBRANCH   1  12
BRANCH   3  15
ATOM     15  S   UNL     1       6.527   4.626  15.112  0.00  0.00    +0.000 S 
ATOM     16  C   UNL     1       5.594   3.999  13.744  0.00  0.00    +0.000 C 
ATOM     17  O   UNL     1       7.449   5.625  14.607  0.00  0.00    +0.000 OA
ATOM     18  O   UNL     1       7.011   3.498  15.881  0.00  0.00    +0.000 OA
ENDBRANCH   3  15
BRANCH   6  19
ATOM     19  N   UNL     1       2.573   7.534  18.534  0.00  0.00    +0.000 N 
ATOM     20  C   UNL     1       2.024   8.746  18.152  0.00  0.00    +0.000 C 
ATOM     21  O   UNL     1       2.227   9.289  17.070  0.00  0.00    +0.000 OA
ATOM     22  H   UNL     1       2.088   7.038  19.275  0.00  0.00    +0.000 HD
BRANCH  20  23
ATOM     23  C   UNL     1       1.110   9.328  19.116  0.00  0.00    +0.000 A 
ATOM     24  N   UNL     1       1.165   9.205  20.432  0.00  0.00    +0.000 NA
ATOM     25  C   UNL     1       0.136   9.994  20.908  0.00  0.00    +0.000 A 
ATOM     26  C   UNL     1      -0.570  10.567  19.874  0.00  0.00    +0.000 A 
ATOM     27  N   UNL     1       0.055  10.130  18.741  0.00  0.00    +0.000 N 
ATOM     28  H   UNL     1      -0.177  10.349  17.780  0.00  0.00    +0.000 HD
BRANCH  25  29
ATOM     29  C   UNL     1      -0.111  10.164  22.308  0.00  0.00    +0.000 C 
ATOM     30  N   UNL     1      -0.351  10.292  23.437  0.00  0.00    +0.000 NA
ENDBRANCH  25  29
ENDBRANCH  20  23
ENDBRANCH   6  19
TORSDOF 5
ENDMDL
MODEL 3
REMARK VINA RESULT:      -8.3      3.372      7.126
REMARK  Name = 
REMARK  8 active torsions:
REMARK  status: ('A' for Active; 'I' for Inactive)
REMARK    1  A    between atoms: C_1  and  C_2
REMARK    2  A    between atoms: C_2  and  C_3
REMARK    3  A    between atoms: C_6  and  C_7
REMARK    4  A    between atoms: C_9  and  S_10
REMARK    5  A    between atoms: S_10  and  C_11
REMARK    6  A    between atoms: C_16  and  N_17
REMARK    7  A    between atoms: C_18  and  C_20
REMARK    8  A    between atoms: C_22  and  C_23
REMARK                            x       y       z     vdW  Elec       q    Type
REMARK                         _______ _______ _______ _____ _____    ______ ____
ROOT
ATOM      1  C   UNL     1       2.393   6.901  18.707  0.00  0.00    +0.000 A 
ATOM      2  C   UNL     1       1.624   7.659  19.607  0.00  0.00    +0.000 A 
ATOM      3  C   UNL     1       1.509   9.044  19.441  0.00  0.00    +0.000 A 
ATOM      4  C   UNL     1       2.145   9.690  18.382  0.00  0.00    +0.000 A 
ATOM      5  C   UNL     1       2.945   8.949  17.514  0.00  0.00    +0.000 A 
ATOM      6  C   UNL     1       3.085   7.561  17.671  0.00  0.00    +0.000 A 
ENDROOT
BRANCH   1  12
ATOM      7  C   UNL     1       1.014   2.856  20.597  0.00  0.00    +0.000 C 
ATOM      8  C   UNL     1       2.201   2.645  19.635  0.00  0.00    +0.000 C 
ATOM      9  C   UNL     1       2.561   1.148  19.648  0.00  0.00    +0.000 C 
ATOM     10  C   UNL     1       3.425   3.470  20.102  0.00  0.00    +0.000 C 
ATOM     11  C   UNL     1       3.309   4.938  19.806  0.00  0.00    +0.000 C 
ATOM     12  C   UNL     1       2.456   5.440  18.897  0.00  0.00    +0.000 C 
ATOM     13  C   UNL     1       1.553   4.578  18.052  0.00  0.00    +0.000 C 
ATOM     14  C   UNL     1       1.829   3.072  18.197  0.00  0.00    +0.000 C 
ENDBRANCH   1  12
BRANCH   3  15
ATOM     15  S   UNL     1       0.461   9.982  20.528  0.00  0.00    +0.000 S 
ATOM     16  C   UNL     1      -0.189   8.772  21.645  0.00  0.00    +0.000 C 
ATOM     17  O   UNL     1       1.314  10.880  21.283  0.00  0.00    +0.000 OA
ATOM     18  O   UNL     1      -0.637  10.498  19.736  0.00  0.00    +0.000 OA
ENDBRANCH   3  15
BRANCH   6  19
ATOM     19  N   UNL     1       3.884   6.836  16.761  0.00  0.00    +0.000 N 
ATOM     20  C   UNL     1       5.200   6.499  17.027  0.00  0.00    +0.000 C 
ATOM     21  O   UNL     1       5.776   6.739  18.084  0.00  0.00    +0.000 OA
ATOM     22  H   UNL     1       3.429   6.310  16.022  0.00  0.00    +0.000 HD
BRANCH  20  23
ATOM     23  C   UNL     1       5.863   5.761  15.969  0.00  0.00    +0.000 A 
ATOM     24  N   UNL     1       5.288   4.976  15.073  0.00  0.00    +0.000 NA
ATOM     25  C   UNL     1       6.314   4.568  14.245  0.00  0.00    +0.000 A 
ATOM     26  C   UNL     1       7.523   5.076  14.664  0.00  0.00    +0.000 A 
ATOM     27  N   UNL     1       7.222   5.827  15.765  0.00  0.00    +0.000 N 
ATOM     28  H   UNL     1       7.858   6.363  16.343  0.00  0.00    +0.000 HD
BRANCH  25  29
ATOM     29  C   UNL     1       6.089   3.731  13.104  0.00  0.00    +0.000 C 
ATOM     30  N   UNL     1       5.943   3.065  12.165  0.00  0.00    +0.000 NA
ENDBRANCH  25  29
ENDBRANCH  20  23
ENDBRANCH   6  19
TORSDOF 5
ENDMDL
MODEL 4
REMARK VINA RESULT:      -8.2      3.411      7.121
REMARK  Name = 
REMARK  8 active torsions:
REMARK  status: ('A' for Active; 'I' for Inactive)
REMARK    1  A    between atoms: C_1  and  C_2
REMARK    2  A    between atoms: C_2  and  C_3
REMARK    3  A    between atoms: C_6  and  C_7
REMARK    4  A    between atoms: C_9  and  S_10
REMARK    5  A    between atoms: S_10  and  C_11
REMARK    6  A    between atoms: C_16  and  N_17
REMARK    7  A    between atoms: C_18  and  C_20
REMARK    8  A    between atoms: C_22  and  C_23
REMARK                            x       y       z     vdW  Elec       q    Type
REMARK                         _______ _______ _______ _____ _____    ______ ____
ROOT
ATOM      1  C   UNL     1       2.799   6.507  19.275  0.00  0.00    +0.000 A 
ATOM      2  C   UNL     1       2.042   7.254  20.193  0.00  0.00    +0.000 A 
ATOM      3  C   UNL     1       1.519   8.500  19.827  0.00  0.00    +0.000 A 
ATOM      4  C   UNL     1       1.734   9.014  18.549  0.00  0.00    +0.000 A 
ATOM      5  C   UNL     1       2.524   8.299  17.650  0.00  0.00    +0.000 A 
ATOM      6  C   UNL     1       3.068   7.053  18.003  0.00  0.00    +0.000 A 
ENDROOT
BRANCH   1  12
ATOM      7  C   UNL     1       3.611   1.949  18.650  0.00  0.00    +0.000 C 
ATOM      8  C   UNL     1       4.079   2.411  20.045  0.00  0.00    +0.000 C 
ATOM      9  C   UNL     1       4.635   1.183  20.788  0.00  0.00    +0.000 C 
ATOM     10  C   UNL     1       2.890   2.998  20.843  0.00  0.00    +0.000 C 
ATOM     11  C   UNL     1       2.492   4.379  20.403  0.00  0.00    +0.000 C 
ATOM     12  C   UNL     1       3.298   5.183  19.690  0.00  0.00    +0.000 C 
ATOM     13  C   UNL     1       4.701   4.801  19.291  0.00  0.00    +0.000 C 
ATOM     14  C   UNL     1       5.183   3.486  19.928  0.00  0.00    +0.000 C 
ENDBRANCH   1  12
BRANCH   3  15
ATOM     15  S   UNL     1       0.486   9.395  20.962  0.00  0.00    +0.000 S 
ATOM     16  C   UNL     1      -0.422  10.510  19.928  0.00  0.00    +0.000 C 
ATOM     17  O   UNL     1      -0.451   8.448  21.535  0.00  0.00    +0.000 OA
ATOM     18  O   UNL     1       1.355  10.181  21.815  0.00  0.00    +0.000 OA
ENDBRANCH   3  15
BRANCH   6  19
ATOM     19  N   UNL     1       3.843   6.343  17.061  0.00  0.00    +0.000 N 
ATOM     20  C   UNL     1       5.174   6.635  16.818  0.00  0.00    +0.000 C 
ATOM     21  O   UNL     1       5.820   7.484  17.426  0.00  0.00    +0.000 OA
ATOM     22  H   UNL     1       3.522   5.432  16.751  0.00  0.00    +0.000 HD
BRANCH  20  23
ATOM     23  C   UNL     1       5.803   5.803  15.810  0.00  0.00    +0.000 A 
ATOM     24  N   UNL     1       5.190   5.035  14.925  0.00  0.00    +0.000 NA
ATOM     25  C   UNL     1       6.203   4.510  14.146  0.00  0.00    +0.000 A 
ATOM     26  C   UNL     1       7.437   4.932  14.585  0.00  0.00    +0.000 A 
ATOM     27  N   UNL     1       7.169   5.747  15.648  0.00  0.00    +0.000 N 
ATOM     28  H   UNL     1       7.830   6.250  16.227  0.00  0.00    +0.000 HD
BRANCH  25  29
ATOM     29  C   UNL     1       5.941   3.651  13.030  0.00  0.00    +0.000 C 
ATOM     30  N   UNL     1       5.730   2.988  12.101  0.00  0.00    +0.000 NA
ENDBRANCH  25  29
ENDBRANCH  20  23
ENDBRANCH   6  19
TORSDOF 5
ENDMDL
MODEL 5
REMARK VINA RESULT:      -8.2      0.767      1.197
REMARK  Name = 
REMARK  8 active torsions:
REMARK  status: ('A' for Active; 'I' for Inactive)
REMARK    1  A    between atoms: C_1  and  C_2
REMARK    2  A    between atoms: C_2  and  C_3
REMARK    3  A    between atoms: C_6  and  C_7
REMARK    4  A    between atoms: C_9  and  S_10
REMARK    5  A    between atoms: S_10  and  C_11
REMARK    6  A    between atoms: C_16  and  N_17
REMARK    7  A    between atoms: C_18  and  C_20
REMARK    8  A    between atoms: C_22  and  C_23
REMARK                            x       y       z     vdW  Elec       q    Type
REMARK                         _______ _______ _______ _____ _____    ______ ____
ROOT
ATOM      1  C   UNL     1       4.036   5.513  18.095  0.00  0.00    +0.000 A 
ATOM      2  C   UNL     1       4.992   4.858  17.301  0.00  0.00    +0.000 A 
ATOM      3  C   UNL     1       5.698   5.565  16.320  0.00  0.00    +0.000 A 
ATOM      4  C   UNL     1       5.469   6.925  16.120  0.00  0.00    +0.000 A 
ATOM      5  C   UNL     1       4.488   7.570  16.874  0.00  0.00    +0.000 A 
ATOM      6  C   UNL     1       3.761   6.875  17.854  0.00  0.00    +0.000 A 
ENDROOT
BRANCH   1  12
ATOM      7  C   UNL     1       0.837   2.479  19.641  0.00  0.00    +0.000 C 
ATOM      8  C   UNL     1       1.669   3.053  20.806  0.00  0.00    +0.000 C 
ATOM      9  C   UNL     1       1.131   2.446  22.114  0.00  0.00    +0.000 C 
ATOM     10  C   UNL     1       1.528   4.593  20.860  0.00  0.00    +0.000 C 
ATOM     11  C   UNL     1       2.321   5.307  19.803  0.00  0.00    +0.000 C 
ATOM     12  C   UNL     1       3.344   4.739  19.142  0.00  0.00    +0.000 C 
ATOM     13  C   UNL     1       3.828   3.339  19.420  0.00  0.00    +0.000 C 
ATOM     14  C   UNL     1       3.163   2.691  20.647  0.00  0.00    +0.000 C 
ENDBRANCH   1  12
BRANCH   3  15
ATOM     15  S   UNL     1       6.969   4.751  15.384  0.00  0.00    +0.000 S 
ATOM     16  C   UNL     1       6.085   3.602  14.367  0.00  0.00    +0.000 C 
ATOM     17  O   UNL     1       7.575   5.745  14.519  0.00  0.00    +0.000 OA
ATOM     18  O   UNL     1       7.780   3.993  16.317  0.00  0.00    +0.000 OA
ENDBRANCH   3  15
BRANCH   6  19
ATOM     19  N   UNL     1       2.792   7.562  18.615  0.00  0.00    +0.000 N 
ATOM     20  C   UNL     1       2.178   8.721  18.172  0.00  0.00    +0.000 C 
ATOM     21  O   UNL     1       2.366   9.227  17.070  0.00  0.00    +0.000 OA
ATOM     22  H   UNL     1       2.326   7.071  19.371  0.00  0.00    +0.000 HD
BRANCH  20  23
ATOM     23  C   UNL     1       1.215   9.288  19.096  0.00  0.00    +0.000 A 
ATOM     24  N   UNL     1       0.420  10.322  18.874  0.00  0.00    +0.000 NA
ATOM     25  C   UNL     1      -0.356  10.428  20.011  0.00  0.00    +0.000 A 
ATOM     26  C   UNL     1      -0.004   9.478  20.943  0.00  0.00    +0.000 A 
ATOM     27  N   UNL     1       1.001   8.766  20.351  0.00  0.00    +0.000 N 
ATOM     28  H   UNL     1       1.509   7.976  20.732  0.00  0.00    +0.000 HD
BRANCH  25  29
ATOM     29  C   UNL     1      -1.388  11.413  20.143  0.00  0.00    +0.000 C 
ATOM     30  N   UNL     1      -2.227  12.212  20.210  0.00  0.00    +0.000 NA
ENDBRANCH  25  29
ENDBRANCH  20  23
ENDBRANCH   6  19
TORSDOF 5
ENDMDL
MODEL 6
REMARK VINA RESULT:      -8.1      3.397      7.144
REMARK  Name = 
REMARK  8 active torsions:
REMARK  status: ('A' for Active; 'I' for Inactive)
REMARK    1  A    between atoms: C_1  and  C_2
REMARK    2  A    between atoms: C_2  and  C_3
REMARK    3  A    between atoms: C_6  and  C_7
REMARK    4  A    between atoms: C_9  and  S_10
REMARK    5  A    between atoms: S_10  and  C_11
REMARK    6  A    between atoms: C_16  and  N_17
REMARK    7  A    between atoms: C_18  and  C_20
REMARK    8  A    between atoms: C_22  and  C_23
REMARK                            x       y       z     vdW  Elec       q    Type
REMARK                         _______ _______ _______ _____ _____    ______ ____
ROOT
ATOM      1  C   UNL     1       2.345   6.935  18.753  0.00  0.00    +0.000 A 
ATOM      2  C   UNL     1       1.576   7.696  19.651  0.00  0.00    +0.000 A 
ATOM      3  C   UNL     1       1.477   9.083  19.494  0.00  0.00    +0.000 A 
ATOM      4  C   UNL     1       2.129   9.729  18.444  0.00  0.00    +0.000 A 
ATOM      5  C   UNL     1       2.929   8.985  17.578  0.00  0.00    +0.000 A 
ATOM      6  C   UNL     1       3.052   7.594  17.727  0.00  0.00    +0.000 A 
ENDROOT
BRANCH   1  12
ATOM      7  C   UNL     1       3.976   2.650  17.855  0.00  0.00    +0.000 C 
ATOM      8  C   UNL     1       2.841   2.606  18.899  0.00  0.00    +0.000 C 
ATOM      9  C   UNL     1       2.601   1.133  19.275  0.00  0.00    +0.000 C 
ATOM     10  C   UNL     1       1.542   3.201  18.306  0.00  0.00    +0.000 C 
ATOM     11  C   UNL     1       1.551   4.702  18.223  0.00  0.00    +0.000 C 
ATOM     12  C   UNL     1       2.391   5.472  18.934  0.00  0.00    +0.000 C 
ATOM     13  C   UNL     1       3.386   4.914  19.919  0.00  0.00    +0.000 C 
ATOM     14  C   UNL     1       3.226   3.404  20.165  0.00  0.00    +0.000 C 
ENDBRANCH   1  12
BRANCH   3  15
ATOM     15  S   UNL     1       0.430  10.024  20.578  0.00  0.00    +0.000 S 
ATOM     16  C   UNL     1      -0.249   8.813  21.676  0.00  0.00    +0.000 C 
ATOM     17  O   UNL     1       1.286  10.904  21.351  0.00  0.00    +0.000 OA
ATOM     18  O   UNL     1      -0.652  10.564  19.779  0.00  0.00    +0.000 OA
ENDBRANCH   3  15
BRANCH   6  19
ATOM     19  N   UNL     1       3.852   6.867  16.819  0.00  0.00    +0.000 N 
ATOM     20  C   UNL     1       5.164   6.520  17.092  0.00  0.00    +0.000 C 
ATOM     21  O   UNL     1       5.736   6.753  18.153  0.00  0.00    +0.000 OA
ATOM     22  H   UNL     1       3.398   6.346  16.076  0.00  0.00    +0.000 HD
BRANCH  20  23
ATOM     23  C   UNL     1       5.828   5.781  16.036  0.00  0.00    +0.000 A 
ATOM     24  N   UNL     1       5.253   5.000  15.136  0.00  0.00    +0.000 NA
ATOM     25  C   UNL     1       6.280   4.589  14.311  0.00  0.00    +0.000 A 
ATOM     26  C   UNL     1       7.490   5.092  14.734  0.00  0.00    +0.000 A 
ATOM     27  N   UNL     1       7.188   5.842  15.835  0.00  0.00    +0.000 N 
ATOM     28  H   UNL     1       7.824   6.376  16.417  0.00  0.00    +0.000 HD
BRANCH  25  29
ATOM     29  C   UNL     1       6.056   3.754  13.169  0.00  0.00    +0.000 C 
ATOM     30  N   UNL     1       5.900   3.101  12.221  0.00  0.00    +0.000 NA
ENDBRANCH  25  29
ENDBRANCH  20  23
ENDBRANCH   6  19
TORSDOF 5
ENDMDL
MODEL 7
REMARK VINA RESULT:      -8.0      3.322      7.074
REMARK  Name = 
REMARK  8 active torsions:
REMARK  status: ('A' for Active; 'I' for Inactive)
REMARK    1  A    between atoms: C_1  and  C_2
REMARK    2  A    between atoms: C_2  and  C_3
REMARK    3  A    between atoms: C_6  and  C_7
REMARK    4  A    between atoms: C_9  and  S_10
REMARK    5  A    between atoms: S_10  and  C_11
REMARK    6  A    between atoms: C_16  and  N_17
REMARK    7  A    between atoms: C_18  and  C_20
REMARK    8  A    between atoms: C_22  and  C_23
REMARK                            x       y       z     vdW  Elec       q    Type
REMARK                         _______ _______ _______ _____ _____    ______ ____
ROOT
ATOM      1  C   UNL     1       2.539   6.886  19.306  0.00  0.00    +0.000 A 
ATOM      2  C   UNL     1       1.760   7.700  20.146  0.00  0.00    +0.000 A 
ATOM      3  C   UNL     1       1.340   8.963  19.713  0.00  0.00    +0.000 A 
ATOM      4  C   UNL     1       1.679   9.428  18.443  0.00  0.00    +0.000 A 
ATOM      5  C   UNL     1       2.489   8.644  17.623  0.00  0.00    +0.000 A 
ATOM      6  C   UNL     1       2.932   7.380  18.045  0.00  0.00    +0.000 A 
ENDROOT
BRANCH   1  12
ATOM      7  C   UNL     1       2.663   2.221  19.079  0.00  0.00    +0.000 C 
ATOM      8  C   UNL     1       3.401   2.737  20.331  0.00  0.00    +0.000 C 
ATOM      9  C   UNL     1       3.910   1.515  21.117  0.00  0.00    +0.000 C 
ATOM     10  C   UNL     1       2.438   3.555  21.224  0.00  0.00    +0.000 C 
ATOM     11  C   UNL     1       2.151   4.932  20.695  0.00  0.00    +0.000 C 
ATOM     12  C   UNL     1       2.928   5.548  19.788  0.00  0.00    +0.000 C 
ATOM     13  C   UNL     1       4.190   4.937  19.235  0.00  0.00    +0.000 C 
ATOM     14  C   UNL     1       4.599   3.630  19.936  0.00  0.00    +0.000 C 
ENDBRANCH   1  12
BRANCH   3  15
ATOM     15  S   UNL     1       0.280   9.946  20.745  0.00  0.00    +0.000 S 
ATOM     16  C   UNL     1      -0.344   8.795  21.938  0.00  0.00    +0.000 C 
ATOM     17  O   UNL     1       1.119  10.904  21.439  0.00  0.00    +0.000 OA
ATOM     18  O   UNL     1      -0.831  10.393  19.929  0.00  0.00    +0.000 OA
ENDBRANCH   3  15
BRANCH   6  19
ATOM     19  N   UNL     1       3.732   6.601  17.181  0.00  0.00    +0.000 N 
ATOM     20  C   UNL     1       5.081   6.846  16.991  0.00  0.00    +0.000 C 
ATOM     21  O   UNL     1       5.720   7.710  17.585  0.00  0.00    +0.000 OA
ATOM     22  H   UNL     1       3.401   5.683  16.903  0.00  0.00    +0.000 HD
BRANCH  20  23
ATOM     23  C   UNL     1       5.735   5.946  16.060  0.00  0.00    +0.000 A 
ATOM     24  N   UNL     1       5.156   5.251  15.094  0.00  0.00    +0.000 NA
ATOM     25  C   UNL     1       6.194   4.613  14.443  0.00  0.00    +0.000 A 
ATOM     26  C   UNL     1       7.402   4.892  15.041  0.00  0.00    +0.000 A 
ATOM     27  N   UNL     1       7.095   5.734  16.071  0.00  0.00    +0.000 N 
ATOM     28  H   UNL     1       7.730   6.160  16.736  0.00  0.00    +0.000 HD
BRANCH  25  29
ATOM     29  C   UNL     1       5.981   3.787  13.292  0.00  0.00    +0.000 C 
ATOM     30  N   UNL     1       5.845   3.129  12.346  0.00  0.00    +0.000 NA
ENDBRANCH  25  29
ENDBRANCH  20  23
ENDBRANCH   6  19
TORSDOF 5
ENDMDL
MODEL 8
REMARK VINA RESULT:      -8.0      0.640      1.231
REMARK  Name = 
REMARK  8 active torsions:
REMARK  status: ('A' for Active; 'I' for Inactive)
REMARK    1  A    between atoms: C_1  and  C_2
REMARK    2  A    between atoms: C_2  and  C_3
REMARK    3  A    between atoms: C_6  and  C_7
REMARK    4  A    between atoms: C_9  and  S_10
REMARK    5  A    between atoms: S_10  and  C_11
REMARK    6  A    between atoms: C_16  and  N_17
REMARK    7  A    between atoms: C_18  and  C_20
REMARK    8  A    between atoms: C_22  and  C_23
REMARK                            x       y       z     vdW  Elec       q    Type
REMARK                         _______ _______ _______ _____ _____    ______ ____
ROOT
ATOM      1  C   UNL     1       3.920   5.229  17.713  0.00  0.00    +0.000 A 
ATOM      2  C   UNL     1       4.774   4.596  16.793  0.00  0.00    +0.000 A 
ATOM      3  C   UNL     1       5.473   5.352  15.844  0.00  0.00    +0.000 A 
ATOM      4  C   UNL     1       5.340   6.739  15.803  0.00  0.00    +0.000 A 
ATOM      5  C   UNL     1       4.461   7.367  16.683  0.00  0.00    +0.000 A 
ATOM      6  C   UNL     1       3.741   6.625  17.633  0.00  0.00    +0.000 A 
ENDROOT
BRANCH   1  12
ATOM      7  C   UNL     1       2.134   4.394  21.948  0.00  0.00    +0.000 C 
ATOM      8  C   UNL     1       1.975   3.168  21.026  0.00  0.00    +0.000 C 
ATOM      9  C   UNL     1       1.300   2.049  21.839  0.00  0.00    +0.000 C 
ATOM     10  C   UNL     1       3.361   2.681  20.537  0.00  0.00    +0.000 C 
ATOM     11  C   UNL     1       3.958   3.545  19.462  0.00  0.00    +0.000 C 
ATOM     12  C   UNL     1       3.233   4.397  18.718  0.00  0.00    +0.000 C 
ATOM     13  C   UNL     1       1.740   4.548  18.857  0.00  0.00    +0.000 C 
ATOM     14  C   UNL     1       1.103   3.511  19.798  0.00  0.00    +0.000 C 
ENDBRANCH   1  12
BRANCH   3  15
ATOM     15  S   UNL     1       6.618   4.555  14.745  0.00  0.00    +0.000 S 
ATOM     16  C   UNL     1       5.582   3.709  13.585  0.00  0.00    +0.000 C 
ATOM     17  O   UNL     1       7.334   5.597  14.034  0.00  0.00    +0.000 OA
ATOM     18  O   UNL     1       7.338   3.559  15.514  0.00  0.00    +0.000 OA
ENDBRANCH   3  15
BRANCH   6  19
ATOM     19  N   UNL     1       2.875   7.294  18.526  0.00  0.00    +0.000 N 
ATOM     20  C   UNL     1       2.196   8.449  18.182  0.00  0.00    +0.000 C 
ATOM     21  O   UNL     1       2.229   8.968  17.069  0.00  0.00    +0.000 OA
ATOM     22  H   UNL     1       2.520   6.790  19.332  0.00  0.00    +0.000 HD
BRANCH  20  23
ATOM     23  C   UNL     1       1.360   8.997  19.233  0.00  0.00    +0.000 A 
ATOM     24  N   UNL     1       1.461   8.755  20.529  0.00  0.00    +0.000 NA
ATOM     25  C   UNL     1       0.504   9.558  21.118  0.00  0.00    +0.000 A 
ATOM     26  C   UNL     1      -0.207  10.260  20.171  0.00  0.00    +0.000 A 
ATOM     27  N   UNL     1       0.343   9.888  18.977  0.00  0.00    +0.000 N 
ATOM     28  H   UNL     1       0.085  10.204  18.049  0.00  0.00    +0.000 HD
BRANCH  25  29
ATOM     29  C   UNL     1       0.326   9.619  22.538  0.00  0.00    +0.000 C 
ATOM     30  N   UNL     1       0.195   9.630  23.692  0.00  0.00    +0.000 NA
ENDBRANCH  25  29
ENDBRANCH  20  23
ENDBRANCH   6  19
TORSDOF 5
ENDMDL
MODEL 9
REMARK VINA RESULT:      -7.9      3.429      7.147
REMARK  Name = 
REMARK  8 active torsions:
REMARK  status: ('A' for Active; 'I' for Inactive)
REMARK    1  A    between atoms: C_1  and  C_2
REMARK    2  A    between atoms: C_2  and  C_3
REMARK    3  A    between atoms: C_6  and  C_7
REMARK    4  A    between atoms: C_9  and  S_10
REMARK    5  A    between atoms: S_10  and  C_11
REMARK    6  A    between atoms: C_16  and  N_17
REMARK    7  A    between atoms: C_18  and  C_20
REMARK    8  A    between atoms: C_22  and  C_23
REMARK                            x       y       z     vdW  Elec       q    Type
REMARK                         _______ _______ _______ _____ _____    ______ ____
ROOT
ATOM      1  C   UNL     1       2.256   7.136  18.732  0.00  0.00    +0.000 A 
ATOM      2  C   UNL     1       1.492   7.939  19.596  0.00  0.00    +0.000 A 
ATOM      3  C   UNL     1       1.422   9.322  19.395  0.00  0.00    +0.000 A 
ATOM      4  C   UNL     1       2.099   9.922  18.334  0.00  0.00    +0.000 A 
ATOM      5  C   UNL     1       2.895   9.137  17.502  0.00  0.00    +0.000 A 
ATOM      6  C   UNL     1       2.990   7.749  17.695  0.00  0.00    +0.000 A 
ENDROOT
BRANCH   1  12
ATOM      7  C   UNL     1       4.188   2.886  18.548  0.00  0.00    +0.000 C 
ATOM      8  C   UNL     1       2.771   2.827  19.155  0.00  0.00    +0.000 C 
ATOM      9  C   UNL     1       2.452   1.355  19.470  0.00  0.00    +0.000 C 
ATOM     10  C   UNL     1       1.732   3.372  18.147  0.00  0.00    +0.000 C 
ATOM     11  C   UNL     1       1.734   4.870  18.030  0.00  0.00    +0.000 C 
ATOM     12  C   UNL     1       2.272   5.679  18.959  0.00  0.00    +0.000 C 
ATOM     13  C   UNL     1       2.894   5.169  20.234  0.00  0.00    +0.000 C 
ATOM     14  C   UNL     1       2.694   3.660  20.455  0.00  0.00    +0.000 C 
ENDBRANCH   1  12
BRANCH   3  15
ATOM     15  S   UNL     1       0.380  10.317  20.435  0.00  0.00    +0.000 S 
ATOM     16  C   UNL     1       1.143  11.914  20.404  0.00  0.00    +0.000 C 
ATOM     17  O   UNL     1      -0.911  10.421  19.783  0.00  0.00    +0.000 OA
ATOM     18  O   UNL     1       0.486   9.795  21.783  0.00  0.00    +0.000 OA
ENDBRANCH   3  15
BRANCH   6  19
ATOM     19  N   UNL     1       3.786   6.979  16.821  0.00  0.00    +0.000 N 
ATOM     20  C   UNL     1       5.070   6.574  17.142  0.00  0.00    +0.000 C 
ATOM     21  O   UNL     1       5.614   6.788  18.222  0.00  0.00    +0.000 OA
ATOM     22  H   UNL     1       3.335   6.475  16.065  0.00  0.00    +0.000 HD
BRANCH  20  23
ATOM     23  C   UNL     1       5.735   5.797  16.114  0.00  0.00    +0.000 A 
ATOM     24  N   UNL     1       5.156   5.074  15.171  0.00  0.00    +0.000 NA
ATOM     25  C   UNL     1       6.195   4.593  14.400  0.00  0.00    +0.000 A 
ATOM     26  C   UNL     1       7.413   4.994  14.901  0.00  0.00    +0.000 A 
ATOM     27  N   UNL     1       7.106   5.753  15.995  0.00  0.00    +0.000 N 
ATOM     28  H   UNL     1       7.746   6.228  16.620  0.00  0.00    +0.000 HD
BRANCH  25  29
ATOM     29  C   UNL     1       5.975   3.791  13.233  0.00  0.00    +0.000 C 
ATOM     30  N   UNL     1       5.837   3.137  12.284  0.00  0.00    +0.000 NA
ENDBRANCH  25  29
ENDBRANCH  20  23
ENDBRANCH   6  19
TORSDOF 5
ENDMDL
