MODEL 1
REMARK VINA RESULT:      -8.6      0.000      0.000
REMARK  Name = 
REMARK  4 active torsions:
REMARK  status: ('A' for Active; 'I' for Inactive)
REMARK    1  A    between atoms: C_1  and  S_2
REMARK    2  A    between atoms: S_2  and  C_5
REMARK    3  A    between atoms: C_5  and  C_6
REMARK    4  A    between atoms: C_8  and  C_9
REMARK                            x       y       z     vdW  Elec       q    Type
REMARK                         _______ _______ _______ _____ _____    ______ ____
ROOT
ATOM      1  C   UNL     1       2.041   7.681  19.280  0.00  0.00    +0.000 A 
ATOM      2  C   UNL     1       2.502   8.120  18.036  0.00  0.00    +0.000 A 
ATOM      3  C   UNL     1       2.286   9.443  17.596  0.00  0.00    +0.000 A 
ATOM      4  C   UNL     1       1.576  10.318  18.437  0.00  0.00    +0.000 A 
ATOM      5  N   UNL     1       1.204  11.659  18.262  0.00  0.00    +0.000 N 
ATOM      6  C   UNL     1       0.487  12.085  19.354  0.00  0.00    +0.000 A 
ATOM      7  C   UNL     1      -0.109  13.255  19.683  0.00  0.00    +0.000 A 
ATOM      8  C   UNL     1      -0.814  13.440  20.883  0.00  0.00    +0.000 A 
ATOM      9  C   UNL     1      -0.916  12.325  21.707  0.00  0.00    +0.000 A 
ATOM     10  C   UNL     1      -0.271  11.127  21.377  0.00  0.00    +0.000 A 
ATOM     11  C   UNL     1       0.447  11.017  20.179  0.00  0.00    +0.000 A 
ATOM     12  C   UNL     1       1.102   9.898  19.691  0.00  0.00    +0.000 A 
ATOM     13  C   UNL     1       1.357   8.582  20.104  0.00  0.00    +0.000 A 
ATOM     14  C   UNL     1      -0.536  10.197  22.442  0.00  0.00    +0.000 C 
ATOM     15  O   UNL     1      -0.171   9.061  22.713  0.00  0.00    +0.000 OA
ATOM     16  N   UNL     1      -1.375  10.887  23.276  0.00  0.00    +0.000 N 
ATOM     17  C   UNL     1      -1.609  12.188  22.947  0.00  0.00    +0.000 C 
ATOM     18  O   UNL     1      -2.266  12.965  23.620  0.00  0.00    +0.000 OA
ATOM     19  C   UNL     1      -1.356  14.813  21.041  0.00  0.00    +0.000 C 
ATOM     20  C   UNL     1      -0.921  15.519  19.739  0.00  0.00    +0.000 C 
ATOM     21  C   UNL     1      -0.115  14.509  18.868  0.00  0.00    +0.000 C 
ATOM     22  H   UNL     1       1.419  12.211  17.443  0.00  0.00    +0.000 HD
ATOM     23  H   UNL     1      -1.712  10.484  24.131  0.00  0.00    +0.000 HD
ENDROOT
BRANCH   1  26
ATOM     24  C   UNL     1       3.176   4.322  19.891  0.00  0.00    +0.000 A 
ATOM     25  N   UNL     1       3.078   5.427  19.182  0.00  0.00    +0.000 NA
ATOM     26  C   UNL     1       2.176   6.312  19.771  0.00  0.00    +0.000 A 
ATOM     27  C   UNL     1       1.566   5.830  20.910  0.00  0.00    +0.000 A 
ATOM     28  S   UNL     1       2.160   4.262  21.278  0.00  0.00    +0.000 S 
BRANCH  24  29
ATOM     29  C   UNL     1       4.157   3.240  19.611  0.00  0.00    +0.000 C 
BRANCH  29  31
ATOM     30  C   UNL     1       1.855   2.429  18.182  0.00  0.00    +0.000 C 
ATOM     31  S   UNL     1       3.626   2.286  18.208  0.00  0.00    +0.000 S 
ATOM     32  O   UNL     1       3.959   0.890  18.425  0.00  0.00    +0.000 OA
ATOM     33  O   UNL     1       4.121   2.962  17.020  0.00  0.00    +0.000 OA
ENDBRANCH  29  31
ENDBRANCH  24  29
ENDBRANCH   1  26
TORSDOF 3
ENDMDL
MODEL 2
REMARK VINA RESULT:      -8.3      2.741      4.012
REMARK  Name = 
REMARK  4 active torsions:
REMARK  status: ('A' for Active; 'I' for Inactive)
REMARK    1  A    between atoms: C_1  and  S_2
REMARK    2  A    between atoms: S_2  and  C_5
REMARK    3  A    between atoms: C_5  and  C_6
REMARK    4  A    between atoms: C_8  and  C_9
REMARK                            x       y       z     vdW  Elec       q    Type
REMARK                         _______ _______ _______ _____ _____    ______ ____
ROOT
ATOM      1  C   UNL     1       2.082   6.822  19.372  0.00  0.00    +0.000 A 
ATOM      2  C   UNL     1       1.533   6.285  20.539  0.00  0.00    +0.000 A 
ATOM      3  C   UNL     1       0.844   7.093  21.468  0.00  0.00    +0.000 A 
ATOM      4  C   UNL     1       0.730   8.469  21.200  0.00  0.00    +0.000 A 
ATOM      5  N   UNL     1       0.127   9.501  21.934  0.00  0.00    +0.000 N 
ATOM      6  C   UNL     1       0.301  10.696  21.278  0.00  0.00    +0.000 A 
ATOM      7  C   UNL     1      -0.058  11.973  21.550  0.00  0.00    +0.000 A 
ATOM      8  C   UNL     1       0.260  13.049  20.708  0.00  0.00    +0.000 A 
ATOM      9  C   UNL     1       1.021  12.740  19.586  0.00  0.00    +0.000 A 
ATOM     10  C   UNL     1       1.362  11.414  19.292  0.00  0.00    +0.000 A 
ATOM     11  C   UNL     1       0.985  10.379  20.158  0.00  0.00    +0.000 A 
ATOM     12  C   UNL     1       1.276   9.030  20.033  0.00  0.00    +0.000 A 
ATOM     13  C   UNL     1       1.933   8.190  19.122  0.00  0.00    +0.000 A 
ATOM     14  C   UNL     1       2.103  11.431  18.060  0.00  0.00    +0.000 C 
ATOM     15  O   UNL     1       2.570  10.579  17.316  0.00  0.00    +0.000 OA
ATOM     16  N   UNL     1       2.211  12.763  17.763  0.00  0.00    +0.000 N 
ATOM     17  C   UNL     1       1.542  13.617  18.587  0.00  0.00    +0.000 C 
ATOM     18  O   UNL     1       1.466  14.823  18.422  0.00  0.00    +0.000 OA
ATOM     19  C   UNL     1      -0.261  14.351  21.194  0.00  0.00    +0.000 C 
ATOM     20  C   UNL     1      -0.964  13.980  22.518  0.00  0.00    +0.000 C 
ATOM     21  C   UNL     1      -0.831  12.443  22.741  0.00  0.00    +0.000 C 
ATOM     22  H   UNL     1      -0.343   9.374  22.819  0.00  0.00    +0.000 HD
ATOM     23  H   UNL     1       2.670  13.078  16.928  0.00  0.00    +0.000 HD
ENDROOT
BRANCH   1  26
ATOM     24  C   UNL     1       4.708   5.575  17.253  0.00  0.00    +0.000 A 
ATOM     25  N   UNL     1       4.107   6.500  17.971  0.00  0.00    +0.000 NA
ATOM     26  C   UNL     1       2.858   6.055  18.400  0.00  0.00    +0.000 A 
ATOM     27  C   UNL     1       2.515   4.797  17.951  0.00  0.00    +0.000 A 
ATOM     28  S   UNL     1       3.793   4.139  17.012  0.00  0.00    +0.000 S 
BRANCH  24  29
ATOM     29  C   UNL     1       6.110   5.682  16.768  0.00  0.00    +0.000 C 
BRANCH  29  31
ATOM     30  C   UNL     1       8.007   6.436  18.727  0.00  0.00    +0.000 C 
ATOM     31  S   UNL     1       7.226   5.022  17.985  0.00  0.00    +0.000 S 
ATOM     32  O   UNL     1       8.253   4.241  17.319  0.00  0.00    +0.000 OA
ATOM     33  O   UNL     1       6.412   4.400  19.017  0.00  0.00    +0.000 OA
ENDBRANCH  29  31
ENDBRANCH  24  29
ENDBRANCH   1  26
TORSDOF 3
ENDMDL
MODEL 3
REMARK VINA RESULT:      -8.0      3.068      8.940
REMARK  Name = 
REMARK  4 active torsions:
REMARK  status: ('A' for Active; 'I' for Inactive)
REMARK    1  A    between atoms: C_1  and  S_2
REMARK    2  A    between atoms: S_2  and  C_5
REMARK    3  A    between atoms: C_5  and  C_6
REMARK    4  A    between atoms: C_8  and  C_9
REMARK                            x       y       z     vdW  Elec       q    Type
REMARK                         _______ _______ _______ _____ _____    ______ ____
ROOT
ATOM      1  C   UNL     1       1.229   9.430  19.987  0.00  0.00    +0.000 A 
ATOM      2  C   UNL     1       1.558  10.299  18.943  0.00  0.00    +0.000 A 
ATOM      3  C   UNL     1       2.324   9.868  17.840  0.00  0.00    +0.000 A 
ATOM      4  C   UNL     1       2.768   8.533  17.816  0.00  0.00    +0.000 A 
ATOM      5  N   UNL     1       3.544   7.841  16.876  0.00  0.00    +0.000 N 
ATOM      6  C   UNL     1       3.747   6.552  17.305  0.00  0.00    +0.000 A 
ATOM      7  C   UNL     1       4.422   5.493  16.800  0.00  0.00    +0.000 A 
ATOM      8  C   UNL     1       4.496   4.253  17.453  0.00  0.00    +0.000 A 
ATOM      9  C   UNL     1       3.874   4.182  18.695  0.00  0.00    +0.000 A 
ATOM     10  C   UNL     1       3.149   5.270  19.198  0.00  0.00    +0.000 A 
ATOM     11  C   UNL     1       3.086   6.471  18.480  0.00  0.00    +0.000 A 
ATOM     12  C   UNL     1       2.451   7.643  18.855  0.00  0.00    +0.000 A 
ATOM     13  C   UNL     1       1.667   8.102  19.924  0.00  0.00    +0.000 A 
ATOM     14  C   UNL     1       2.601   4.863  20.464  0.00  0.00    +0.000 C 
ATOM     15  O   UNL     1       1.844   5.365  21.284  0.00  0.00    +0.000 OA
ATOM     16  N   UNL     1       3.104   3.602  20.647  0.00  0.00    +0.000 N 
ATOM     17  C   UNL     1       3.826   3.090  19.612  0.00  0.00    +0.000 C 
ATOM     18  O   UNL     1       4.277   1.957  19.576  0.00  0.00    +0.000 OA
ATOM     19  C   UNL     1       5.266   3.233  16.698  0.00  0.00    +0.000 C 
ATOM     20  C   UNL     1       5.720   3.996  15.435  0.00  0.00    +0.000 C 
ATOM     21  C   UNL     1       5.172   5.453  15.506  0.00  0.00    +0.000 C 
ATOM     22  H   UNL     1       3.909   8.246  16.025  0.00  0.00    +0.000 HD
ATOM     23  H   UNL     1       2.865   3.055  21.454  0.00  0.00    +0.000 HD
ENDROOT
BRANCH   1  26
ATOM     24  C   UNL     1      -0.581  11.290  22.478  0.00  0.00    +0.000 A 
ATOM     25  N   UNL     1       0.252  11.169  21.466  0.00  0.00    +0.000 NA
ATOM     26  C   UNL     1       0.493   9.825  21.185  0.00  0.00    +0.000 A 
ATOM     27  C   UNL     1      -0.140   8.942  22.035  0.00  0.00    +0.000 A 
ATOM     28  S   UNL     1      -1.088   9.803  23.178  0.00  0.00    +0.000 S 
BRANCH  24  29
ATOM     29  C   UNL     1      -1.151  12.587  22.932  0.00  0.00    +0.000 C 
BRANCH  29  31
ATOM     30  C   UNL     1      -3.085  14.550  22.294  0.00  0.00    +0.000 C 
ATOM     31  S   UNL     1      -2.787  12.798  22.268  0.00  0.00    +0.000 S 
ATOM     32  O   UNL     1      -3.748  12.167  23.153  0.00  0.00    +0.000 OA
ATOM     33  O   UNL     1      -2.734  12.400  20.871  0.00  0.00    +0.000 OA
ENDBRANCH  29  31
ENDBRANCH  24  29
ENDBRANCH   1  26
TORSDOF 3
ENDMDL
MODEL 4
REMARK VINA RESULT:      -7.8      3.059      9.002
REMARK  Name = 
REMARK  4 active torsions:
REMARK  status: ('A' for Active; 'I' for Inactive)
REMARK    1  A    between atoms: C_1  and  S_2
REMARK    2  A    between atoms: S_2  and  C_5
REMARK    3  A    between atoms: C_5  and  C_6
REMARK    4  A    between atoms: C_8  and  C_9
REMARK                            x       y       z     vdW  Elec       q    Type
REMARK                         _______ _______ _______ _____ _____    ______ ____
ROOT
ATOM      1  C   UNL     1       0.965   9.959  19.834  0.00  0.00    +0.000 A 
ATOM      2  C   UNL     1       1.423  10.762  18.786  0.00  0.00    +0.000 A 
ATOM      3  C   UNL     1       2.252  10.243  17.770  0.00  0.00    +0.000 A 
ATOM      4  C   UNL     1       2.624   8.889  17.839  0.00  0.00    +0.000 A 
ATOM      5  N   UNL     1       3.436   8.116  16.996  0.00  0.00    +0.000 N 
ATOM      6  C   UNL     1       3.534   6.839  17.494  0.00  0.00    +0.000 A 
ATOM      7  C   UNL     1       4.189   5.725  17.091  0.00  0.00    +0.000 A 
ATOM      8  C   UNL     1       4.143   4.515  17.799  0.00  0.00    +0.000 A 
ATOM      9  C   UNL     1       3.419   4.532  18.986  0.00  0.00    +0.000 A 
ATOM     10  C   UNL     1       2.715   5.677  19.382  0.00  0.00    +0.000 A 
ATOM     11  C   UNL     1       2.776   6.845  18.611  0.00  0.00    +0.000 A 
ATOM     12  C   UNL     1       2.176   8.063  18.884  0.00  0.00    +0.000 A 
ATOM     13  C   UNL     1       1.334   8.610  19.863  0.00  0.00    +0.000 A 
ATOM     14  C   UNL     1       2.045   5.356  20.613  0.00  0.00    +0.000 C 
ATOM     15  O   UNL     1       1.252   5.933  21.346  0.00  0.00    +0.000 OA
ATOM     16  N   UNL     1       2.463   4.082  20.890  0.00  0.00    +0.000 N 
ATOM     17  C   UNL     1       3.238   3.486  19.941  0.00  0.00    +0.000 C 
ATOM     18  O   UNL     1       3.629   2.332  19.989  0.00  0.00    +0.000 OA
ATOM     19  C   UNL     1       4.915   3.424  17.153  0.00  0.00    +0.000 C 
ATOM     20  C   UNL     1       5.511   4.104  15.902  0.00  0.00    +0.000 C 
ATOM     21  C   UNL     1       5.038   5.589  15.867  0.00  0.00    +0.000 C 
ATOM     22  H   UNL     1       3.890   8.462  16.162  0.00  0.00    +0.000 HD
ATOM     23  H   UNL     1       2.131   3.585  21.696  0.00  0.00    +0.000 HD
ENDROOT
BRANCH   1  26
ATOM     24  C   UNL     1      -1.448  11.702  21.856  0.00  0.00    +0.000 A 
ATOM     25  N   UNL     1      -0.677  11.554  20.800  0.00  0.00    +0.000 NA
ATOM     26  C   UNL     1       0.156  10.446  20.950  0.00  0.00    +0.000 A 
ATOM     27  C   UNL     1       0.027   9.794  22.158  0.00  0.00    +0.000 A 
ATOM     28  S   UNL     1      -1.187  10.550  23.107  0.00  0.00    +0.000 S 
BRANCH  24  29
ATOM     29  C   UNL     1      -2.545  12.701  21.949  0.00  0.00    +0.000 C 
BRANCH  29  31
ATOM     30  C   UNL     1      -2.729  15.446  22.610  0.00  0.00    +0.000 C 
ATOM     31  S   UNL     1      -2.193  13.873  23.239  0.00  0.00    +0.000 S 
ATOM     32  O   UNL     1      -0.758  13.939  23.446  0.00  0.00    +0.000 OA
ATOM     33  O   UNL     1      -3.062  13.549  24.359  0.00  0.00    +0.000 OA
ENDBRANCH  29  31
ENDBRANCH  24  29
ENDBRANCH   1  26
TORSDOF 3
ENDMDL
MODEL 5
REMARK VINA RESULT:      -7.8      2.489      3.885
REMARK  Name = 
REMARK  4 active torsions:
REMARK  status: ('A' for Active; 'I' for Inactive)
REMARK    1  A    between atoms: C_1  and  S_2
REMARK    2  A    between atoms: S_2  and  C_5
REMARK    3  A    between atoms: C_5  and  C_6
REMARK    4  A    between atoms: C_8  and  C_9
REMARK                            x       y       z     vdW  Elec       q    Type
REMARK                         _______ _______ _______ _____ _____    ______ ____
ROOT
ATOM      1  C   UNL     1       0.969   8.855  20.671  0.00  0.00    +0.000 A 
ATOM      2  C   UNL     1       0.229   8.295  21.716  0.00  0.00    +0.000 A 
ATOM      3  C   UNL     1      -0.538   9.097  22.587  0.00  0.00    +0.000 A 
ATOM      4  C   UNL     1      -0.533  10.490  22.389  0.00  0.00    +0.000 A 
ATOM      5  N   UNL     1      -1.175  11.519  23.093  0.00  0.00    +0.000 N 
ATOM      6  C   UNL     1      -0.841  12.733  22.541  0.00  0.00    +0.000 A 
ATOM      7  C   UNL     1      -1.162  14.014  22.837  0.00  0.00    +0.000 A 
ATOM      8  C   UNL     1      -0.666  15.110  22.114  0.00  0.00    +0.000 A 
ATOM      9  C   UNL     1       0.229  14.810  21.093  0.00  0.00    +0.000 A 
ATOM     10  C   UNL     1       0.532  13.482  20.770  0.00  0.00    +0.000 A 
ATOM     11  C   UNL     1      -0.024  12.430  21.510  0.00  0.00    +0.000 A 
ATOM     12  C   UNL     1       0.205  11.074  21.346  0.00  0.00    +0.000 A 
ATOM     13  C   UNL     1       0.936  10.241  20.486  0.00  0.00    +0.000 A 
ATOM     14  C   UNL     1       1.441  13.515  19.656  0.00  0.00    +0.000 C 
ATOM     15  O   UNL     1       1.959  12.674  18.934  0.00  0.00    +0.000 OA
ATOM     16  N   UNL     1       1.666  14.851  19.458  0.00  0.00    +0.000 N 
ATOM     17  C   UNL     1       0.936  15.702  20.231  0.00  0.00    +0.000 C 
ATOM     18  O   UNL     1       0.953  16.918  20.130  0.00  0.00    +0.000 OA
ATOM     19  C   UNL     1      -1.176  16.416  22.601  0.00  0.00    +0.000 C 
ATOM     20  C   UNL     1      -2.080  16.024  23.789  0.00  0.00    +0.000 C 
ATOM     21  C   UNL     1      -2.068  14.472  23.935  0.00  0.00    +0.000 C 
ATOM     22  H   UNL     1      -1.774  11.378  23.895  0.00  0.00    +0.000 HD
ATOM     23  H   UNL     1       2.257  15.177  18.716  0.00  0.00    +0.000 HD
ENDROOT
BRANCH   1  26
ATOM     24  C   UNL     1       2.785   6.215  19.034  0.00  0.00    +0.000 A 
ATOM     25  N   UNL     1       2.166   6.767  20.056  0.00  0.00    +0.000 NA
ATOM     26  C   UNL     1       1.831   8.090  19.773  0.00  0.00    +0.000 A 
ATOM     27  C   UNL     1       2.252   8.533  18.536  0.00  0.00    +0.000 A 
ATOM     28  S   UNL     1       3.041   7.262  17.694  0.00  0.00    +0.000 S 
BRANCH  24  29
ATOM     29  C   UNL     1       3.146   4.774  18.963  0.00  0.00    +0.000 C 
BRANCH  29  31
ATOM     30  C   UNL     1       2.337   2.188  18.148  0.00  0.00    +0.000 C 
ATOM     31  S   UNL     1       1.717   3.810  18.525  0.00  0.00    +0.000 S 
ATOM     32  O   UNL     1       1.124   4.355  17.318  0.00  0.00    +0.000 OA
ATOM     33  O   UNL     1       0.905   3.683  19.725  0.00  0.00    +0.000 OA
ENDBRANCH  29  31
ENDBRANCH  24  29
ENDBRANCH   1  26
TORSDOF 3
ENDMDL
MODEL 6
REMARK VINA RESULT:      -7.7      2.335      3.588
REMARK  Name = 
REMARK  4 active torsions:
REMARK  status: ('A' for Active; 'I' for Inactive)
REMARK    1  A    between atoms: C_1  and  S_2
REMARK    2  A    between atoms: S_2  and  C_5
REMARK    3  A    between atoms: C_5  and  C_6
REMARK    4  A    between atoms: C_8  and  C_9
REMARK                            x       y       z     vdW  Elec       q    Type
REMARK                         _______ _______ _______ _____ _____    ______ ____
ROOT
ATOM      1  C   UNL     1       1.418   8.409  20.197  0.00  0.00    +0.000 A 
ATOM      2  C   UNL     1       0.642   7.995  21.283  0.00  0.00    +0.000 A 
ATOM      3  C   UNL     1      -0.142   8.908  22.019  0.00  0.00    +0.000 A 
ATOM      4  C   UNL     1      -0.117  10.263  21.642  0.00  0.00    +0.000 A 
ATOM      5  N   UNL     1      -0.769  11.379  22.186  0.00  0.00    +0.000 N 
ATOM      6  C   UNL     1      -0.407  12.509  21.492  0.00  0.00    +0.000 A 
ATOM      7  C   UNL     1      -0.723  13.820  21.609  0.00  0.00    +0.000 A 
ATOM      8  C   UNL     1      -0.195  14.809  20.765  0.00  0.00    +0.000 A 
ATOM      9  C   UNL     1       0.726  14.373  19.819  0.00  0.00    +0.000 A 
ATOM     10  C   UNL     1       1.025  13.012  19.681  0.00  0.00    +0.000 A 
ATOM     11  C   UNL     1       0.437  12.069  20.534  0.00  0.00    +0.000 A 
ATOM     12  C   UNL     1       0.657  10.702  20.554  0.00  0.00    +0.000 A 
ATOM     13  C   UNL     1       1.405   9.760  19.833  0.00  0.00    +0.000 A 
ATOM     14  C   UNL     1       1.967  12.894  18.601  0.00  0.00    +0.000 C 
ATOM     15  O   UNL     1       2.498  11.963  18.009  0.00  0.00    +0.000 OA
ATOM     16  N   UNL     1       2.211  14.191  18.237  0.00  0.00    +0.000 N 
ATOM     17  C   UNL     1       1.467  15.140  18.870  0.00  0.00    +0.000 C 
ATOM     18  O   UNL     1       1.500  16.332  18.613  0.00  0.00    +0.000 OA
ATOM     19  C   UNL     1      -0.706  16.171  21.062  0.00  0.00    +0.000 C 
ATOM     20  C   UNL     1      -1.649  15.942  22.263  0.00  0.00    +0.000 C 
ATOM     21  C   UNL     1      -1.657  14.422  22.610  0.00  0.00    +0.000 C 
ATOM     22  H   UNL     1      -1.392  11.347  22.981  0.00  0.00    +0.000 HD
ATOM     23  H   UNL     1       2.827  14.415  17.477  0.00  0.00    +0.000 HD
ENDROOT
BRANCH   1  26
ATOM     24  C   UNL     1       3.135   5.541  18.866  0.00  0.00    +0.000 A 
ATOM     25  N   UNL     1       2.457   6.190  19.789  0.00  0.00    +0.000 NA
ATOM     26  C   UNL     1       2.298   7.528  19.433  0.00  0.00    +0.000 A 
ATOM     27  C   UNL     1       2.909   7.880  18.247  0.00  0.00    +0.000 A 
ATOM     28  S   UNL     1       3.658   6.505  17.542  0.00  0.00    +0.000 S 
BRANCH  24  29
ATOM     29  C   UNL     1       3.351   4.069  18.877  0.00  0.00    +0.000 C 
BRANCH  29  31
ATOM     30  C   UNL     1       0.899   2.896  19.663  0.00  0.00    +0.000 C 
ATOM     31  S   UNL     1       1.911   3.239  18.244  0.00  0.00    +0.000 S 
ATOM     32  O   UNL     1       2.309   1.971  17.659  0.00  0.00    +0.000 OA
ATOM     33  O   UNL     1       1.186   4.203  17.432  0.00  0.00    +0.000 OA
ENDBRANCH  29  31
ENDBRANCH  24  29
ENDBRANCH   1  26
TORSDOF 3
ENDMDL
MODEL 7
REMARK VINA RESULT:      -7.7      2.926      4.080
REMARK  Name = 
REMARK  4 active torsions:
REMARK  status: ('A' for Active; 'I' for Inactive)
REMARK    1  A    between atoms: C_1  and  S_2
REMARK    2  A    between atoms: S_2  and  C_5
REMARK    3  A    between atoms: C_5  and  C_6
REMARK    4  A    between atoms: C_8  and  C_9
REMARK                            x       y       z     vdW  Elec       q    Type
REMARK                         _______ _______ _______ _____ _____    ______ ____
ROOT
ATOM      1  C   UNL     1       1.764   7.693  19.682  0.00  0.00    +0.000 A 
ATOM      2  C   UNL     1       1.110   7.271  20.843  0.00  0.00    +0.000 A 
ATOM      3  C   UNL     1       0.464   8.187  21.699  0.00  0.00    +0.000 A 
ATOM      4  C   UNL     1       0.502   9.553  21.365  0.00  0.00    +0.000 A 
ATOM      5  N   UNL     1      -0.027  10.674  22.021  0.00  0.00    +0.000 N 
ATOM      6  C   UNL     1       0.296  11.812  21.324  0.00  0.00    +0.000 A 
ATOM      7  C   UNL     1       0.056  13.130  21.521  0.00  0.00    +0.000 A 
ATOM      8  C   UNL     1       0.519  14.127  20.649  0.00  0.00    +0.000 A 
ATOM      9  C   UNL     1       1.297  13.691  19.583  0.00  0.00    +0.000 A 
ATOM     10  C   UNL     1       1.515  12.324  19.365  0.00  0.00    +0.000 A 
ATOM     11  C   UNL     1       0.996  11.375  20.255  0.00  0.00    +0.000 A 
ATOM     12  C   UNL     1       1.155  10.000  20.204  0.00  0.00    +0.000 A 
ATOM     13  C   UNL     1       1.766   9.056  19.365  0.00  0.00    +0.000 A 
ATOM     14  C   UNL     1       2.311  12.209  18.173  0.00  0.00    +0.000 C 
ATOM     15  O   UNL     1       2.723  11.279  17.491  0.00  0.00    +0.000 OA
ATOM     16  N   UNL     1       2.566  13.508  17.823  0.00  0.00    +0.000 N 
ATOM     17  C   UNL     1       1.949  14.462  18.574  0.00  0.00    +0.000 C 
ATOM     18  O   UNL     1       2.002  15.661  18.352  0.00  0.00    +0.000 OA
ATOM     19  C   UNL     1       0.110  15.497  21.051  0.00  0.00    +0.000 C 
ATOM     20  C   UNL     1      -0.687  15.262  22.352  0.00  0.00    +0.000 C 
ATOM     21  C   UNL     1      -0.720  13.732  22.649  0.00  0.00    +0.000 C 
ATOM     22  H   UNL     1      -0.549  10.637  22.886  0.00  0.00    +0.000 HD
ATOM     23  H   UNL     1       3.093  13.735  17.000  0.00  0.00    +0.000 HD
ENDROOT
BRANCH   1  26
ATOM     24  C   UNL     1       4.107   6.346  17.308  0.00  0.00    +0.000 A 
ATOM     25  N   UNL     1       3.425   7.318  17.874  0.00  0.00    +0.000 NA
ATOM     26  C   UNL     1       2.503   6.807  18.786  0.00  0.00    +0.000 A 
ATOM     27  C   UNL     1       2.476   5.430  18.859  0.00  0.00    +0.000 A 
ATOM     28  S   UNL     1       3.652   4.762  17.802  0.00  0.00    +0.000 S 
BRANCH  24  29
ATOM     29  C   UNL     1       5.262   6.564  16.396  0.00  0.00    +0.000 C 
BRANCH  29  31
ATOM     30  C   UNL     1       7.227   4.551  16.697  0.00  0.00    +0.000 C 
ATOM     31  S   UNL     1       6.781   6.184  17.239  0.00  0.00    +0.000 S 
ATOM     32  O   UNL     1       6.535   6.130  18.668  0.00  0.00    +0.000 OA
ATOM     33  O   UNL     1       7.793   7.090  16.722  0.00  0.00    +0.000 OA
ENDBRANCH  29  31
ENDBRANCH  24  29
ENDBRANCH   1  26
TORSDOF 3
ENDMDL
MODEL 8
REMARK VINA RESULT:      -7.7      2.956      4.307
REMARK  Name = 
REMARK  4 active torsions:
REMARK  status: ('A' for Active; 'I' for Inactive)
REMARK    1  A    between atoms: C_1  and  S_2
REMARK    2  A    between atoms: S_2  and  C_5
REMARK    3  A    between atoms: C_5  and  C_6
REMARK    4  A    between atoms: C_8  and  C_9
REMARK                            x       y       z     vdW  Elec       q    Type
REMARK                         _______ _______ _______ _____ _____    ______ ____
ROOT
ATOM      1  C   UNL     1       2.567   6.163  18.996  0.00  0.00    +0.000 A 
ATOM      2  C   UNL     1       2.148   5.455  20.126  0.00  0.00    +0.000 A 
ATOM      3  C   UNL     1       1.400   6.075  21.148  0.00  0.00    +0.000 A 
ATOM      4  C   UNL     1       1.090   7.441  21.014  0.00  0.00    +0.000 A 
ATOM      5  N   UNL     1       0.388   8.310  21.860  0.00  0.00    +0.000 N 
ATOM      6  C   UNL     1       0.369   9.571  21.314  0.00  0.00    +0.000 A 
ATOM      7  C   UNL     1      -0.145  10.757  21.716  0.00  0.00    +0.000 A 
ATOM      8  C   UNL     1      -0.014  11.937  20.968  0.00  0.00    +0.000 A 
ATOM      9  C   UNL     1       0.731  11.836  19.798  0.00  0.00    +0.000 A 
ATOM     10  C   UNL     1       1.233  10.601  19.371  0.00  0.00    +0.000 A 
ATOM     11  C   UNL     1       1.038   9.452  20.147  0.00  0.00    +0.000 A 
ATOM     12  C   UNL     1       1.502   8.173  19.887  0.00  0.00    +0.000 A 
ATOM     13  C   UNL     1       2.225   7.515  18.881  0.00  0.00    +0.000 A 
ATOM     14  C   UNL     1       1.910  10.829  18.122  0.00  0.00    +0.000 C 
ATOM     15  O   UNL     1       2.452  10.118  17.286  0.00  0.00    +0.000 OA
ATOM     16  N   UNL     1       1.824  12.184  17.947  0.00  0.00    +0.000 N 
ATOM     17  C   UNL     1       1.084  12.861  18.869  0.00  0.00    +0.000 C 
ATOM     18  O   UNL     1       0.839  14.055  18.820  0.00  0.00    +0.000 OA
ATOM     19  C   UNL     1      -0.682  13.107  21.591  0.00  0.00    +0.000 C 
ATOM     20  C   UNL     1      -1.269  12.527  22.896  0.00  0.00    +0.000 C 
ATOM     21  C   UNL     1      -0.920  11.010  22.970  0.00  0.00    +0.000 C 
ATOM     22  H   UNL     1      -0.022   8.042  22.745  0.00  0.00    +0.000 HD
ATOM     23  H   UNL     1       2.198  12.632  17.131  0.00  0.00    +0.000 HD
ENDROOT
BRANCH   1  26
ATOM     24  C   UNL     1       4.965   5.707  16.353  0.00  0.00    +0.000 A 
ATOM     25  N   UNL     1       4.158   6.423  17.107  0.00  0.00    +0.000 NA
ATOM     26  C   UNL     1       3.395   5.599  17.933  0.00  0.00    +0.000 A 
ATOM     27  C   UNL     1       3.611   4.250  17.749  0.00  0.00    +0.000 A 
ATOM     28  S   UNL     1       4.822   4.005  16.557  0.00  0.00    +0.000 S 
BRANCH  24  29
ATOM     29  C   UNL     1       6.009   6.289  15.468  0.00  0.00    +0.000 C 
BRANCH  29  31
ATOM     30  C   UNL     1       6.162   3.873  14.005  0.00  0.00    +0.000 C 
ATOM     31  S   UNL     1       7.140   5.021  14.946  0.00  0.00    +0.000 S 
ATOM     32  O   UNL     1       7.650   4.325  16.112  0.00  0.00    +0.000 OA
ATOM     33  O   UNL     1       8.074   5.638  14.018  0.00  0.00    +0.000 OA
ENDBRANCH  29  31
ENDBRANCH  24  29
ENDBRANCH   1  26
TORSDOF 3
ENDMDL
MODEL 9
REMARK VINA RESULT:      -7.7      2.807      3.980
REMARK  Name = 
REMARK  4 active torsions:
REMARK  status: ('A' for Active; 'I' for Inactive)
REMARK    1  A    between atoms: C_1  and  S_2
REMARK    2  A    between atoms: S_2  and  C_5
REMARK    3  A    between atoms: C_5  and  C_6
REMARK    4  A    between atoms: C_8  and  C_9
REMARK                            x       y       z     vdW  Elec       q    Type
REMARK                         _______ _______ _______ _____ _____    ______ ____
ROOT
ATOM      1  C   UNL     1       1.873   7.086  19.658  0.00  0.00    +0.000 A 
ATOM      2  C   UNL     1       1.248   6.654  20.831  0.00  0.00    +0.000 A 
ATOM      3  C   UNL     1       0.578   7.555  21.684  0.00  0.00    +0.000 A 
ATOM      4  C   UNL     1       0.562   8.918  21.334  0.00  0.00    +0.000 A 
ATOM      5  N   UNL     1      -0.001  10.026  21.984  0.00  0.00    +0.000 N 
ATOM      6  C   UNL     1       0.272  11.167  21.269  0.00  0.00    +0.000 A 
ATOM      7  C   UNL     1      -0.015  12.477  21.454  0.00  0.00    +0.000 A 
ATOM      8  C   UNL     1       0.401  13.481  20.566  0.00  0.00    +0.000 A 
ATOM      9  C   UNL     1       1.182  13.060  19.495  0.00  0.00    +0.000 A 
ATOM     10  C   UNL     1       1.449  11.701  19.291  0.00  0.00    +0.000 A 
ATOM     11  C   UNL     1       0.975  10.744  20.198  0.00  0.00    +0.000 A 
ATOM     12  C   UNL     1       1.185   9.375  20.161  0.00  0.00    +0.000 A 
ATOM     13  C   UNL     1       1.821   8.444  19.326  0.00  0.00    +0.000 A 
ATOM     14  C   UNL     1       2.235  11.600  18.091  0.00  0.00    +0.000 C 
ATOM     15  O   UNL     1       2.674  10.679  17.415  0.00  0.00    +0.000 OA
ATOM     16  N   UNL     1       2.438  12.904  17.723  0.00  0.00    +0.000 N 
ATOM     17  C   UNL     1       1.794  13.843  18.470  0.00  0.00    +0.000 C 
ATOM     18  O   UNL     1       1.800  15.040  18.234  0.00  0.00    +0.000 OA
ATOM     19  C   UNL     1      -0.054  14.839  20.957  0.00  0.00    +0.000 C 
ATOM     20  C   UNL     1      -0.828  14.590  22.269  0.00  0.00    +0.000 C 
ATOM     21  C   UNL     1      -0.800  13.063  22.584  0.00  0.00    +0.000 C 
ATOM     22  H   UNL     1      -0.512   9.980  22.855  0.00  0.00    +0.000 HD
ATOM     23  H   UNL     1       2.946  13.140  16.891  0.00  0.00    +0.000 HD
ENDROOT
BRANCH   1  26
ATOM     24  C   UNL     1       4.521   5.393  17.907  0.00  0.00    +0.000 A 
ATOM     25  N   UNL     1       4.008   6.389  18.598  0.00  0.00    +0.000 NA
ATOM     26  C   UNL     1       2.635   6.217  18.764  0.00  0.00    +0.000 A 
ATOM     27  C   UNL     1       2.120   5.098  18.144  0.00  0.00    +0.000 A 
ATOM     28  S   UNL     1       3.380   4.219  17.378  0.00  0.00    +0.000 S 
BRANCH  24  29
ATOM     29  C   UNL     1       5.979   5.204  17.680  0.00  0.00    +0.000 C 
BRANCH  29  31
ATOM     30  C   UNL     1       6.536   4.236  15.081  0.00  0.00    +0.000 C 
ATOM     31  S   UNL     1       6.411   5.728  16.037  0.00  0.00    +0.000 S 
ATOM     32  O   UNL     1       7.720   6.355  16.064  0.00  0.00    +0.000 OA
ATOM     33  O   UNL     1       5.275   6.470  15.514  0.00  0.00    +0.000 OA
ENDBRANCH  29  31
ENDBRANCH  24  29
ENDBRANCH   1  26
TORSDOF 3
ENDMDL
