MODEL 1
REMARK VINA RESULT:      -8.7      0.000      0.000
REMARK  Name = 
REMARK  4 active torsions:
REMARK  status: ('A' for Active; 'I' for Inactive)
REMARK    1  A    between atoms: C_1  and  C_2
REMARK    2  A    between atoms: C_3  and  C_4
REMARK    3  A    between atoms: N_9  and  C_10
REMARK    4  A    between atoms: C_12  and  C_13
REMARK                            x       y       z     vdW  Elec       q    Type
REMARK                         _______ _______ _______ _____ _____    ______ ____
ROOT
ATOM      1  C   UNL     1       1.104  12.069  19.300  0.00  0.00    +0.000 C 
ATOM      2  C   UNL     1       0.805  10.799  20.015  0.00  0.00    +0.000 A 
ATOM      3  C   UNL     1       1.057   9.483  19.657  0.00  0.00    +0.000 A 
ATOM      4  C   UNL     1       0.522   8.731  20.730  0.00  0.00    +0.000 A 
ATOM      5  N   UNL     1      -0.073   9.481  21.649  0.00  0.00    +0.000 NA
ATOM      6  N   UNL     1       0.141  10.762  21.233  0.00  0.00    +0.000 N 
ATOM      7  C   UNL     1      -0.309  11.833  22.036  0.00  0.00    +0.000 A 
ATOM      8  N   UNL     1       0.061  13.067  21.878  0.00  0.00    +0.000 NA
ATOM      9  N   UNL     1      -0.575  13.913  22.715  0.00  0.00    +0.000 N 
ATOM     10  C   UNL     1      -0.252  15.220  22.966  0.00  0.00    +0.000 A 
ATOM     11  C   UNL     1      -1.225  15.750  23.787  0.00  0.00    +0.000 A 
ATOM     12  C   UNL     1      -2.175  14.729  24.037  0.00  0.00    +0.000 A 
ATOM     13  C   UNL     1      -1.690  13.597  23.433  0.00  0.00    +0.000 A 
ATOM     14  C   UNL     1      -2.146  12.245  23.397  0.00  0.00    +0.000 A 
ATOM     15  O   UNL     1      -3.298  11.890  23.628  0.00  0.00    +0.000 OA
ATOM     16  N   UNL     1      -1.167  11.378  23.011  0.00  0.00    +0.000 N 
ATOM     17  H   UNL     1      -0.598  11.192  23.829  0.00  0.00    +0.000 HD
ENDROOT
BRANCH   3  18
ATOM     18  C   UNL     1       1.792   9.014  18.495  0.00  0.00    +0.000 C 
ATOM     19  O   UNL     1       1.866   9.715  17.488  0.00  0.00    +0.000 OA
ATOM     20  N   UNL     1       2.458   7.794  18.584  0.00  0.00    +0.000 N 
ATOM     21  C   UNL     1       3.382   7.444  17.507  0.00  0.00    +0.000 C 
ATOM     22  C   UNL     1       4.568   6.621  18.036  0.00  0.00    +0.000 C 
ATOM     23  N   UNL     1       4.190   5.444  18.852  0.00  0.00    +0.000 NA
ATOM     24  C   UNL     1       3.245   5.856  19.913  0.00  0.00    +0.000 C 
ATOM     25  C   UNL     1       2.030   6.648  19.393  0.00  0.00    +0.000 C 
BRANCH  23  26
ATOM     26  C   UNL     1       3.682   4.318  18.042  0.00  0.00    +0.000 C 
ATOM     27  C   UNL     1       4.630   3.587  17.132  0.00  0.00    +0.000 C 
ATOM     28  C   UNL     1       4.130   2.914  18.386  0.00  0.00    +0.000 C 
BRANCH  28  29
ATOM     29  C   UNL     1       3.205   1.759  18.301  0.00  0.00    +0.000 C 
ATOM     30  F   UNL     1       2.482   1.776  17.157  0.00  0.00    +0.000 F 
ATOM     31  F   UNL     1       3.891   0.593  18.339  0.00  0.00    +0.000 F 
ATOM     32  F   UNL     1       2.337   1.762  19.337  0.00  0.00    +0.000 F 
ENDBRANCH  28  29
ENDBRANCH  23  26
ENDBRANCH   3  18
TORSDOF 3
ENDMDL
MODEL 2
REMARK VINA RESULT:      -8.6      1.927      2.241
REMARK  Name = 
REMARK  4 active torsions:
REMARK  status: ('A' for Active; 'I' for Inactive)
REMARK    1  A    between atoms: C_1  and  C_2
REMARK    2  A    between atoms: C_3  and  C_4
REMARK    3  A    between atoms: N_9  and  C_10
REMARK    4  A    between atoms: C_12  and  C_13
REMARK                            x       y       z     vdW  Elec       q    Type
REMARK                         _______ _______ _______ _____ _____    ______ ____
ROOT
ATOM      1  C   UNL     1      -1.360  10.455  18.160  0.00  0.00    +0.000 C 
ATOM      2  C   UNL     1      -0.368  10.628  19.256  0.00  0.00    +0.000 A 
ATOM      3  C   UNL     1       0.941  10.185  19.363  0.00  0.00    +0.000 A 
ATOM      4  C   UNL     1       1.350  10.642  20.639  0.00  0.00    +0.000 A 
ATOM      5  N   UNL     1       0.384  11.256  21.310  0.00  0.00    +0.000 NA
ATOM      6  N   UNL     1      -0.666  11.289  20.439  0.00  0.00    +0.000 N 
ATOM      7  C   UNL     1      -1.856  11.948  20.817  0.00  0.00    +0.000 A 
ATOM      8  N   UNL     1      -2.805  12.267  19.992  0.00  0.00    +0.000 NA
ATOM      9  N   UNL     1      -3.875  12.811  20.611  0.00  0.00    +0.000 N 
ATOM     10  C   UNL     1      -4.925  13.460  20.020  0.00  0.00    +0.000 A 
ATOM     11  C   UNL     1      -5.852  13.751  20.999  0.00  0.00    +0.000 A 
ATOM     12  C   UNL     1      -5.346  13.254  22.226  0.00  0.00    +0.000 A 
ATOM     13  C   UNL     1      -4.094  12.766  21.956  0.00  0.00    +0.000 A 
ATOM     14  C   UNL     1      -3.067  12.217  22.782  0.00  0.00    +0.000 A 
ATOM     15  O   UNL     1      -3.248  11.740  23.898  0.00  0.00    +0.000 OA
ATOM     16  N   UNL     1      -1.850  12.220  22.167  0.00  0.00    +0.000 N 
ATOM     17  H   UNL     1      -1.470  13.153  22.269  0.00  0.00    +0.000 HD
ENDROOT
BRANCH   3  18
ATOM     18  C   UNL     1       1.724   9.501  18.349  0.00  0.00    +0.000 C 
ATOM     19  O   UNL     1       2.023  10.079  17.306  0.00  0.00    +0.000 OA
ATOM     20  N   UNL     1       2.179   8.213  18.624  0.00  0.00    +0.000 N 
ATOM     21  C   UNL     1       3.156   7.627  17.709  0.00  0.00    +0.000 C 
ATOM     22  C   UNL     1       4.131   6.701  18.453  0.00  0.00    +0.000 C 
ATOM     23  N   UNL     1       3.483   5.678  19.307  0.00  0.00    +0.000 NA
ATOM     24  C   UNL     1       2.496   6.326  20.198  0.00  0.00    +0.000 C 
ATOM     25  C   UNL     1       1.487   7.228  19.462  0.00  0.00    +0.000 C 
BRANCH  23  26
ATOM     26  C   UNL     1       2.905   4.561  18.533  0.00  0.00    +0.000 C 
ATOM     27  C   UNL     1       3.575   4.132  17.256  0.00  0.00    +0.000 C 
ATOM     28  C   UNL     1       3.657   3.249  18.476  0.00  0.00    +0.000 C 
BRANCH  28  29
ATOM     29  C   UNL     1       2.951   1.945  18.507  0.00  0.00    +0.000 C 
ATOM     30  F   UNL     1       2.135   1.788  17.439  0.00  0.00    +0.000 F 
ATOM     31  F   UNL     1       3.836   0.922  18.506  0.00  0.00    +0.000 F 
ATOM     32  F   UNL     1       2.196   1.835  19.624  0.00  0.00    +0.000 F 
ENDBRANCH  28  29
ENDBRANCH  23  26
ENDBRANCH   3  18
TORSDOF 3
ENDMDL
MODEL 3
REMARK VINA RESULT:      -8.3      0.949      1.160
REMARK  Name = 
REMARK  4 active torsions:
REMARK  status: ('A' for Active; 'I' for Inactive)
REMARK    1  A    between atoms: C_1  and  C_2
REMARK    2  A    between atoms: C_3  and  C_4
REMARK    3  A    between atoms: N_9  and  C_10
REMARK    4  A    between atoms: C_12  and  C_13
REMARK                            x       y       z     vdW  Elec       q    Type
REMARK                         _______ _______ _______ _____ _____    ______ ____
ROOT
ATOM      1  C   UNL     1      -0.145  11.802  18.571  0.00  0.00    +0.000 C 
ATOM      2  C   UNL     1       0.271  10.872  19.656  0.00  0.00    +0.000 A 
ATOM      3  C   UNL     1       1.045   9.722  19.607  0.00  0.00    +0.000 A 
ATOM      4  C   UNL     1       1.066   9.272  20.949  0.00  0.00    +0.000 A 
ATOM      5  N   UNL     1       0.328  10.015  21.763  0.00  0.00    +0.000 NA
ATOM      6  N   UNL     1      -0.128  11.031  20.975  0.00  0.00    +0.000 N 
ATOM      7  C   UNL     1      -0.902  12.060  21.554  0.00  0.00    +0.000 A 
ATOM      8  N   UNL     1      -1.163  13.191  20.973  0.00  0.00    +0.000 NA
ATOM      9  N   UNL     1      -1.994  13.970  21.696  0.00  0.00    +0.000 N 
ATOM     10  C   UNL     1      -2.272  15.294  21.485  0.00  0.00    +0.000 A 
ATOM     11  C   UNL     1      -3.257  15.670  22.374  0.00  0.00    +0.000 A 
ATOM     12  C   UNL     1      -3.590  14.531  23.149  0.00  0.00    +0.000 A 
ATOM     13  C   UNL     1      -2.729  13.537  22.759  0.00  0.00    +0.000 A 
ATOM     14  C   UNL     1      -2.517  12.202  23.219  0.00  0.00    +0.000 A 
ATOM     15  O   UNL     1      -3.335  11.543  23.854  0.00  0.00    +0.000 OA
ATOM     16  N   UNL     1      -1.313  11.702  22.818  0.00  0.00    +0.000 N 
ATOM     17  H   UNL     1      -0.616  12.061  23.459  0.00  0.00    +0.000 HD
ENDROOT
BRANCH   3  18
ATOM     18  C   UNL     1       1.744   9.181  18.455  0.00  0.00    +0.000 C 
ATOM     19  O   UNL     1       1.837   9.843  17.423  0.00  0.00    +0.000 OA
ATOM     20  N   UNL     1       2.359   7.937  18.580  0.00  0.00    +0.000 N 
ATOM     21  C   UNL     1       3.254   7.510  17.508  0.00  0.00    +0.000 C 
ATOM     22  C   UNL     1       4.410   6.656  18.053  0.00  0.00    +0.000 C 
ATOM     23  N   UNL     1       3.993   5.526  18.914  0.00  0.00    +0.000 NA
ATOM     24  C   UNL     1       3.078   6.015  19.969  0.00  0.00    +0.000 C 
ATOM     25  C   UNL     1       1.892   6.840  19.434  0.00  0.00    +0.000 C 
BRANCH  23  26
ATOM     26  C   UNL     1       3.427   4.395  18.150  0.00  0.00    +0.000 C 
ATOM     27  C   UNL     1       4.261   3.748  17.079  0.00  0.00    +0.000 C 
ATOM     28  C   UNL     1       3.999   3.011  18.369  0.00  0.00    +0.000 C 
BRANCH  28  29
ATOM     29  C   UNL     1       3.137   1.805  18.383  0.00  0.00    +0.000 C 
ATOM     30  F   UNL     1       3.865   0.665  18.378  0.00  0.00    +0.000 F 
ATOM     31  F   UNL     1       2.353   1.791  19.485  0.00  0.00    +0.000 F 
ATOM     32  F   UNL     1       2.327   1.783  17.300  0.00  0.00    +0.000 F 
ENDBRANCH  28  29
ENDBRANCH  23  26
ENDBRANCH   3  18
TORSDOF 3
ENDMDL
MODEL 4
REMARK VINA RESULT:      -8.1      5.098     10.005
REMARK  Name = 
REMARK  4 active torsions:
REMARK  status: ('A' for Active; 'I' for Inactive)
REMARK    1  A    between atoms: C_1  and  C_2
REMARK    2  A    between atoms: C_3  and  C_4
REMARK    3  A    between atoms: N_9  and  C_10
REMARK    4  A    between atoms: C_12  and  C_13
REMARK                            x       y       z     vdW  Elec       q    Type
REMARK                         _______ _______ _______ _____ _____    ______ ____
ROOT
ATOM      1  C   UNL     1       1.296   7.406  21.152  0.00  0.00    +0.000 C 
ATOM      2  C   UNL     1       1.632   7.967  19.815  0.00  0.00    +0.000 A 
ATOM      3  C   UNL     1       1.353   9.208  19.263  0.00  0.00    +0.000 A 
ATOM      4  C   UNL     1       1.909   9.134  17.964  0.00  0.00    +0.000 A 
ATOM      5  N   UNL     1       2.432   7.947  17.684  0.00  0.00    +0.000 NA
ATOM      6  N   UNL     1       2.303   7.238  18.843  0.00  0.00    +0.000 N 
ATOM      7  C   UNL     1       2.831   5.931  18.915  0.00  0.00    +0.000 A 
ATOM      8  N   UNL     1       3.000   5.273  20.021  0.00  0.00    +0.000 NA
ATOM      9  N   UNL     1       3.438   4.013  19.817  0.00  0.00    +0.000 N 
ATOM     10  C   UNL     1       3.932   3.151  20.760  0.00  0.00    +0.000 A 
ATOM     11  C   UNL     1       4.151   1.933  20.152  0.00  0.00    +0.000 A 
ATOM     12  C   UNL     1       3.771   2.061  18.792  0.00  0.00    +0.000 A 
ATOM     13  C   UNL     1       3.424   3.375  18.612  0.00  0.00    +0.000 A 
ATOM     14  C   UNL     1       3.037   4.129  17.463  0.00  0.00    +0.000 A 
ATOM     15  O   UNL     1       2.589   3.644  16.429  0.00  0.00    +0.000 OA
ATOM     16  N   UNL     1       3.159   5.472  17.659  0.00  0.00    +0.000 N 
ATOM     17  H   UNL     1       4.134   5.704  17.515  0.00  0.00    +0.000 HD
ENDROOT
BRANCH   3  18
ATOM     18  C   UNL     1       0.725  10.341  19.920  0.00  0.00    +0.000 C 
ATOM     19  O   UNL     1       1.314  10.936  20.820  0.00  0.00    +0.000 OA
ATOM     20  N   UNL     1      -0.518  10.767  19.455  0.00  0.00    +0.000 N 
ATOM     21  C   UNL     1      -1.030  12.040  19.956  0.00  0.00    +0.000 C 
ATOM     22  C   UNL     1      -1.863  12.766  18.886  0.00  0.00    +0.000 C 
ATOM     23  N   UNL     1      -2.926  11.942  18.266  0.00  0.00    +0.000 NA
ATOM     24  C   UNL     1      -2.352  10.663  17.793  0.00  0.00    +0.000 C 
ATOM     25  C   UNL     1      -1.547   9.905  18.866  0.00  0.00    +0.000 C 
BRANCH  23  26
ATOM     26  C   UNL     1      -4.097  11.750  19.146  0.00  0.00    +0.000 C 
ATOM     27  C   UNL     1      -4.663  12.936  19.877  0.00  0.00    +0.000 C 
ATOM     28  C   UNL     1      -5.427  12.334  18.724  0.00  0.00    +0.000 C 
BRANCH  28  29
ATOM     29  C   UNL     1      -6.703  11.617  18.961  0.00  0.00    +0.000 C 
ATOM     30  F   UNL     1      -7.776  12.379  18.645  0.00  0.00    +0.000 F 
ATOM     31  F   UNL     1      -6.763  10.489  18.217  0.00  0.00    +0.000 F 
ATOM     32  F   UNL     1      -6.818  11.261  20.261  0.00  0.00    +0.000 F 
ENDBRANCH  28  29
ENDBRANCH  23  26
ENDBRANCH   3  18
TORSDOF 3
ENDMDL
MODEL 5
REMARK VINA RESULT:      -8.0      2.153      2.589
REMARK  Name = 
REMARK  4 active torsions:
REMARK  status: ('A' for Active; 'I' for Inactive)
REMARK    1  A    between atoms: C_1  and  C_2
REMARK    2  A    between atoms: C_3  and  C_4
REMARK    3  A    between atoms: N_9  and  C_10
REMARK    4  A    between atoms: C_12  and  C_13
REMARK                            x       y       z     vdW  Elec       q    Type
REMARK                         _______ _______ _______ _____ _____    ______ ____
ROOT
ATOM      1  C   UNL     1      -1.526  10.461  18.280  0.00  0.00    +0.000 C 
ATOM      2  C   UNL     1      -0.524  10.705  19.353  0.00  0.00    +0.000 A 
ATOM      3  C   UNL     1       0.798  10.302  19.458  0.00  0.00    +0.000 A 
ATOM      4  C   UNL     1       1.213  10.823  20.707  0.00  0.00    +0.000 A 
ATOM      5  N   UNL     1       0.240  11.438  21.367  0.00  0.00    +0.000 NA
ATOM      6  N   UNL     1      -0.823  11.407  20.512  0.00  0.00    +0.000 N 
ATOM      7  C   UNL     1      -2.025  12.048  20.881  0.00  0.00    +0.000 A 
ATOM      8  N   UNL     1      -2.995  12.308  20.058  0.00  0.00    +0.000 NA
ATOM      9  N   UNL     1      -4.069  12.847  20.671  0.00  0.00    +0.000 N 
ATOM     10  C   UNL     1      -5.146  13.443  20.071  0.00  0.00    +0.000 A 
ATOM     11  C   UNL     1      -6.066  13.749  21.051  0.00  0.00    +0.000 A 
ATOM     12  C   UNL     1      -5.529  13.317  22.290  0.00  0.00    +0.000 A 
ATOM     13  C   UNL     1      -4.268  12.852  22.020  0.00  0.00    +0.000 A 
ATOM     14  C   UNL     1      -3.214  12.366  22.852  0.00  0.00    +0.000 A 
ATOM     15  O   UNL     1      -3.366  11.930  23.989  0.00  0.00    +0.000 OA
ATOM     16  N   UNL     1      -2.007  12.376  22.218  0.00  0.00    +0.000 N 
ATOM     17  H   UNL     1      -1.651  13.323  22.276  0.00  0.00    +0.000 HD
ENDROOT
BRANCH   3  18
ATOM     18  C   UNL     1       1.585   9.598  18.461  0.00  0.00    +0.000 C 
ATOM     19  O   UNL     1       1.870  10.149  17.399  0.00  0.00    +0.000 OA
ATOM     20  N   UNL     1       2.058   8.325  18.772  0.00  0.00    +0.000 N 
ATOM     21  C   UNL     1       3.039   7.725  17.870  0.00  0.00    +0.000 C 
ATOM     22  C   UNL     1       4.030   6.835  18.636  0.00  0.00    +0.000 C 
ATOM     23  N   UNL     1       3.401   5.830  19.524  0.00  0.00    +0.000 NA
ATOM     24  C   UNL     1       2.410   6.492  20.401  0.00  0.00    +0.000 C 
ATOM     25  C   UNL     1       1.385   7.357  19.643  0.00  0.00    +0.000 C 
BRANCH  23  26
ATOM     26  C   UNL     1       2.834   4.682  18.788  0.00  0.00    +0.000 C 
ATOM     27  C   UNL     1       3.701   3.482  18.526  0.00  0.00    +0.000 C 
ATOM     28  C   UNL     1       2.584   3.391  19.536  0.00  0.00    +0.000 C 
BRANCH  28  29
ATOM     29  C   UNL     1       1.392   2.551  19.263  0.00  0.00    +0.000 C 
ATOM     30  F   UNL     1       1.705   1.236  19.204  0.00  0.00    +0.000 F 
ATOM     31  F   UNL     1       0.462   2.712  20.232  0.00  0.00    +0.000 F 
ATOM     32  F   UNL     1       0.824   2.894  18.085  0.00  0.00    +0.000 F 
ENDBRANCH  28  29
ENDBRANCH  23  26
ENDBRANCH   3  18
TORSDOF 3
ENDMDL
MODEL 6
REMARK VINA RESULT:      -8.0      2.902      3.745
REMARK  Name = 
REMARK  4 active torsions:
REMARK  status: ('A' for Active; 'I' for Inactive)
REMARK    1  A    between atoms: C_1  and  C_2
REMARK    2  A    between atoms: C_3  and  C_4
REMARK    3  A    between atoms: N_9  and  C_10
REMARK    4  A    between atoms: C_12  and  C_13
REMARK                            x       y       z     vdW  Elec       q    Type
REMARK                         _______ _______ _______ _____ _____    ______ ____
ROOT
ATOM      1  C   UNL     1       1.195   8.916  22.128  0.00  0.00    +0.000 C 
ATOM      2  C   UNL     1       1.276   9.098  20.653  0.00  0.00    +0.000 A 
ATOM      3  C   UNL     1       1.678   8.218  19.658  0.00  0.00    +0.000 A 
ATOM      4  C   UNL     1       1.556   8.975  18.468  0.00  0.00    +0.000 A 
ATOM      5  N   UNL     1       1.180  10.230  18.681  0.00  0.00    +0.000 NA
ATOM      6  N   UNL     1       0.962  10.295  20.026  0.00  0.00    +0.000 N 
ATOM      7  C   UNL     1       0.475  11.495  20.589  0.00  0.00    +0.000 A 
ATOM      8  N   UNL     1      -0.011  11.592  21.788  0.00  0.00    +0.000 NA
ATOM      9  N   UNL     1      -0.328  12.861  22.122  0.00  0.00    +0.000 N 
ATOM     10  C   UNL     1      -1.067  13.267  23.201  0.00  0.00    +0.000 A 
ATOM     11  C   UNL     1      -1.051  14.646  23.233  0.00  0.00    +0.000 A 
ATOM     12  C   UNL     1      -0.270  15.090  22.136  0.00  0.00    +0.000 A 
ATOM     13  C   UNL     1       0.078  13.965  21.433  0.00  0.00    +0.000 A 
ATOM     14  C   UNL     1       0.783  13.766  20.207  0.00  0.00    +0.000 A 
ATOM     15  O   UNL     1       1.543  14.583  19.699  0.00  0.00    +0.000 OA
ATOM     16  N   UNL     1       0.568  12.526  19.682  0.00  0.00    +0.000 N 
ATOM     17  H   UNL     1      -0.321  12.562  19.196  0.00  0.00    +0.000 HD
ENDROOT
BRANCH   3  18
ATOM     18  C   UNL     1       2.039   6.820  19.814  0.00  0.00    +0.000 C 
ATOM     19  O   UNL     1       1.494   6.135  20.678  0.00  0.00    +0.000 OA
ATOM     20  N   UNL     1       2.956   6.272  18.920  0.00  0.00    +0.000 N 
ATOM     21  C   UNL     1       3.132   4.821  18.932  0.00  0.00    +0.000 C 
ATOM     22  C   UNL     1       3.449   4.287  17.525  0.00  0.00    +0.000 C 
ATOM     23  N   UNL     1       4.563   4.979  16.837  0.00  0.00    +0.000 NA
ATOM     24  C   UNL     1       4.338   6.441  16.871  0.00  0.00    +0.000 C 
ATOM     25  C   UNL     1       4.057   6.997  18.280  0.00  0.00    +0.000 C 
BRANCH  23  26
ATOM     26  C   UNL     1       5.892   4.595  17.357  0.00  0.00    +0.000 C 
ATOM     27  C   UNL     1       7.090   4.713  16.457  0.00  0.00    +0.000 C 
ATOM     28  C   UNL     1       6.918   5.680  17.601  0.00  0.00    +0.000 C 
BRANCH  28  29
ATOM     29  C   UNL     1       7.835   5.637  18.765  0.00  0.00    +0.000 C 
ATOM     30  F   UNL     1       7.162   5.506  19.932  0.00  0.00    +0.000 F 
ATOM     31  F   UNL     1       8.690   4.594  18.662  0.00  0.00    +0.000 F 
ATOM     32  F   UNL     1       8.571   6.769  18.838  0.00  0.00    +0.000 F 
ENDBRANCH  28  29
ENDBRANCH  23  26
ENDBRANCH   3  18
TORSDOF 3
ENDMDL
MODEL 7
REMARK VINA RESULT:      -8.0      5.136      9.932
REMARK  Name = 
REMARK  4 active torsions:
REMARK  status: ('A' for Active; 'I' for Inactive)
REMARK    1  A    between atoms: C_1  and  C_2
REMARK    2  A    between atoms: C_3  and  C_4
REMARK    3  A    between atoms: N_9  and  C_10
REMARK    4  A    between atoms: C_12  and  C_13
REMARK                            x       y       z     vdW  Elec       q    Type
REMARK                         _______ _______ _______ _____ _____    ______ ____
ROOT
ATOM      1  C   UNL     1       0.695   8.217  21.582  0.00  0.00    +0.000 C 
ATOM      2  C   UNL     1       1.281   8.608  20.270  0.00  0.00    +0.000 A 
ATOM      3  C   UNL     1       1.372   9.850  19.659  0.00  0.00    +0.000 A 
ATOM      4  C   UNL     1       2.008   9.574  18.425  0.00  0.00    +0.000 A 
ATOM      5  N   UNL     1       2.241   8.282  18.233  0.00  0.00    +0.000 NA
ATOM      6  N   UNL     1       1.834   7.688  19.392  0.00  0.00    +0.000 N 
ATOM      7  C   UNL     1       2.010   6.296  19.553  0.00  0.00    +0.000 A 
ATOM      8  N   UNL     1       1.908   5.675  20.688  0.00  0.00    +0.000 NA
ATOM      9  N   UNL     1       2.034   4.337  20.564  0.00  0.00    +0.000 N 
ATOM     10  C   UNL     1       2.210   3.431  21.575  0.00  0.00    +0.000 A 
ATOM     11  C   UNL     1       2.173   2.166  21.026  0.00  0.00    +0.000 A 
ATOM     12  C   UNL     1       1.962   2.313  19.632  0.00  0.00    +0.000 A 
ATOM     13  C   UNL     1       1.972   3.661  19.382  0.00  0.00    +0.000 A 
ATOM     14  C   UNL     1       1.891   4.426  18.179  0.00  0.00    +0.000 A 
ATOM     15  O   UNL     1       1.433   4.013  17.118  0.00  0.00    +0.000 OA
ATOM     16  N   UNL     1       2.326   5.707  18.349  0.00  0.00    +0.000 N 
ATOM     17  H   UNL     1       3.338   5.684  18.298  0.00  0.00    +0.000 HD
ENDROOT
BRANCH   3  18
ATOM     18  C   UNL     1       0.988  11.134  20.218  0.00  0.00    +0.000 C 
ATOM     19  O   UNL     1       1.821  11.826  20.800  0.00  0.00    +0.000 OA
ATOM     20  N   UNL     1      -0.315  11.581  20.012  0.00  0.00    +0.000 N 
ATOM     21  C   UNL     1      -0.623  12.965  20.365  0.00  0.00    +0.000 C 
ATOM     22  C   UNL     1      -1.683  13.558  19.423  0.00  0.00    +0.000 C 
ATOM     23  N   UNL     1      -2.906  12.736  19.272  0.00  0.00    +0.000 NA
ATOM     24  C   UNL     1      -2.532  11.346  18.930  0.00  0.00    +0.000 C 
ATOM     25  C   UNL     1      -1.498  10.724  19.889  0.00  0.00    +0.000 C 
BRANCH  23  26
ATOM     26  C   UNL     1      -3.803  12.813  20.442  0.00  0.00    +0.000 C 
ATOM     27  C   UNL     1      -4.336  14.154  20.867  0.00  0.00    +0.000 C 
ATOM     28  C   UNL     1      -5.261  13.153  20.219  0.00  0.00    +0.000 C 
BRANCH  28  29
ATOM     29  C   UNL     1      -6.340  12.509  21.007  0.00  0.00    +0.000 C 
ATOM     30  F   UNL     1      -6.128  12.622  22.339  0.00  0.00    +0.000 F 
ATOM     31  F   UNL     1      -7.537  13.074  20.729  0.00  0.00    +0.000 F 
ATOM     32  F   UNL     1      -6.427  11.192  20.713  0.00  0.00    +0.000 F 
ENDBRANCH  28  29
ENDBRANCH  23  26
ENDBRANCH   3  18
TORSDOF 3
ENDMDL
MODEL 8
REMARK VINA RESULT:      -7.9      5.233     10.147
REMARK  Name = 
REMARK  4 active torsions:
REMARK  status: ('A' for Active; 'I' for Inactive)
REMARK    1  A    between atoms: C_1  and  C_2
REMARK    2  A    between atoms: C_3  and  C_4
REMARK    3  A    between atoms: N_9  and  C_10
REMARK    4  A    between atoms: C_12  and  C_13
REMARK                            x       y       z     vdW  Elec       q    Type
REMARK                         _______ _______ _______ _____ _____    ______ ____
ROOT
ATOM      1  C   UNL     1       2.107   8.949  17.343  0.00  0.00    +0.000 C 
ATOM      2  C   UNL     1       1.897   8.460  18.733  0.00  0.00    +0.000 A 
ATOM      3  C   UNL     1       1.088   8.950  19.746  0.00  0.00    +0.000 A 
ATOM      4  C   UNL     1       1.336   8.075  20.831  0.00  0.00    +0.000 A 
ATOM      5  N   UNL     1       2.258   7.159  20.565  0.00  0.00    +0.000 NA
ATOM      6  N   UNL     1       2.573   7.366  19.253  0.00  0.00    +0.000 N 
ATOM      7  C   UNL     1       3.491   6.501  18.619  0.00  0.00    +0.000 A 
ATOM      8  N   UNL     1       3.665   6.438  17.335  0.00  0.00    +0.000 NA
ATOM      9  N   UNL     1       4.660   5.597  16.983  0.00  0.00    +0.000 N 
ATOM     10  C   UNL     1       4.936   5.130  15.726  0.00  0.00    +0.000 A 
ATOM     11  C   UNL     1       6.101   4.394  15.790  0.00  0.00    +0.000 A 
ATOM     12  C   UNL     1       6.549   4.422  17.135  0.00  0.00    +0.000 A 
ATOM     13  C   UNL     1       5.588   5.094  17.846  0.00  0.00    +0.000 A 
ATOM     14  C   UNL     1       5.428   5.376  19.236  0.00  0.00    +0.000 A 
ATOM     15  O   UNL     1       6.337   5.363  20.060  0.00  0.00    +0.000 OA
ATOM     16  N   UNL     1       4.149   5.729  19.550  0.00  0.00    +0.000 N 
ATOM     17  H   UNL     1       3.619   4.870  19.636  0.00  0.00    +0.000 HD
ENDROOT
BRANCH   3  18
ATOM     18  C   UNL     1       0.139  10.046  19.661  0.00  0.00    +0.000 C 
ATOM     19  O   UNL     1      -1.064   9.814  19.558  0.00  0.00    +0.000 OA
ATOM     20  N   UNL     1       0.622  11.348  19.772  0.00  0.00    +0.000 N 
ATOM     21  C   UNL     1      -0.353  12.425  19.925  0.00  0.00    +0.000 C 
ATOM     22  C   UNL     1       0.201  13.559  20.803  0.00  0.00    +0.000 C 
ATOM     23  N   UNL     1       1.531  14.066  20.393  0.00  0.00    +0.000 NA
ATOM     24  C   UNL     1       2.469  12.932  20.240  0.00  0.00    +0.000 C 
ATOM     25  C   UNL     1       1.944  11.805  19.330  0.00  0.00    +0.000 C 
BRANCH  23  26
ATOM     26  C   UNL     1       1.477  14.927  19.194  0.00  0.00    +0.000 C 
ATOM     27  C   UNL     1       0.994  16.344  19.334  0.00  0.00    +0.000 C 
ATOM     28  C   UNL     1       2.456  16.075  19.080  0.00  0.00    +0.000 C 
BRANCH  28  29
ATOM     29  C   UNL     1       3.074  16.446  17.783  0.00  0.00    +0.000 C 
ATOM     30  F   UNL     1       3.294  15.363  17.002  0.00  0.00    +0.000 F 
ATOM     31  F   UNL     1       2.273  17.294  17.098  0.00  0.00    +0.000 F 
ATOM     32  F   UNL     1       4.261  17.064  17.977  0.00  0.00    +0.000 F 
ENDBRANCH  28  29
ENDBRANCH  23  26
ENDBRANCH   3  18
TORSDOF 3
ENDMDL
MODEL 9
REMARK VINA RESULT:      -7.8      5.284      9.879
REMARK  Name = 
REMARK  4 active torsions:
REMARK  status: ('A' for Active; 'I' for Inactive)
REMARK    1  A    between atoms: C_1  and  C_2
REMARK    2  A    between atoms: C_3  and  C_4
REMARK    3  A    between atoms: N_9  and  C_10
REMARK    4  A    between atoms: C_12  and  C_13
REMARK                            x       y       z     vdW  Elec       q    Type
REMARK                         _______ _______ _______ _____ _____    ______ ____
ROOT
ATOM      1  C   UNL     1       2.593   9.636  18.194  0.00  0.00    +0.000 C 
ATOM      2  C   UNL     1       2.071   8.715  19.240  0.00  0.00    +0.000 A 
ATOM      3  C   UNL     1       1.200   8.951  20.293  0.00  0.00    +0.000 A 
ATOM      4  C   UNL     1       1.107   7.697  20.942  0.00  0.00    +0.000 A 
ATOM      5  N   UNL     1       1.889   6.769  20.405  0.00  0.00    +0.000 NA
ATOM      6  N   UNL     1       2.450   7.384  19.324  0.00  0.00    +0.000 N 
ATOM      7  C   UNL     1       3.298   6.643  18.472  0.00  0.00    +0.000 A 
ATOM      8  N   UNL     1       3.671   7.037  17.293  0.00  0.00    +0.000 NA
ATOM      9  N   UNL     1       4.551   6.193  16.714  0.00  0.00    +0.000 N 
ATOM     10  C   UNL     1       4.950   6.192  15.405  0.00  0.00    +0.000 A 
ATOM     11  C   UNL     1       5.942   5.245  15.262  0.00  0.00    +0.000 A 
ATOM     12  C   UNL     1       6.156   4.655  16.533  0.00  0.00    +0.000 A 
ATOM     13  C   UNL     1       5.220   5.204  17.372  0.00  0.00    +0.000 A 
ATOM     14  C   UNL     1       4.880   4.961  18.738  0.00  0.00    +0.000 A 
ATOM     15  O   UNL     1       5.621   4.430  19.558  0.00  0.00    +0.000 OA
ATOM     16  N   UNL     1       3.647   5.447  19.058  0.00  0.00    +0.000 N 
ATOM     17  H   UNL     1       2.969   4.764  18.741  0.00  0.00    +0.000 HD
ENDROOT
BRANCH   3  18
ATOM     18  C   UNL     1       0.482  10.180  20.583  0.00  0.00    +0.000 C 
ATOM     19  O   UNL     1       0.895  10.944  21.453  0.00  0.00    +0.000 OA
ATOM     20  N   UNL     1      -0.630  10.494  19.806  0.00  0.00    +0.000 N 
ATOM     21  C   UNL     1      -1.199  11.833  19.943  0.00  0.00    +0.000 C 
ATOM     22  C   UNL     1      -1.782  12.330  18.610  0.00  0.00    +0.000 C 
ATOM     23  N   UNL     1      -2.721  11.389  17.956  0.00  0.00    +0.000 NA
ATOM     24  C   UNL     1      -2.098  10.050  17.859  0.00  0.00    +0.000 C 
ATOM     25  C   UNL     1      -1.543   9.522  19.196  0.00  0.00    +0.000 C 
BRANCH  23  26
ATOM     26  C   UNL     1      -4.049  11.354  18.603  0.00  0.00    +0.000 C 
ATOM     27  C   UNL     1      -4.487  12.527  19.435  0.00  0.00    +0.000 C 
ATOM     28  C   UNL     1      -5.131  12.280  18.093  0.00  0.00    +0.000 C 
BRANCH  28  29
ATOM     29  C   UNL     1      -6.548  11.851  18.008  0.00  0.00    +0.000 C 
ATOM     30  F   UNL     1      -6.663  10.503  17.957  0.00  0.00    +0.000 F 
ATOM     31  F   UNL     1      -7.244  12.285  19.083  0.00  0.00    +0.000 F 
ATOM     32  F   UNL     1      -7.137  12.358  16.902  0.00  0.00    +0.000 F 
ENDBRANCH  28  29
ENDBRANCH  23  26
ENDBRANCH   3  18
TORSDOF 3
ENDMDL
