MODEL 1
REMARK VINA RESULT:      -6.9      0.000      0.000
REMARK  Name = 
REMARK  18 active torsions:
REMARK  status: ('A' for Active; 'I' for Inactive)
REMARK    1  A    between atoms: C_1  and  C_2
REMARK    2  A    between atoms: C_2  and  C_3
REMARK    3  A    between atoms: C_3  and  C_4
REMARK    4  A    between atoms: C_4  and  C_5
REMARK    5  A    between atoms: C_5  and  C_6
REMARK    6  A    between atoms: C_6  and  C_7
REMARK    7  A    between atoms: C_7  and  C_8
REMARK    8  A    between atoms: C_8  and  C_9
REMARK    9  A    between atoms: C_9  and  C_10
REMARK   10  A    between atoms: C_10  and  C_11
REMARK   11  A    between atoms: C_11  and  C_12
REMARK   12  A    between atoms: C_12  and  O_13
REMARK   13  A    between atoms: O_13  and  C_14
REMARK   14  A    between atoms: C_18  and  C_19
REMARK   15  A    between atoms: C_19  and  C_21
REMARK   16  A    between atoms: C_22  and  C_23
REMARK   17  A    between atoms: C_23  and  O_25
REMARK   18  A    between atoms: N_26  and  C_27
REMARK                            x       y       z     vdW  Elec       q    Type
REMARK                         _______ _______ _______ _____ _____    ______ ____
ROOT
ATOM      1  C   UNL     1       2.924   6.360  19.463  0.00  0.00    +0.000 A 
ATOM      2  C   UNL     1       3.761   6.261  18.355  0.00  0.00    +0.000 A 
ATOM      3  C   UNL     1       3.751   7.303  17.451  0.00  0.00    +0.000 A 
ATOM      4  C   UNL     1       2.882   8.401  17.665  0.00  0.00    +0.000 A 
ATOM      5  C   UNL     1       1.965   8.556  18.783  0.00  0.00    +0.000 A 
ATOM      6  C   UNL     1       2.032   7.483  19.668  0.00  0.00    +0.000 A 
ENDROOT
BRANCH   5   7
ATOM      7  C   UNL     1       0.989   9.800  18.858  0.00  0.00    +0.000 C 
ATOM      8  O   UNL     1       1.120  10.428  17.810  0.00  0.00    +0.000 OA
BRANCH   7   9
ATOM      9  C   UNL     1       0.035  10.470  19.977  0.00  0.00    +0.000 A 
ATOM     10  C   UNL     1       0.861  11.056  20.954  0.00  0.00    +0.000 A 
ATOM     11  N   UNL     1       0.225  10.498  22.089  0.00  0.00    +0.000 N 
ATOM     12  C   UNL     1      -0.054   9.090  22.437  0.00  0.00    +0.000 C 
ATOM     13  C   UNL     1      -0.929  11.233  22.083  0.00  0.00    +0.000 A 
ATOM     14  C   UNL     1      -1.631  11.726  23.195  0.00  0.00    +0.000 A 
ATOM     15  C   UNL     1      -2.667  12.582  22.933  0.00  0.00    +0.000 A 
ATOM     16  C   UNL     1      -2.949  12.857  21.596  0.00  0.00    +0.000 A 
ATOM     17  C   UNL     1      -2.275  12.207  20.460  0.00  0.00    +0.000 A 
ATOM     18  C   UNL     1      -1.198  11.279  20.669  0.00  0.00    +0.000 A 
BRANCH  10  19
ATOM     19  C   UNL     1       1.264  12.478  20.630  0.00  0.00    +0.000 C 
ATOM     20  O   UNL     1       1.340  13.367  21.479  0.00  0.00    +0.000 OA
BRANCH  19  21
ATOM     21  O   UNL     1       1.750  12.698  19.384  0.00  0.00    +0.000 OA
ATOM     22  H   UNL     1       1.168  12.378  18.687  0.00  0.00    +0.000 HD
ENDBRANCH  19  21
ENDBRANCH  10  19
ENDBRANCH   7   9
ENDBRANCH   5   7
BRANCH   1  23
ATOM     23  O   UNL     1       3.077   5.285  20.295  0.00  0.00    +0.000 OA
BRANCH  23  24
ATOM     24  C   UNL     1       1.989   4.998  21.140  0.00  0.00    +0.000 C 
BRANCH  24  25
ATOM     25  C   UNL     1       2.126   3.608  21.742  0.00  0.00    +0.000 C 
BRANCH  25  26
ATOM     26  C   UNL     1       2.159   2.613  20.594  0.00  0.00    +0.000 C 
BRANCH  26  27
ATOM     27  C   UNL     1       0.964   2.757  19.675  0.00  0.00    +0.000 C 
BRANCH  27  28
ATOM     28  C   UNL     1       1.303   2.185  18.304  0.00  0.00    +0.000 C 
BRANCH  28  29
ATOM     29  C   UNL     1       2.300   3.081  17.589  0.00  0.00    +0.000 C 
BRANCH  29  30
ATOM     30  C   UNL     1       3.673   2.425  17.556  0.00  0.00    +0.000 C 
BRANCH  30  31
ATOM     31  C   UNL     1       4.763   3.486  17.524  0.00  0.00    +0.000 C 
BRANCH  31  32
ATOM     32  C   UNL     1       5.114   3.849  16.088  0.00  0.00    +0.000 C 
BRANCH  32  33
ATOM     33  C   UNL     1       6.513   4.448  16.018  0.00  0.00    +0.000 C 
BRANCH  33  35
ATOM     34  C   UNL     1       7.402   6.252  17.510  0.00  0.00    +0.000 C 
ATOM     35  C   UNL     1       7.032   4.783  17.412  0.00  0.00    +0.000 C 
ENDBRANCH  33  35
ENDBRANCH  32  33
ENDBRANCH  31  32
ENDBRANCH  30  31
ENDBRANCH  29  30
ENDBRANCH  28  29
ENDBRANCH  27  28
ENDBRANCH  26  27
ENDBRANCH  25  26
ENDBRANCH  24  25
ENDBRANCH  23  24
ENDBRANCH   1  23
TORSDOF 16
ENDMDL
MODEL 2
REMARK VINA RESULT:      -6.8      1.713      2.501
REMARK  Name = 
REMARK  18 active torsions:
REMARK  status: ('A' for Active; 'I' for Inactive)
REMARK    1  A    between atoms: C_1  and  C_2
REMARK    2  A    between atoms: C_2  and  C_3
REMARK    3  A    between atoms: C_3  and  C_4
REMARK    4  A    between atoms: C_4  and  C_5
REMARK    5  A    between atoms: C_5  and  C_6
REMARK    6  A    between atoms: C_6  and  C_7
REMARK    7  A    between atoms: C_7  and  C_8
REMARK    8  A    between atoms: C_8  and  C_9
REMARK    9  A    between atoms: C_9  and  C_10
REMARK   10  A    between atoms: C_10  and  C_11
REMARK   11  A    between atoms: C_11  and  C_12
REMARK   12  A    between atoms: C_12  and  O_13
REMARK   13  A    between atoms: O_13  and  C_14
REMARK   14  A    between atoms: C_18  and  C_19
REMARK   15  A    between atoms: C_19  and  C_21
REMARK   16  A    between atoms: C_22  and  C_23
REMARK   17  A    between atoms: C_23  and  O_25
REMARK   18  A    between atoms: N_26  and  C_27
REMARK                            x       y       z     vdW  Elec       q    Type
REMARK                         _______ _______ _______ _____ _____    ______ ____
ROOT
ATOM      1  C   UNL     1       2.125   7.412  19.569  0.00  0.00    +0.000 A 
ATOM      2  C   UNL     1       2.492   7.545  18.233  0.00  0.00    +0.000 A 
ATOM      3  C   UNL     1       2.218   8.745  17.610  0.00  0.00    +0.000 A 
ATOM      4  C   UNL     1       1.555   9.768  18.333  0.00  0.00    +0.000 A 
ATOM      5  C   UNL     1       1.121   9.687  19.719  0.00  0.00    +0.000 A 
ATOM      6  C   UNL     1       1.439   8.461  20.297  0.00  0.00    +0.000 A 
ENDROOT
BRANCH   5   7
ATOM      7  C   UNL     1       0.319  10.879  20.382  0.00  0.00    +0.000 C 
ATOM      8  O   UNL     1       1.030  11.348  21.267  0.00  0.00    +0.000 OA
BRANCH   7   9
ATOM      9  C   UNL     1      -1.174  11.487  20.269  0.00  0.00    +0.000 A 
ATOM     10  C   UNL     1      -1.096  12.871  20.515  0.00  0.00    +0.000 A 
ATOM     11  N   UNL     1      -2.144  12.947  21.464  0.00  0.00    +0.000 N 
ATOM     12  C   UNL     1      -2.345  12.216  22.731  0.00  0.00    +0.000 C 
ATOM     13  C   UNL     1      -3.214  12.774  20.629  0.00  0.00    +0.000 A 
ATOM     14  C   UNL     1      -4.467  13.406  20.707  0.00  0.00    +0.000 A 
ATOM     15  C   UNL     1      -5.321  13.200  19.658  0.00  0.00    +0.000 A 
ATOM     16  C   UNL     1      -4.886  12.361  18.632  0.00  0.00    +0.000 A 
ATOM     17  C   UNL     1      -3.621  11.610  18.661  0.00  0.00    +0.000 A 
ATOM     18  C   UNL     1      -2.693  11.762  19.748  0.00  0.00    +0.000 A 
BRANCH  10  19
ATOM     19  C   UNL     1      -0.807  13.689  19.276  0.00  0.00    +0.000 C 
ATOM     20  O   UNL     1      -0.435  13.193  18.211  0.00  0.00    +0.000 OA
BRANCH  19  21
ATOM     21  O   UNL     1      -1.178  14.993  19.314  0.00  0.00    +0.000 OA
ATOM     22  H   UNL     1      -1.368  15.359  18.443  0.00  0.00    +0.000 HD
ENDBRANCH  19  21
ENDBRANCH  10  19
ENDBRANCH   7   9
ENDBRANCH   5   7
BRANCH   1  23
ATOM     23  O   UNL     1       2.504   6.196  20.067  0.00  0.00    +0.000 OA
BRANCH  23  24
ATOM     24  C   UNL     1       1.550   5.526  20.855  0.00  0.00    +0.000 C 
BRANCH  24  25
ATOM     25  C   UNL     1       1.974   4.087  21.108  0.00  0.00    +0.000 C 
BRANCH  25  26
ATOM     26  C   UNL     1       1.249   3.212  20.099  0.00  0.00    +0.000 C 
BRANCH  26  27
ATOM     27  C   UNL     1       2.208   2.450  19.208  0.00  0.00    +0.000 C 
BRANCH  27  28
ATOM     28  C   UNL     1       2.098   2.970  17.780  0.00  0.00    +0.000 C 
BRANCH  28  29
ATOM     29  C   UNL     1       3.188   3.991  17.503  0.00  0.00    +0.000 C 
BRANCH  29  30
ATOM     30  C   UNL     1       4.496   3.561  18.150  0.00  0.00    +0.000 C 
BRANCH  30  31
ATOM     31  C   UNL     1       5.287   4.779  18.601  0.00  0.00    +0.000 C 
BRANCH  31  32
ATOM     32  C   UNL     1       6.728   4.690  18.117  0.00  0.00    +0.000 C 
BRANCH  32  33
ATOM     33  C   UNL     1       7.019   5.793  17.107  0.00  0.00    +0.000 C 
BRANCH  33  35
ATOM     34  C   UNL     1       5.148   6.582  15.642  0.00  0.00    +0.000 C 
ATOM     35  C   UNL     1       5.835   6.745  16.985  0.00  0.00    +0.000 C 
ENDBRANCH  33  35
ENDBRANCH  32  33
ENDBRANCH  31  32
ENDBRANCH  30  31
ENDBRANCH  29  30
ENDBRANCH  28  29
ENDBRANCH  27  28
ENDBRANCH  26  27
ENDBRANCH  25  26
ENDBRANCH  24  25
ENDBRANCH  23  24
ENDBRANCH   1  23
TORSDOF 16
ENDMDL
MODEL 3
REMARK VINA RESULT:      -6.8      1.748      2.471
REMARK  Name = 
REMARK  18 active torsions:
REMARK  status: ('A' for Active; 'I' for Inactive)
REMARK    1  A    between atoms: C_1  and  C_2
REMARK    2  A    between atoms: C_2  and  C_3
REMARK    3  A    between atoms: C_3  and  C_4
REMARK    4  A    between atoms: C_4  and  C_5
REMARK    5  A    between atoms: C_5  and  C_6
REMARK    6  A    between atoms: C_6  and  C_7
REMARK    7  A    between atoms: C_7  and  C_8
REMARK    8  A    between atoms: C_8  and  C_9
REMARK    9  A    between atoms: C_9  and  C_10
REMARK   10  A    between atoms: C_10  and  C_11
REMARK   11  A    between atoms: C_11  and  C_12
REMARK   12  A    between atoms: C_12  and  O_13
REMARK   13  A    between atoms: O_13  and  C_14
REMARK   14  A    between atoms: C_18  and  C_19
REMARK   15  A    between atoms: C_19  and  C_21
REMARK   16  A    between atoms: C_22  and  C_23
REMARK   17  A    between atoms: C_23  and  O_25
REMARK   18  A    between atoms: N_26  and  C_27
REMARK                            x       y       z     vdW  Elec       q    Type
REMARK                         _______ _______ _______ _____ _____    ______ ____
ROOT
ATOM      1  C   UNL     1       1.786   7.487  20.014  0.00  0.00    +0.000 A 
ATOM      2  C   UNL     1       2.399   7.215  18.795  0.00  0.00    +0.000 A 
ATOM      3  C   UNL     1       2.504   8.248  17.887  0.00  0.00    +0.000 A 
ATOM      4  C   UNL     1       1.964   9.517  18.212  0.00  0.00    +0.000 A 
ATOM      5  C   UNL     1       1.288   9.863  19.453  0.00  0.00    +0.000 A 
ATOM      6  C   UNL     1       1.228   8.786  20.334  0.00  0.00    +0.000 A 
ENDROOT
BRANCH   5   7
ATOM      7  C   UNL     1       0.661  11.302  19.654  0.00  0.00    +0.000 C 
ATOM      8  O   UNL     1       1.118  12.024  18.772  0.00  0.00    +0.000 OA
BRANCH   7   9
ATOM      9  C   UNL     1      -0.265  12.027  20.762  0.00  0.00    +0.000 A 
ATOM     10  C   UNL     1      -1.010  13.028  20.113  0.00  0.00    +0.000 A 
ATOM     11  N   UNL     1      -0.728  14.081  21.016  0.00  0.00    +0.000 N 
ATOM     12  C   UNL     1       0.563  14.628  21.478  0.00  0.00    +0.000 C 
ATOM     13  C   UNL     1      -1.490  13.675  22.077  0.00  0.00    +0.000 A 
ATOM     14  C   UNL     1      -2.233  14.485  22.953  0.00  0.00    +0.000 A 
ATOM     15  C   UNL     1      -3.053  13.837  23.836  0.00  0.00    +0.000 A 
ATOM     16  C   UNL     1      -3.053  12.443  23.808  0.00  0.00    +0.000 A 
ATOM     17  C   UNL     1      -2.153  11.635  22.968  0.00  0.00    +0.000 A 
ATOM     18  C   UNL     1      -1.249  12.257  22.041  0.00  0.00    +0.000 A 
BRANCH  10  19
ATOM     19  C   UNL     1      -2.316  12.529  19.534  0.00  0.00    +0.000 C 
ATOM     20  O   UNL     1      -2.467  11.389  19.094  0.00  0.00    +0.000 OA
BRANCH  19  21
ATOM     21  O   UNL     1      -3.398  13.327  19.710  0.00  0.00    +0.000 OA
ATOM     22  H   UNL     1      -3.418  13.756  20.572  0.00  0.00    +0.000 HD
ENDBRANCH  19  21
ENDBRANCH  10  19
ENDBRANCH   7   9
ENDBRANCH   5   7
BRANCH   1  23
ATOM     23  O   UNL     1       1.800   6.390  20.831  0.00  0.00    +0.000 OA
BRANCH  23  24
ATOM     24  C   UNL     1       1.936   5.144  20.190  0.00  0.00    +0.000 C 
BRANCH  24  25
ATOM     25  C   UNL     1       2.114   4.030  21.210  0.00  0.00    +0.000 C 
BRANCH  25  26
ATOM     26  C   UNL     1       1.540   2.759  20.606  0.00  0.00    +0.000 C 
BRANCH  26  27
ATOM     27  C   UNL     1       1.413   2.847  19.099  0.00  0.00    +0.000 C 
BRANCH  27  28
ATOM     28  C   UNL     1       2.423   1.911  18.448  0.00  0.00    +0.000 C 
BRANCH  28  29
ATOM     29  C   UNL     1       3.712   2.653  18.139  0.00  0.00    +0.000 C 
BRANCH  29  30
ATOM     30  C   UNL     1       3.469   3.723  17.084  0.00  0.00    +0.000 C 
BRANCH  30  31
ATOM     31  C   UNL     1       4.592   4.748  17.105  0.00  0.00    +0.000 C 
BRANCH  31  32
ATOM     32  C   UNL     1       5.263   4.779  18.472  0.00  0.00    +0.000 C 
BRANCH  32  33
ATOM     33  C   UNL     1       6.674   5.341  18.359  0.00  0.00    +0.000 C 
BRANCH  33  35
ATOM     34  C   UNL     1       7.632   7.539  17.638  0.00  0.00    +0.000 C 
ATOM     35  C   UNL     1       6.765   6.362  17.231  0.00  0.00    +0.000 C 
ENDBRANCH  33  35
ENDBRANCH  32  33
ENDBRANCH  31  32
ENDBRANCH  30  31
ENDBRANCH  29  30
ENDBRANCH  28  29
ENDBRANCH  27  28
ENDBRANCH  26  27
ENDBRANCH  25  26
ENDBRANCH  24  25
ENDBRANCH  23  24
ENDBRANCH   1  23
TORSDOF 16
ENDMDL
MODEL 4
REMARK VINA RESULT:      -6.7      2.273      3.177
REMARK  Name = 
REMARK  18 active torsions:
REMARK  status: ('A' for Active; 'I' for Inactive)
REMARK    1  A    between atoms: C_1  and  C_2
REMARK    2  A    between atoms: C_2  and  C_3
REMARK    3  A    between atoms: C_3  and  C_4
REMARK    4  A    between atoms: C_4  and  C_5
REMARK    5  A    between atoms: C_5  and  C_6
REMARK    6  A    between atoms: C_6  and  C_7
REMARK    7  A    between atoms: C_7  and  C_8
REMARK    8  A    between atoms: C_8  and  C_9
REMARK    9  A    between atoms: C_9  and  C_10
REMARK   10  A    between atoms: C_10  and  C_11
REMARK   11  A    between atoms: C_11  and  C_12
REMARK   12  A    between atoms: C_12  and  O_13
REMARK   13  A    between atoms: O_13  and  C_14
REMARK   14  A    between atoms: C_18  and  C_19
REMARK   15  A    between atoms: C_19  and  C_21
REMARK   16  A    between atoms: C_22  and  C_23
REMARK   17  A    between atoms: C_23  and  O_25
REMARK   18  A    between atoms: N_26  and  C_27
REMARK                            x       y       z     vdW  Elec       q    Type
REMARK                         _______ _______ _______ _____ _____    ______ ____
ROOT
ATOM      1  C   UNL     1       2.043   7.109  19.906  0.00  0.00    +0.000 A 
ATOM      2  C   UNL     1       2.277   7.164  18.536  0.00  0.00    +0.000 A 
ATOM      3  C   UNL     1       2.100   8.378  17.904  0.00  0.00    +0.000 A 
ATOM      4  C   UNL     1       1.662   9.495  18.657  0.00  0.00    +0.000 A 
ATOM      5  C   UNL     1       1.374   9.502  20.082  0.00  0.00    +0.000 A 
ATOM      6  C   UNL     1       1.587   8.256  20.665  0.00  0.00    +0.000 A 
ENDROOT
BRANCH   5   7
ATOM      7  C   UNL     1       0.814  10.805  20.784  0.00  0.00    +0.000 C 
ATOM      8  O   UNL     1       0.479  10.490  21.923  0.00  0.00    +0.000 OA
BRANCH   7   9
ATOM      9  C   UNL     1       0.470  12.318  20.333  0.00  0.00    +0.000 A 
ATOM     10  C   UNL     1       0.323  12.328  18.933  0.00  0.00    +0.000 A 
ATOM     11  N   UNL     1       1.166  13.434  18.668  0.00  0.00    +0.000 N 
ATOM     12  C   UNL     1       2.576  13.674  19.032  0.00  0.00    +0.000 C 
ATOM     13  C   UNL     1       0.367  14.441  19.137  0.00  0.00    +0.000 A 
ATOM     14  C   UNL     1       0.210  15.728  18.594  0.00  0.00    +0.000 A 
ATOM     15  C   UNL     1      -0.776  16.505  19.140  0.00  0.00    +0.000 A 
ATOM     16  C   UNL     1      -1.506  15.965  20.198  0.00  0.00    +0.000 A 
ATOM     17  C   UNL     1      -1.213  14.666  20.825  0.00  0.00    +0.000 A 
ATOM     18  C   UNL     1      -0.172  13.815  20.316  0.00  0.00    +0.000 A 
BRANCH  10  19
ATOM     19  C   UNL     1      -1.082  12.007  18.472  0.00  0.00    +0.000 C 
ATOM     20  O   UNL     1      -1.920  11.462  19.191  0.00  0.00    +0.000 OA
BRANCH  19  21
ATOM     21  O   UNL     1      -1.464  12.539  17.284  0.00  0.00    +0.000 OA
ATOM     22  H   UNL     1      -1.834  11.888  16.678  0.00  0.00    +0.000 HD
ENDBRANCH  19  21
ENDBRANCH  10  19
ENDBRANCH   7   9
ENDBRANCH   5   7
BRANCH   1  23
ATOM     23  O   UNL     1       2.309   5.863  20.403  0.00  0.00    +0.000 OA
BRANCH  23  24
ATOM     24  C   UNL     1       1.248   4.938  20.354  0.00  0.00    +0.000 C 
BRANCH  24  25
ATOM     25  C   UNL     1       1.650   3.623  21.004  0.00  0.00    +0.000 C 
BRANCH  25  26
ATOM     26  C   UNL     1       1.218   2.501  20.075  0.00  0.00    +0.000 C 
BRANCH  26  27
ATOM     27  C   UNL     1       1.350   2.885  18.615  0.00  0.00    +0.000 C 
BRANCH  27  28
ATOM     28  C   UNL     1       2.466   2.070  17.973  0.00  0.00    +0.000 C 
BRANCH  28  29
ATOM     29  C   UNL     1       3.795   2.794  18.108  0.00  0.00    +0.000 C 
BRANCH  29  30
ATOM     30  C   UNL     1       3.859   3.970  17.144  0.00  0.00    +0.000 C 
BRANCH  30  31
ATOM     31  C   UNL     1       5.300   4.248  16.745  0.00  0.00    +0.000 C 
BRANCH  31  32
ATOM     32  C   UNL     1       5.375   5.446  15.809  0.00  0.00    +0.000 C 
BRANCH  32  33
ATOM     33  C   UNL     1       6.219   5.113  14.585  0.00  0.00    +0.000 C 
BRANCH  33  35
ATOM     34  C   UNL     1       6.416   3.628  12.579  0.00  0.00    +0.000 C 
ATOM     35  C   UNL     1       5.722   3.839  13.912  0.00  0.00    +0.000 C 
ENDBRANCH  33  35
ENDBRANCH  32  33
ENDBRANCH  31  32
ENDBRANCH  30  31
ENDBRANCH  29  30
ENDBRANCH  28  29
ENDBRANCH  27  28
ENDBRANCH  26  27
ENDBRANCH  25  26
ENDBRANCH  24  25
ENDBRANCH  23  24
ENDBRANCH   1  23
TORSDOF 16
ENDMDL
MODEL 5
REMARK VINA RESULT:      -6.6      2.334     10.195
REMARK  Name = 
REMARK  18 active torsions:
REMARK  status: ('A' for Active; 'I' for Inactive)
REMARK    1  A    between atoms: C_1  and  C_2
REMARK    2  A    between atoms: C_2  and  C_3
REMARK    3  A    between atoms: C_3  and  C_4
REMARK    4  A    between atoms: C_4  and  C_5
REMARK    5  A    between atoms: C_5  and  C_6
REMARK    6  A    between atoms: C_6  and  C_7
REMARK    7  A    between atoms: C_7  and  C_8
REMARK    8  A    between atoms: C_8  and  C_9
REMARK    9  A    between atoms: C_9  and  C_10
REMARK   10  A    between atoms: C_10  and  C_11
REMARK   11  A    between atoms: C_11  and  C_12
REMARK   12  A    between atoms: C_12  and  O_13
REMARK   13  A    between atoms: O_13  and  C_14
REMARK   14  A    between atoms: C_18  and  C_19
REMARK   15  A    between atoms: C_19  and  C_21
REMARK   16  A    between atoms: C_22  and  C_23
REMARK   17  A    between atoms: C_23  and  O_25
REMARK   18  A    between atoms: N_26  and  C_27
REMARK                            x       y       z     vdW  Elec       q    Type
REMARK                         _______ _______ _______ _____ _____    ______ ____
ROOT
ATOM      1  C   UNL     1       1.027   9.798  19.282  0.00  0.00    +0.000 A 
ATOM      2  C   UNL     1       0.408   9.864  20.526  0.00  0.00    +0.000 A 
ATOM      3  C   UNL     1       0.614   8.817  21.401  0.00  0.00    +0.000 A 
ATOM      4  C   UNL     1       1.410   7.718  20.993  0.00  0.00    +0.000 A 
ATOM      5  C   UNL     1       2.063   7.571  19.702  0.00  0.00    +0.000 A 
ATOM      6  C   UNL     1       1.832   8.664  18.871  0.00  0.00    +0.000 A 
ENDROOT
BRANCH   5   7
ATOM      7  C   UNL     1       2.860   6.251  19.348  0.00  0.00    +0.000 C 
ATOM      8  O   UNL     1       2.527   5.395  20.165  0.00  0.00    +0.000 OA
BRANCH   7   9
ATOM      9  C   UNL     1       4.038   5.837  18.322  0.00  0.00    +0.000 A 
ATOM     10  C   UNL     1       4.355   4.485  18.552  0.00  0.00    +0.000 A 
ATOM     11  N   UNL     1       5.760   4.640  18.637  0.00  0.00    +0.000 N 
ATOM     12  C   UNL     1       6.578   5.509  19.505  0.00  0.00    +0.000 C 
ATOM     13  C   UNL     1       6.039   4.871  17.317  0.00  0.00    +0.000 A 
ATOM     14  C   UNL     1       7.153   4.421  16.590  0.00  0.00    +0.000 A 
ATOM     15  C   UNL     1       7.129   4.637  15.238  0.00  0.00    +0.000 A 
ATOM     16  C   UNL     1       6.023   5.308  14.716  0.00  0.00    +0.000 A 
ATOM     17  C   UNL     1       4.946   5.885  15.536  0.00  0.00    +0.000 A 
ATOM     18  C   UNL     1       4.929   5.717  16.963  0.00  0.00    +0.000 A 
BRANCH  10  19
ATOM     19  C   UNL     1       3.500   3.521  17.759  0.00  0.00    +0.000 C 
ATOM     20  O   UNL     1       3.817   2.348  17.557  0.00  0.00    +0.000 OA
BRANCH  19  21
ATOM     21  O   UNL     1       2.248   3.939  17.449  0.00  0.00    +0.000 OA
ATOM     22  H   UNL     1       2.105   4.039  16.501  0.00  0.00    +0.000 HD
ENDBRANCH  19  21
ENDBRANCH  10  19
ENDBRANCH   7   9
ENDBRANCH   5   7
BRANCH   1  23
ATOM     23  O   UNL     1       0.778  10.922  18.545  0.00  0.00    +0.000 OA
BRANCH  23  24
ATOM     24  C   UNL     1      -0.536  11.424  18.606  0.00  0.00    +0.000 C 
BRANCH  24  25
ATOM     25  C   UNL     1      -0.578  12.879  18.165  0.00  0.00    +0.000 C 
BRANCH  25  26
ATOM     26  C   UNL     1      -0.508  13.739  19.415  0.00  0.00    +0.000 C 
BRANCH  26  27
ATOM     27  C   UNL     1      -1.285  13.139  20.569  0.00  0.00    +0.000 C 
BRANCH  27  28
ATOM     28  C   UNL     1      -0.533  13.384  21.872  0.00  0.00    +0.000 C 
BRANCH  28  29
ATOM     29  C   UNL     1      -1.035  12.447  22.957  0.00  0.00    +0.000 C 
BRANCH  29  30
ATOM     30  C   UNL     1      -2.446  11.975  22.640  0.00  0.00    +0.000 C 
BRANCH  30  31
ATOM     31  C   UNL     1      -3.457  12.718  23.501  0.00  0.00    +0.000 C 
BRANCH  31  32
ATOM     32  C   UNL     1      -4.310  13.644  22.644  0.00  0.00    +0.000 C 
BRANCH  32  33
ATOM     33  C   UNL     1      -5.275  12.835  21.786  0.00  0.00    +0.000 C 
BRANCH  33  35
ATOM     34  C   UNL     1      -4.658  12.274  19.425  0.00  0.00    +0.000 C 
ATOM     35  C   UNL     1      -5.260  13.323  20.342  0.00  0.00    +0.000 C 
ENDBRANCH  33  35
ENDBRANCH  32  33
ENDBRANCH  31  32
ENDBRANCH  30  31
ENDBRANCH  29  30
ENDBRANCH  28  29
ENDBRANCH  27  28
ENDBRANCH  26  27
ENDBRANCH  25  26
ENDBRANCH  24  25
ENDBRANCH  23  24
ENDBRANCH   1  23
TORSDOF 16
ENDMDL
MODEL 6
REMARK VINA RESULT:      -6.5      1.816      2.581
REMARK  Name = 
REMARK  18 active torsions:
REMARK  status: ('A' for Active; 'I' for Inactive)
REMARK    1  A    between atoms: C_1  and  C_2
REMARK    2  A    between atoms: C_2  and  C_3
REMARK    3  A    between atoms: C_3  and  C_4
REMARK    4  A    between atoms: C_4  and  C_5
REMARK    5  A    between atoms: C_5  and  C_6
REMARK    6  A    between atoms: C_6  and  C_7
REMARK    7  A    between atoms: C_7  and  C_8
REMARK    8  A    between atoms: C_8  and  C_9
REMARK    9  A    between atoms: C_9  and  C_10
REMARK   10  A    between atoms: C_10  and  C_11
REMARK   11  A    between atoms: C_11  and  C_12
REMARK   12  A    between atoms: C_12  and  O_13
REMARK   13  A    between atoms: O_13  and  C_14
REMARK   14  A    between atoms: C_18  and  C_19
REMARK   15  A    between atoms: C_19  and  C_21
REMARK   16  A    between atoms: C_22  and  C_23
REMARK   17  A    between atoms: C_23  and  O_25
REMARK   18  A    between atoms: N_26  and  C_27
REMARK                            x       y       z     vdW  Elec       q    Type
REMARK                         _______ _______ _______ _____ _____    ______ ____
ROOT
ATOM      1  C   UNL     1       1.827   7.572  19.839  0.00  0.00    +0.000 A 
ATOM      2  C   UNL     1       2.369   7.244  18.601  0.00  0.00    +0.000 A 
ATOM      3  C   UNL     1       2.466   8.247  17.658  0.00  0.00    +0.000 A 
ATOM      4  C   UNL     1       1.989   9.544  17.972  0.00  0.00    +0.000 A 
ATOM      5  C   UNL     1       1.388   9.948  19.233  0.00  0.00    +0.000 A 
ATOM      6  C   UNL     1       1.333   8.899  20.147  0.00  0.00    +0.000 A 
ENDROOT
BRANCH   5   7
ATOM      7  C   UNL     1       0.823  11.414  19.423  0.00  0.00    +0.000 C 
ATOM      8  O   UNL     1       1.460  12.149  18.672  0.00  0.00    +0.000 OA
BRANCH   7   9
ATOM      9  C   UNL     1      -0.227  12.142  20.412  0.00  0.00    +0.000 A 
ATOM     10  C   UNL     1      -1.133  12.870  19.619  0.00  0.00    +0.000 A 
ATOM     11  N   UNL     1      -1.050  14.095  20.325  0.00  0.00    +0.000 N 
ATOM     12  C   UNL     1       0.119  14.932  20.659  0.00  0.00    +0.000 C 
ATOM     13  C   UNL     1      -1.737  13.747  21.456  0.00  0.00    +0.000 A 
ATOM     14  C   UNL     1      -2.619  14.550  22.199  0.00  0.00    +0.000 A 
ATOM     15  C   UNL     1      -3.319  13.927  23.197  0.00  0.00    +0.000 A 
ATOM     16  C   UNL     1      -3.070  12.571  23.405  0.00  0.00    +0.000 A 
ATOM     17  C   UNL     1      -2.033  11.804  22.694  0.00  0.00    +0.000 A 
ATOM     18  C   UNL     1      -1.246  12.409  21.655  0.00  0.00    +0.000 A 
BRANCH  10  19
ATOM     19  C   UNL     1      -2.324  12.057  19.162  0.00  0.00    +0.000 C 
ATOM     20  O   UNL     1      -2.265  10.849  18.926  0.00  0.00    +0.000 OA
BRANCH  19  21
ATOM     21  O   UNL     1      -3.532  12.669  19.223  0.00  0.00    +0.000 OA
ATOM     22  H   UNL     1      -4.272  12.053  19.194  0.00  0.00    +0.000 HD
ENDBRANCH  19  21
ENDBRANCH  10  19
ENDBRANCH   7   9
ENDBRANCH   5   7
BRANCH   1  23
ATOM     23  O   UNL     1       1.843   6.498  20.686  0.00  0.00    +0.000 OA
BRANCH  23  24
ATOM     24  C   UNL     1       2.861   5.552  20.466  0.00  0.00    +0.000 C 
BRANCH  24  25
ATOM     25  C   UNL     1       2.378   4.151  20.808  0.00  0.00    +0.000 C 
BRANCH  25  26
ATOM     26  C   UNL     1       0.944   4.029  20.323  0.00  0.00    +0.000 C 
BRANCH  26  27
ATOM     27  C   UNL     1       0.767   2.895  19.335  0.00  0.00    +0.000 C 
BRANCH  27  28
ATOM     28  C   UNL     1       1.505   3.224  18.044  0.00  0.00    +0.000 C 
BRANCH  28  29
ATOM     29  C   UNL     1       2.431   2.084  17.657  0.00  0.00    +0.000 C 
BRANCH  29  30
ATOM     30  C   UNL     1       3.883   2.474  17.897  0.00  0.00    +0.000 C 
BRANCH  30  31
ATOM     31  C   UNL     1       4.189   3.804  17.226  0.00  0.00    +0.000 C 
BRANCH  31  32
ATOM     32  C   UNL     1       5.320   4.521  17.951  0.00  0.00    +0.000 C 
BRANCH  32  33
ATOM     33  C   UNL     1       5.533   5.910  17.363  0.00  0.00    +0.000 C 
BRANCH  33  35
ATOM     34  C   UNL     1       6.154   5.237  15.032  0.00  0.00    +0.000 C 
ATOM     35  C   UNL     1       5.126   5.947  15.894  0.00  0.00    +0.000 C 
ENDBRANCH  33  35
ENDBRANCH  32  33
ENDBRANCH  31  32
ENDBRANCH  30  31
ENDBRANCH  29  30
ENDBRANCH  28  29
ENDBRANCH  27  28
ENDBRANCH  26  27
ENDBRANCH  25  26
ENDBRANCH  24  25
ENDBRANCH  23  24
ENDBRANCH   1  23
TORSDOF 16
ENDMDL
MODEL 7
REMARK VINA RESULT:      -6.5      2.698      4.221
REMARK  Name = 
REMARK  18 active torsions:
REMARK  status: ('A' for Active; 'I' for Inactive)
REMARK    1  A    between atoms: C_1  and  C_2
REMARK    2  A    between atoms: C_2  and  C_3
REMARK    3  A    between atoms: C_3  and  C_4
REMARK    4  A    between atoms: C_4  and  C_5
REMARK    5  A    between atoms: C_5  and  C_6
REMARK    6  A    between atoms: C_6  and  C_7
REMARK    7  A    between atoms: C_7  and  C_8
REMARK    8  A    between atoms: C_8  and  C_9
REMARK    9  A    between atoms: C_9  and  C_10
REMARK   10  A    between atoms: C_10  and  C_11
REMARK   11  A    between atoms: C_11  and  C_12
REMARK   12  A    between atoms: C_12  and  O_13
REMARK   13  A    between atoms: O_13  and  C_14
REMARK   14  A    between atoms: C_18  and  C_19
REMARK   15  A    between atoms: C_19  and  C_21
REMARK   16  A    between atoms: C_22  and  C_23
REMARK   17  A    between atoms: C_23  and  O_25
REMARK   18  A    between atoms: N_26  and  C_27
REMARK                            x       y       z     vdW  Elec       q    Type
REMARK                         _______ _______ _______ _____ _____    ______ ____
ROOT
ATOM      1  C   UNL     1       3.646   6.733  17.862  0.00  0.00    +0.000 A 
ATOM      2  C   UNL     1       3.547   5.862  18.943  0.00  0.00    +0.000 A 
ATOM      3  C   UNL     1       2.666   6.192  19.952  0.00  0.00    +0.000 A 
ATOM      4  C   UNL     1       1.930   7.400  19.865  0.00  0.00    +0.000 A 
ATOM      5  C   UNL     1       2.004   8.366  18.780  0.00  0.00    +0.000 A 
ATOM      6  C   UNL     1       2.896   7.971  17.787  0.00  0.00    +0.000 A 
ENDROOT
BRANCH   5   7
ATOM      7  C   UNL     1       1.183   9.717  18.848  0.00  0.00    +0.000 C 
ATOM      8  O   UNL     1       1.528  10.401  17.888  0.00  0.00    +0.000 OA
BRANCH   7   9
ATOM      9  C   UNL     1       0.173  10.418  19.897  0.00  0.00    +0.000 A 
ATOM     10  C   UNL     1       0.944  10.963  20.940  0.00  0.00    +0.000 A 
ATOM     11  N   UNL     1       0.200  10.424  22.017  0.00  0.00    +0.000 N 
ATOM     12  C   UNL     1      -0.162   9.027  22.329  0.00  0.00    +0.000 C 
ATOM     13  C   UNL     1      -0.919  11.206  21.930  0.00  0.00    +0.000 A 
ATOM     14  C   UNL     1      -1.685  11.721  22.990  0.00  0.00    +0.000 A 
ATOM     15  C   UNL     1      -2.662  12.619  22.657  0.00  0.00    +0.000 A 
ATOM     16  C   UNL     1      -2.828  12.915  21.304  0.00  0.00    +0.000 A 
ATOM     17  C   UNL     1      -2.095  12.246  20.218  0.00  0.00    +0.000 A 
ATOM     18  C   UNL     1      -1.076  11.272  20.501  0.00  0.00    +0.000 A 
BRANCH  10  19
ATOM     19  C   UNL     1       1.427  12.369  20.663  0.00  0.00    +0.000 C 
ATOM     20  O   UNL     1       1.668  13.187  21.552  0.00  0.00    +0.000 OA
BRANCH  19  21
ATOM     21  O   UNL     1       1.795  12.640  19.386  0.00  0.00    +0.000 OA
ATOM     22  H   UNL     1       2.269  11.914  18.965  0.00  0.00    +0.000 HD
ENDBRANCH  19  21
ENDBRANCH  10  19
ENDBRANCH   7   9
ENDBRANCH   5   7
BRANCH   1  23
ATOM     23  O   UNL     1       4.513   6.254  16.919  0.00  0.00    +0.000 OA
BRANCH  23  24
ATOM     24  C   UNL     1       5.852   6.671  17.043  0.00  0.00    +0.000 C 
BRANCH  24  25
ATOM     25  C   UNL     1       6.670   5.639  17.804  0.00  0.00    +0.000 C 
BRANCH  25  26
ATOM     26  C   UNL     1       7.330   4.731  16.780  0.00  0.00    +0.000 C 
BRANCH  26  27
ATOM     27  C   UNL     1       6.317   3.943  15.975  0.00  0.00    +0.000 C 
BRANCH  27  28
ATOM     28  C   UNL     1       6.700   3.979  14.500  0.00  0.00    +0.000 C 
BRANCH  28  29
ATOM     29  C   UNL     1       5.460   4.123  13.635  0.00  0.00    +0.000 C 
BRANCH  29  30
ATOM     30  C   UNL     1       5.775   3.764  12.190  0.00  0.00    +0.000 C 
BRANCH  30  31
ATOM     31  C   UNL     1       4.976   2.542  11.764  0.00  0.00    +0.000 C 
BRANCH  31  32
ATOM     32  C   UNL     1       3.671   2.961  11.100  0.00  0.00    +0.000 C 
BRANCH  32  33
ATOM     33  C   UNL     1       3.928   4.042  10.058  0.00  0.00    +0.000 C 
BRANCH  33  35
ATOM     34  C   UNL     1       1.919   5.244   9.171  0.00  0.00    +0.000 C 
ATOM     35  C   UNL     1       2.834   4.046   8.997  0.00  0.00    +0.000 C 
ENDBRANCH  33  35
ENDBRANCH  32  33
ENDBRANCH  31  32
ENDBRANCH  30  31
ENDBRANCH  29  30
ENDBRANCH  28  29
ENDBRANCH  27  28
ENDBRANCH  26  27
ENDBRANCH  25  26
ENDBRANCH  24  25
ENDBRANCH  23  24
ENDBRANCH   1  23
TORSDOF 16
ENDMDL
MODEL 8
REMARK VINA RESULT:      -6.5      2.807      5.529
REMARK  Name = 
REMARK  18 active torsions:
REMARK  status: ('A' for Active; 'I' for Inactive)
REMARK    1  A    between atoms: C_1  and  C_2
REMARK    2  A    between atoms: C_2  and  C_3
REMARK    3  A    between atoms: C_3  and  C_4
REMARK    4  A    between atoms: C_4  and  C_5
REMARK    5  A    between atoms: C_5  and  C_6
REMARK    6  A    between atoms: C_6  and  C_7
REMARK    7  A    between atoms: C_7  and  C_8
REMARK    8  A    between atoms: C_8  and  C_9
REMARK    9  A    between atoms: C_9  and  C_10
REMARK   10  A    between atoms: C_10  and  C_11
REMARK   11  A    between atoms: C_11  and  C_12
REMARK   12  A    between atoms: C_12  and  O_13
REMARK   13  A    between atoms: O_13  and  C_14
REMARK   14  A    between atoms: C_18  and  C_19
REMARK   15  A    between atoms: C_19  and  C_21
REMARK   16  A    between atoms: C_22  and  C_23
REMARK   17  A    between atoms: C_23  and  O_25
REMARK   18  A    between atoms: N_26  and  C_27
REMARK                            x       y       z     vdW  Elec       q    Type
REMARK                         _______ _______ _______ _____ _____    ______ ____
ROOT
ATOM      1  C   UNL     1      -0.002   9.840  20.606  0.00  0.00    +0.000 A 
ATOM      2  C   UNL     1       0.208   8.916  21.624  0.00  0.00    +0.000 A 
ATOM      3  C   UNL     1      -0.256   9.234  22.884  0.00  0.00    +0.000 A 
ATOM      4  C   UNL     1      -0.891  10.484  23.096  0.00  0.00    +0.000 A 
ATOM      5  C   UNL     1      -1.119  11.505  22.085  0.00  0.00    +0.000 A 
ATOM      6  C   UNL     1      -0.644  11.120  20.835  0.00  0.00    +0.000 A 
ENDROOT
BRANCH   5   7
ATOM      7  C   UNL     1      -1.771  12.893  22.477  0.00  0.00    +0.000 C 
ATOM      8  O   UNL     1      -0.861  13.716  22.542  0.00  0.00    +0.000 OA
BRANCH   7   9
ATOM      9  C   UNL     1      -3.235  13.411  22.922  0.00  0.00    +0.000 A 
ATOM     10  C   UNL     1      -3.652  14.379  21.989  0.00  0.00    +0.000 A 
ATOM     11  N   UNL     1      -4.045  15.371  22.919  0.00  0.00    +0.000 N 
ATOM     12  C   UNL     1      -3.290  16.011  24.015  0.00  0.00    +0.000 C 
ATOM     13  C   UNL     1      -5.190  14.791  23.394  0.00  0.00    +0.000 A 
ATOM     14  C   UNL     1      -6.389  15.433  23.744  0.00  0.00    +0.000 A 
ATOM     15  C   UNL     1      -7.454  14.623  24.033  0.00  0.00    +0.000 A 
ATOM     16  C   UNL     1      -7.243  13.245  23.987  0.00  0.00    +0.000 A 
ATOM     17  C   UNL     1      -5.931  12.619  23.752  0.00  0.00    +0.000 A 
ATOM     18  C   UNL     1      -4.769  13.416  23.470  0.00  0.00    +0.000 A 
BRANCH  10  19
ATOM     19  C   UNL     1      -4.364  13.794  20.789  0.00  0.00    +0.000 C 
ATOM     20  O   UNL     1      -5.523  14.080  20.487  0.00  0.00    +0.000 OA
BRANCH  19  21
ATOM     21  O   UNL     1      -3.599  13.090  19.918  0.00  0.00    +0.000 OA
ATOM     22  H   UNL     1      -3.309  12.240  20.268  0.00  0.00    +0.000 HD
ENDBRANCH  19  21
ENDBRANCH  10  19
ENDBRANCH   7   9
ENDBRANCH   5   7
BRANCH   1  23
ATOM     23  O   UNL     1       0.461   9.370  19.408  0.00  0.00    +0.000 OA
BRANCH  23  24
ATOM     24  C   UNL     1       1.818   8.997  19.373  0.00  0.00    +0.000 C 
BRANCH  24  25
ATOM     25  C   UNL     1       2.139   8.255  18.085  0.00  0.00    +0.000 C 
BRANCH  25  26
ATOM     26  C   UNL     1       2.272   6.781  18.426  0.00  0.00    +0.000 C 
BRANCH  26  27
ATOM     27  C   UNL     1       3.422   6.123  17.690  0.00  0.00    +0.000 C 
BRANCH  27  28
ATOM     28  C   UNL     1       4.325   5.411  18.690  0.00  0.00    +0.000 C 
BRANCH  28  29
ATOM     29  C   UNL     1       4.309   3.912  18.443  0.00  0.00    +0.000 C 
BRANCH  29  30
ATOM     30  C   UNL     1       3.375   3.573  17.290  0.00  0.00    +0.000 C 
BRANCH  30  31
ATOM     31  C   UNL     1       2.804   2.175  17.468  0.00  0.00    +0.000 C 
BRANCH  31  32
ATOM     32  C   UNL     1       2.290   1.984  18.888  0.00  0.00    +0.000 C 
BRANCH  32  33
ATOM     33  C   UNL     1       0.965   2.711  19.077  0.00  0.00    +0.000 C 
BRANCH  33  35
ATOM     34  C   UNL     1       1.337   2.987  21.538  0.00  0.00    +0.000 C 
ATOM     35  C   UNL     1       1.048   3.703  20.231  0.00  0.00    +0.000 C 
ENDBRANCH  33  35
ENDBRANCH  32  33
ENDBRANCH  31  32
ENDBRANCH  30  31
ENDBRANCH  29  30
ENDBRANCH  28  29
ENDBRANCH  27  28
ENDBRANCH  26  27
ENDBRANCH  25  26
ENDBRANCH  24  25
ENDBRANCH  23  24
ENDBRANCH   1  23
TORSDOF 16
ENDMDL
MODEL 9
REMARK VINA RESULT:      -6.5      2.511      9.467
REMARK  Name = 
REMARK  18 active torsions:
REMARK  status: ('A' for Active; 'I' for Inactive)
REMARK    1  A    between atoms: C_1  and  C_2
REMARK    2  A    between atoms: C_2  and  C_3
REMARK    3  A    between atoms: C_3  and  C_4
REMARK    4  A    between atoms: C_4  and  C_5
REMARK    5  A    between atoms: C_5  and  C_6
REMARK    6  A    between atoms: C_6  and  C_7
REMARK    7  A    between atoms: C_7  and  C_8
REMARK    8  A    between atoms: C_8  and  C_9
REMARK    9  A    between atoms: C_9  and  C_10
REMARK   10  A    between atoms: C_10  and  C_11
REMARK   11  A    between atoms: C_11  and  C_12
REMARK   12  A    between atoms: C_12  and  O_13
REMARK   13  A    between atoms: O_13  and  C_14
REMARK   14  A    between atoms: C_18  and  C_19
REMARK   15  A    between atoms: C_19  and  C_21
REMARK   16  A    between atoms: C_22  and  C_23
REMARK   17  A    between atoms: C_23  and  O_25
REMARK   18  A    between atoms: N_26  and  C_27
REMARK                            x       y       z     vdW  Elec       q    Type
REMARK                         _______ _______ _______ _____ _____    ______ ____
ROOT
ATOM      1  C   UNL     1       0.858   9.184  20.921  0.00  0.00    +0.000 A 
ATOM      2  C   UNL     1       0.690  10.074  19.865  0.00  0.00    +0.000 A 
ATOM      3  C   UNL     1       1.207   9.715  18.636  0.00  0.00    +0.000 A 
ATOM      4  C   UNL     1       1.904   8.488  18.508  0.00  0.00    +0.000 A 
ATOM      5  C   UNL     1       2.139   7.526  19.574  0.00  0.00    +0.000 A 
ATOM      6  C   UNL     1       1.581   7.936  20.782  0.00  0.00    +0.000 A 
ENDROOT
BRANCH   5   7
ATOM      7  C   UNL     1       3.005   6.228  19.310  0.00  0.00    +0.000 C 
ATOM      8  O   UNL     1       2.748   5.431  20.208  0.00  0.00    +0.000 OA
BRANCH   7   9
ATOM      9  C   UNL     1       4.177   5.795  18.285  0.00  0.00    +0.000 A 
ATOM     10  C   UNL     1       4.525   4.460  18.567  0.00  0.00    +0.000 A 
ATOM     11  N   UNL     1       5.927   4.646  18.626  0.00  0.00    +0.000 N 
ATOM     12  C   UNL     1       6.739   5.567  19.445  0.00  0.00    +0.000 C 
ATOM     13  C   UNL     1       6.184   4.827  17.294  0.00  0.00    +0.000 A 
ATOM     14  C   UNL     1       7.297   4.368  16.570  0.00  0.00    +0.000 A 
ATOM     15  C   UNL     1       7.250   4.526  15.212  0.00  0.00    +0.000 A 
ATOM     16  C   UNL     1       6.125   5.153  14.678  0.00  0.00    +0.000 A 
ATOM     17  C   UNL     1       5.047   5.743  15.488  0.00  0.00    +0.000 A 
ATOM     18  C   UNL     1       5.052   5.635  16.921  0.00  0.00    +0.000 A 
BRANCH  10  19
ATOM     19  C   UNL     1       3.679   3.447  17.828  0.00  0.00    +0.000 C 
ATOM     20  O   UNL     1       2.646   3.742  17.225  0.00  0.00    +0.000 OA
BRANCH  19  21
ATOM     21  O   UNL     1       4.216   2.211  17.673  0.00  0.00    +0.000 OA
ATOM     22  H   UNL     1       4.893   2.175  16.988  0.00  0.00    +0.000 HD
ENDBRANCH  19  21
ENDBRANCH  10  19
ENDBRANCH   7   9
ENDBRANCH   5   7
BRANCH   1  23
ATOM     23  O   UNL     1       0.252   9.646  22.057  0.00  0.00    +0.000 OA
BRANCH  23  24
ATOM     24  C   UNL     1      -0.484  10.839  21.924  0.00  0.00    +0.000 C 
BRANCH  24  25
ATOM     25  C   UNL     1      -1.370  11.063  23.140  0.00  0.00    +0.000 C 
BRANCH  25  26
ATOM     26  C   UNL     1      -2.343  12.178  22.799  0.00  0.00    +0.000 C 
BRANCH  26  27
ATOM     27  C   UNL     1      -2.376  12.476  21.314  0.00  0.00    +0.000 C 
BRANCH  27  28
ATOM     28  C   UNL     1      -2.523  13.977  21.098  0.00  0.00    +0.000 C 
BRANCH  28  29
ATOM     29  C   UNL     1      -1.207  14.684  21.374  0.00  0.00    +0.000 C 
BRANCH  29  30
ATOM     30  C   UNL     1      -0.123  14.170  20.437  0.00  0.00    +0.000 C 
BRANCH  30  31
ATOM     31  C   UNL     1       1.192  14.017  21.187  0.00  0.00    +0.000 C 
BRANCH  31  32
ATOM     32  C   UNL     1       2.235  13.345  20.304  0.00  0.00    +0.000 C 
BRANCH  32  33
ATOM     33  C   UNL     1       2.222  13.953  18.908  0.00  0.00    +0.000 C 
BRANCH  33  35
ATOM     34  C   UNL     1       3.503  15.567  17.485  0.00  0.00    +0.000 C 
ATOM     35  C   UNL     1       2.986  15.272  18.881  0.00  0.00    +0.000 C 
ENDBRANCH  33  35
ENDBRANCH  32  33
ENDBRANCH  31  32
ENDBRANCH  30  31
ENDBRANCH  29  30
ENDBRANCH  28  29
ENDBRANCH  27  28
ENDBRANCH  26  27
ENDBRANCH  25  26
ENDBRANCH  24  25
ENDBRANCH  23  24
ENDBRANCH   1  23
TORSDOF 16
ENDMDL
