MODEL 1
REMARK VINA RESULT:      -7.7      0.000      0.000
REMARK  Name = 
REMARK  2 active torsions:
REMARK  status: ('A' for Active; 'I' for Inactive)
REMARK    1  A    between atoms: C_2  and  C_3
REMARK    2  A    between atoms: C_7  and  C_8
REMARK                            x       y       z     vdW  Elec       q    Type
REMARK                         _______ _______ _______ _____ _____    ______ ____
ROOT
ATOM      1  O   UNL     1       5.726   4.861  19.929  0.00  0.00    +0.000 OA
ATOM      2  C   UNL     1       5.238   4.304  18.949  0.00  0.00    +0.000 C 
ATOM      3  N   UNL     1       5.917   4.274  17.725  0.00  0.00    +0.000 N 
ATOM      4  C   UNL     1       7.296   4.826  17.662  0.00  0.00    +0.000 C 
ATOM      5  C   UNL     1       7.693   5.454  16.299  0.00  0.00    +0.000 C 
ATOM      6  N   UNL     1       7.028   4.823  15.175  0.00  0.00    +0.000 N 
ATOM      7  C   UNL     1       7.298   5.028  13.847  0.00  0.00    +0.000 C 
ATOM      8  O   UNL     1       8.268   5.601  13.388  0.00  0.00    +0.000 OA
ATOM      9  O   UNL     1       6.281   4.501  13.089  0.00  0.00    +0.000 OA
ATOM     10  C   UNL     1       5.366   3.832  13.977  0.00  0.00    +0.000 C 
ATOM     11  C   UNL     1       5.654   4.467  15.309  0.00  0.00    +0.000 C 
ATOM     12  C   UNL     1       5.461   3.576  16.515  0.00  0.00    +0.000 C 
ENDROOT
BRANCH   2  13
ATOM     13  C   UNL     1       3.914   3.713  19.027  0.00  0.00    +0.000 A 
ATOM     14  C   UNL     1       3.605   2.371  19.064  0.00  0.00    +0.000 A 
ATOM     15  O   UNL     1       2.270   2.201  19.124  0.00  0.00    +0.000 OA
ATOM     16  N   UNL     1       1.659   3.428  19.199  0.00  0.00    +0.000 NA
ATOM     17  C   UNL     1       2.638   4.352  19.179  0.00  0.00    +0.000 A 
BRANCH  17  18
ATOM     18  C   UNL     1       2.305   5.773  19.306  0.00  0.00    +0.000 A 
ATOM     19  C   UNL     1       1.786   6.263  20.517  0.00  0.00    +0.000 A 
ATOM     20  C   UNL     1       1.489   7.619  20.673  0.00  0.00    +0.000 A 
ATOM     21  C   UNL     1       1.699   8.504  19.619  0.00  0.00    +0.000 A 
ATOM     22  C   UNL     1       2.202   8.030  18.408  0.00  0.00    +0.000 A 
ATOM     23  C   UNL     1       2.488   6.671  18.250  0.00  0.00    +0.000 A 
ENDBRANCH  17  18
ENDBRANCH   2  13
TORSDOF 2
ENDMDL
MODEL 2
REMARK VINA RESULT:      -7.6      0.070      1.007
REMARK  Name = 
REMARK  2 active torsions:
REMARK  status: ('A' for Active; 'I' for Inactive)
REMARK    1  A    between atoms: C_2  and  C_3
REMARK    2  A    between atoms: C_7  and  C_8
REMARK                            x       y       z     vdW  Elec       q    Type
REMARK                         _______ _______ _______ _____ _____    ______ ____
ROOT
ATOM      1  O   UNL     1       5.692   4.778  19.900  0.00  0.00    +0.000 OA
ATOM      2  C   UNL     1       5.203   4.251  18.905  0.00  0.00    +0.000 C 
ATOM      3  N   UNL     1       5.893   4.231  17.686  0.00  0.00    +0.000 N 
ATOM      4  C   UNL     1       7.283   4.755  17.647  0.00  0.00    +0.000 C 
ATOM      5  C   UNL     1       7.705   5.401  16.301  0.00  0.00    +0.000 C 
ATOM      6  N   UNL     1       7.039   4.806  15.158  0.00  0.00    +0.000 N 
ATOM      7  C   UNL     1       7.326   5.031  13.837  0.00  0.00    +0.000 C 
ATOM      8  O   UNL     1       8.312   5.594  13.399  0.00  0.00    +0.000 OA
ATOM      9  O   UNL     1       6.306   4.541  13.060  0.00  0.00    +0.000 OA
ATOM     10  C   UNL     1       5.369   3.873  13.926  0.00  0.00    +0.000 C 
ATOM     11  C   UNL     1       5.657   4.476  15.272  0.00  0.00    +0.000 C 
ATOM     12  C   UNL     1       5.434   3.565  16.459  0.00  0.00    +0.000 C 
ENDROOT
BRANCH   2  13
ATOM     13  C   UNL     1       3.866   3.685  18.958  0.00  0.00    +0.000 A 
ATOM     14  C   UNL     1       3.528   2.350  18.941  0.00  0.00    +0.000 A 
ATOM     15  O   UNL     1       2.190   2.206  18.994  0.00  0.00    +0.000 OA
ATOM     16  N   UNL     1       1.605   3.442  19.119  0.00  0.00    +0.000 NA
ATOM     17  C   UNL     1       2.604   4.345  19.135  0.00  0.00    +0.000 A 
BRANCH  17  18
ATOM     18  C   UNL     1       2.301   5.767  19.319  0.00  0.00    +0.000 A 
ATOM     19  C   UNL     1       2.518   6.669  18.263  0.00  0.00    +0.000 A 
ATOM     20  C   UNL     1       2.209   8.024  18.404  0.00  0.00    +0.000 A 
ATOM     21  C   UNL     1       1.684   8.498  19.603  0.00  0.00    +0.000 A 
ATOM     22  C   UNL     1       1.474   7.616  20.662  0.00  0.00    +0.000 A 
ATOM     23  C   UNL     1       1.795   6.263  20.524  0.00  0.00    +0.000 A 
ENDBRANCH  17  18
ENDBRANCH   2  13
TORSDOF 2
ENDMDL
MODEL 3
REMARK VINA RESULT:      -7.5      2.250      6.302
REMARK  Name = 
REMARK  2 active torsions:
REMARK  status: ('A' for Active; 'I' for Inactive)
REMARK    1  A    between atoms: C_2  and  C_3
REMARK    2  A    between atoms: C_7  and  C_8
REMARK                            x       y       z     vdW  Elec       q    Type
REMARK                         _______ _______ _______ _____ _____    ______ ____
ROOT
ATOM      1  O   UNL     1       3.761   6.895  16.666  0.00  0.00    +0.000 OA
ATOM      2  C   UNL     1       4.189   5.765  16.887  0.00  0.00    +0.000 C 
ATOM      3  N   UNL     1       3.622   4.962  17.885  0.00  0.00    +0.000 N 
ATOM      4  C   UNL     1       2.412   5.455  18.592  0.00  0.00    +0.000 C 
ATOM      5  C   UNL     1       2.277   4.992  20.068  0.00  0.00    +0.000 C 
ATOM      6  N   UNL     1       2.872   3.691  20.305  0.00  0.00    +0.000 N 
ATOM      7  C   UNL     1       2.763   2.939  21.446  0.00  0.00    +0.000 C 
ATOM      8  O   UNL     1       1.986   3.128  22.363  0.00  0.00    +0.000 OA
ATOM      9  O   UNL     1       3.694   1.930  21.417  0.00  0.00    +0.000 OA
ATOM     10  C   UNL     1       4.361   1.978  20.141  0.00  0.00    +0.000 C 
ATOM     11  C   UNL     1       4.116   3.387  19.678  0.00  0.00    +0.000 C 
ATOM     12  C   UNL     1       4.006   3.575  18.182  0.00  0.00    +0.000 C 
ENDROOT
BRANCH   2  13
ATOM     13  C   UNL     1       5.337   5.260  16.154  0.00  0.00    +0.000 A 
ATOM     14  C   UNL     1       5.319   4.434  15.052  0.00  0.00    +0.000 A 
ATOM     15  O   UNL     1       6.577   4.166  14.650  0.00  0.00    +0.000 OA
ATOM     16  N   UNL     1       7.462   4.865  15.432  0.00  0.00    +0.000 NA
ATOM     17  C   UNL     1       6.730   5.560  16.323  0.00  0.00    +0.000 A 
BRANCH  17  18
ATOM     18  C   UNL     1       7.392   6.460  17.270  0.00  0.00    +0.000 A 
ATOM     19  C   UNL     1       7.554   7.819  16.946  0.00  0.00    +0.000 A 
ATOM     20  C   UNL     1       8.155   8.703  17.845  0.00  0.00    +0.000 A 
ATOM     21  C   UNL     1       8.609   8.242  19.077  0.00  0.00    +0.000 A 
ATOM     22  C   UNL     1       8.467   6.895  19.407  0.00  0.00    +0.000 A 
ATOM     23  C   UNL     1       7.875   6.009  18.502  0.00  0.00    +0.000 A 
ENDBRANCH  17  18
ENDBRANCH   2  13
TORSDOF 2
ENDMDL
MODEL 4
REMARK VINA RESULT:      -7.5      2.255      6.243
REMARK  Name = 
REMARK  2 active torsions:
REMARK  status: ('A' for Active; 'I' for Inactive)
REMARK    1  A    between atoms: C_2  and  C_3
REMARK    2  A    between atoms: C_7  and  C_8
REMARK                            x       y       z     vdW  Elec       q    Type
REMARK                         _______ _______ _______ _____ _____    ______ ____
ROOT
ATOM      1  O   UNL     1       3.728   6.833  16.622  0.00  0.00    +0.000 OA
ATOM      2  C   UNL     1       4.180   5.716  16.860  0.00  0.00    +0.000 C 
ATOM      3  N   UNL     1       3.622   4.911  17.860  0.00  0.00    +0.000 N 
ATOM      4  C   UNL     1       2.395   5.383  18.552  0.00  0.00    +0.000 C 
ATOM      5  C   UNL     1       2.257   4.933  20.031  0.00  0.00    +0.000 C 
ATOM      6  N   UNL     1       2.880   3.648  20.288  0.00  0.00    +0.000 N 
ATOM      7  C   UNL     1       2.777   2.906  21.435  0.00  0.00    +0.000 C 
ATOM      8  O   UNL     1       1.988   3.087  22.344  0.00  0.00    +0.000 OA
ATOM      9  O   UNL     1       3.731   1.919  21.426  0.00  0.00    +0.000 OA
ATOM     10  C   UNL     1       4.409   1.969  20.156  0.00  0.00    +0.000 C 
ATOM     11  C   UNL     1       4.136   3.366  19.675  0.00  0.00    +0.000 C 
ATOM     12  C   UNL     1       4.036   3.536  18.177  0.00  0.00    +0.000 C 
ENDROOT
BRANCH   2  13
ATOM     13  C   UNL     1       5.346   5.230  16.142  0.00  0.00    +0.000 A 
ATOM     14  C   UNL     1       5.358   4.389  15.051  0.00  0.00    +0.000 A 
ATOM     15  O   UNL     1       6.625   4.147  14.662  0.00  0.00    +0.000 OA
ATOM     16  N   UNL     1       7.486   4.878  15.442  0.00  0.00    +0.000 NA
ATOM     17  C   UNL     1       6.730   5.566  16.319  0.00  0.00    +0.000 A 
BRANCH  17  18
ATOM     18  C   UNL     1       7.362   6.494  17.260  0.00  0.00    +0.000 A 
ATOM     19  C   UNL     1       7.810   6.026  18.507  0.00  0.00    +0.000 A 
ATOM     20  C   UNL     1       8.443   6.884  19.409  0.00  0.00    +0.000 A 
ATOM     21  C   UNL     1       8.632   8.224  19.080  0.00  0.00    +0.000 A 
ATOM     22  C   UNL     1       8.182   8.704  17.852  0.00  0.00    +0.000 A 
ATOM     23  C   UNL     1       7.539   7.847  16.954  0.00  0.00    +0.000 A 
ENDBRANCH  17  18
ENDBRANCH   2  13
TORSDOF 2
ENDMDL
MODEL 5
REMARK VINA RESULT:      -7.2      3.341      6.395
REMARK  Name = 
REMARK  2 active torsions:
REMARK  status: ('A' for Active; 'I' for Inactive)
REMARK    1  A    between atoms: C_2  and  C_3
REMARK    2  A    between atoms: C_7  and  C_8
REMARK                            x       y       z     vdW  Elec       q    Type
REMARK                         _______ _______ _______ _____ _____    ______ ____
ROOT
ATOM      1  O   UNL     1       2.236   4.835  21.081  0.00  0.00    +0.000 OA
ATOM      2  C   UNL     1       2.309   5.475  20.036  0.00  0.00    +0.000 C 
ATOM      3  N   UNL     1       2.150   6.867  20.031  0.00  0.00    +0.000 N 
ATOM      4  C   UNL     1       2.011   7.572  21.332  0.00  0.00    +0.000 C 
ATOM      5  C   UNL     1       1.133   8.851  21.297  0.00  0.00    +0.000 C 
ATOM      6  N   UNL     1       1.180   9.530  20.016  0.00  0.00    +0.000 N 
ATOM      7  C   UNL     1       0.663  10.767  19.728  0.00  0.00    +0.000 C 
ATOM      8  O   UNL     1       0.269  11.589  20.534  0.00  0.00    +0.000 OA
ATOM      9  O   UNL     1       0.629  10.940  18.367  0.00  0.00    +0.000 OA
ATOM     10  C   UNL     1       1.256   9.795  17.758  0.00  0.00    +0.000 C 
ATOM     11  C   UNL     1       1.164   8.743  18.828  0.00  0.00    +0.000 C 
ATOM     12  C   UNL     1       2.291   7.736  18.854  0.00  0.00    +0.000 C 
ENDROOT
BRANCH   2  13
ATOM     13  C   UNL     1       2.504   4.791  18.770  0.00  0.00    +0.000 A 
ATOM     14  C   UNL     1       1.558   4.099  18.046  0.00  0.00    +0.000 A 
ATOM     15  O   UNL     1       2.108   3.588  16.927  0.00  0.00    +0.000 OA
ATOM     16  N   UNL     1       3.419   3.988  16.843  0.00  0.00    +0.000 NA
ATOM     17  C   UNL     1       3.666   4.745  17.929  0.00  0.00    +0.000 A 
BRANCH  17  18
ATOM     18  C   UNL     1       4.977   5.376  18.097  0.00  0.00    +0.000 A 
ATOM     19  C   UNL     1       5.805   4.990  19.166  0.00  0.00    +0.000 A 
ATOM     20  C   UNL     1       7.072   5.554  19.331  0.00  0.00    +0.000 A 
ATOM     21  C   UNL     1       7.528   6.516  18.434  0.00  0.00    +0.000 A 
ATOM     22  C   UNL     1       6.713   6.917  17.377  0.00  0.00    +0.000 A 
ATOM     23  C   UNL     1       5.441   6.360  17.219  0.00  0.00    +0.000 A 
ENDBRANCH  17  18
ENDBRANCH   2  13
TORSDOF 2
ENDMDL
MODEL 6
REMARK VINA RESULT:      -7.2      3.322      6.442
REMARK  Name = 
REMARK  2 active torsions:
REMARK  status: ('A' for Active; 'I' for Inactive)
REMARK    1  A    between atoms: C_2  and  C_3
REMARK    2  A    between atoms: C_7  and  C_8
REMARK                            x       y       z     vdW  Elec       q    Type
REMARK                         _______ _______ _______ _____ _____    ______ ____
ROOT
ATOM      1  O   UNL     1       2.244   4.797  21.066  0.00  0.00    +0.000 OA
ATOM      2  C   UNL     1       2.315   5.440  20.022  0.00  0.00    +0.000 C 
ATOM      3  N   UNL     1       2.163   6.832  20.022  0.00  0.00    +0.000 N 
ATOM      4  C   UNL     1       2.032   7.534  21.325  0.00  0.00    +0.000 C 
ATOM      5  C   UNL     1       1.159   8.817  21.298  0.00  0.00    +0.000 C 
ATOM      6  N   UNL     1       1.204   9.500  20.019  0.00  0.00    +0.000 N 
ATOM      7  C   UNL     1       0.691  10.740  19.737  0.00  0.00    +0.000 C 
ATOM      8  O   UNL     1       0.305  11.562  20.546  0.00  0.00    +0.000 OA
ATOM      9  O   UNL     1       0.653  10.917  18.376  0.00  0.00    +0.000 OA
ATOM     10  C   UNL     1       1.273   9.771  17.761  0.00  0.00    +0.000 C 
ATOM     11  C   UNL     1       1.181   8.717  18.828  0.00  0.00    +0.000 C 
ATOM     12  C   UNL     1       2.303   7.704  18.847  0.00  0.00    +0.000 C 
ENDROOT
BRANCH   2  13
ATOM     13  C   UNL     1       2.503   4.759  18.753  0.00  0.00    +0.000 A 
ATOM     14  C   UNL     1       1.547   4.086  18.023  0.00  0.00    +0.000 A 
ATOM     15  O   UNL     1       2.092   3.572  16.904  0.00  0.00    +0.000 OA
ATOM     16  N   UNL     1       3.410   3.950  16.825  0.00  0.00    +0.000 NA
ATOM     17  C   UNL     1       3.666   4.698  17.915  0.00  0.00    +0.000 A 
BRANCH  17  18
ATOM     18  C   UNL     1       4.988   5.305  18.091  0.00  0.00    +0.000 A 
ATOM     19  C   UNL     1       5.438   6.273  17.177  0.00  0.00    +0.000 A 
ATOM     20  C   UNL     1       6.681   6.889  17.340  0.00  0.00    +0.000 A 
ATOM     21  C   UNL     1       7.495   6.541  18.414  0.00  0.00    +0.000 A 
ATOM     22  C   UNL     1       7.067   5.573  19.322  0.00  0.00    +0.000 A 
ATOM     23  C   UNL     1       5.827   4.950  19.151  0.00  0.00    +0.000 A 
ENDBRANCH  17  18
ENDBRANCH   2  13
TORSDOF 2
ENDMDL
MODEL 7
REMARK VINA RESULT:      -6.9      3.211      6.431
REMARK  Name = 
REMARK  2 active torsions:
REMARK  status: ('A' for Active; 'I' for Inactive)
REMARK    1  A    between atoms: C_2  and  C_3
REMARK    2  A    between atoms: C_7  and  C_8
REMARK                            x       y       z     vdW  Elec       q    Type
REMARK                         _______ _______ _______ _____ _____    ______ ____
ROOT
ATOM      1  O   UNL     1       4.407   6.883  16.565  0.00  0.00    +0.000 OA
ATOM      2  C   UNL     1       4.050   6.639  17.714  0.00  0.00    +0.000 C 
ATOM      3  N   UNL     1       2.931   7.270  18.270  0.00  0.00    +0.000 N 
ATOM      4  C   UNL     1       2.109   8.155  17.405  0.00  0.00    +0.000 C 
ATOM      5  C   UNL     1       1.428   9.343  18.135  0.00  0.00    +0.000 C 
ATOM      6  N   UNL     1       1.101   9.041  19.515  0.00  0.00    +0.000 N 
ATOM      7  C   UNL     1       0.343   9.808  20.362  0.00  0.00    +0.000 C 
ATOM      8  O   UNL     1      -0.355  10.754  20.048  0.00  0.00    +0.000 OA
ATOM      9  O   UNL     1       0.505   9.361  21.649  0.00  0.00    +0.000 OA
ATOM     10  C   UNL     1       1.327   8.179  21.609  0.00  0.00    +0.000 C 
ATOM     11  C   UNL     1       2.040   8.302  20.292  0.00  0.00    +0.000 C 
ATOM     12  C   UNL     1       2.375   6.998  19.603  0.00  0.00    +0.000 C 
ENDROOT
BRANCH   2  13
ATOM     13  C   UNL     1       4.821   5.727  18.542  0.00  0.00    +0.000 A 
ATOM     14  C   UNL     1       6.124   5.886  18.960  0.00  0.00    +0.000 A 
ATOM     15  O   UNL     1       6.506   4.831  19.705  0.00  0.00    +0.000 OA
ATOM     16  N   UNL     1       5.444   3.976  19.861  0.00  0.00    +0.000 NA
ATOM     17  C   UNL     1       4.407   4.519  19.195  0.00  0.00    +0.000 A 
BRANCH  17  18
ATOM     18  C   UNL     1       3.097   3.863  19.222  0.00  0.00    +0.000 A 
ATOM     19  C   UNL     1       2.509   3.528  20.455  0.00  0.00    +0.000 A 
ATOM     20  C   UNL     1       1.248   2.930  20.508  0.00  0.00    +0.000 A 
ATOM     21  C   UNL     1       0.559   2.651  19.331  0.00  0.00    +0.000 A 
ATOM     22  C   UNL     1       1.136   2.965  18.101  0.00  0.00    +0.000 A 
ATOM     23  C   UNL     1       2.402   3.554  18.048  0.00  0.00    +0.000 A 
ENDBRANCH  17  18
ENDBRANCH   2  13
TORSDOF 2
ENDMDL
MODEL 8
REMARK VINA RESULT:      -6.9      2.339      2.642
REMARK  Name = 
REMARK  2 active torsions:
REMARK  status: ('A' for Active; 'I' for Inactive)
REMARK    1  A    between atoms: C_2  and  C_3
REMARK    2  A    between atoms: C_7  and  C_8
REMARK                            x       y       z     vdW  Elec       q    Type
REMARK                         _______ _______ _______ _____ _____    ______ ____
ROOT
ATOM      1  O   UNL     1       4.925   2.646  20.354  0.00  0.00    +0.000 OA
ATOM      2  C   UNL     1       4.705   3.263  19.315  0.00  0.00    +0.000 C 
ATOM      3  N   UNL     1       5.624   4.198  18.825  0.00  0.00    +0.000 N 
ATOM      4  C   UNL     1       6.929   4.346  19.520  0.00  0.00    +0.000 C 
ATOM      5  C   UNL     1       7.541   5.772  19.474  0.00  0.00    +0.000 C 
ATOM      6  N   UNL     1       7.186   6.498  18.270  0.00  0.00    +0.000 N 
ATOM      7  C   UNL     1       7.708   7.696  17.855  0.00  0.00    +0.000 C 
ATOM      8  O   UNL     1       8.695   8.247  18.303  0.00  0.00    +0.000 OA
ATOM      9  O   UNL     1       6.924   8.210  16.852  0.00  0.00    +0.000 OA
ATOM     10  C   UNL     1       5.909   7.237  16.538  0.00  0.00    +0.000 C 
ATOM     11  C   UNL     1       5.853   6.387  17.776  0.00  0.00    +0.000 C 
ATOM     12  C   UNL     1       5.496   4.935  17.559  0.00  0.00    +0.000 C 
ENDROOT
BRANCH   2  13
ATOM     13  C   UNL     1       3.453   3.074  18.602  0.00  0.00    +0.000 A 
ATOM     14  C   UNL     1       3.022   1.929  17.970  0.00  0.00    +0.000 A 
ATOM     15  O   UNL     1       1.816   2.133  17.407  0.00  0.00    +0.000 OA
ATOM     16  N   UNL     1       1.381   3.399  17.711  0.00  0.00    +0.000 NA
ATOM     17  C   UNL     1       2.341   3.970  18.463  0.00  0.00    +0.000 A 
BRANCH  17  18
ATOM     18  C   UNL     1       2.143   5.319  19.000  0.00  0.00    +0.000 A 
ATOM     19  C   UNL     1       1.745   5.486  20.338  0.00  0.00    +0.000 A 
ATOM     20  C   UNL     1       1.579   6.761  20.882  0.00  0.00    +0.000 A 
ATOM     21  C   UNL     1       1.801   7.888  20.096  0.00  0.00    +0.000 A 
ATOM     22  C   UNL     1       2.184   7.738  18.764  0.00  0.00    +0.000 A 
ATOM     23  C   UNL     1       2.339   6.460  18.218  0.00  0.00    +0.000 A 
ENDBRANCH  17  18
ENDBRANCH   2  13
TORSDOF 2
ENDMDL
MODEL 9
REMARK VINA RESULT:      -6.9      2.388      6.617
REMARK  Name = 
REMARK  2 active torsions:
REMARK  status: ('A' for Active; 'I' for Inactive)
REMARK    1  A    between atoms: C_2  and  C_3
REMARK    2  A    between atoms: C_7  and  C_8
REMARK                            x       y       z     vdW  Elec       q    Type
REMARK                         _______ _______ _______ _____ _____    ______ ____
ROOT
ATOM      1  O   UNL     1       4.923   7.123  17.456  0.00  0.00    +0.000 OA
ATOM      2  C   UNL     1       5.066   5.912  17.602  0.00  0.00    +0.000 C 
ATOM      3  N   UNL     1       3.957   5.067  17.740  0.00  0.00    +0.000 N 
ATOM      4  C   UNL     1       2.598   5.647  17.586  0.00  0.00    +0.000 C 
ATOM      5  C   UNL     1       1.491   4.965  18.434  0.00  0.00    +0.000 C 
ATOM      6  N   UNL     1       1.742   3.554  18.655  0.00  0.00    +0.000 N 
ATOM      7  C   UNL     1       0.874   2.647  19.206  0.00  0.00    +0.000 C 
ATOM      8  O   UNL     1      -0.314   2.815  19.406  0.00  0.00    +0.000 OA
ATOM      9  O   UNL     1       1.559   1.502  19.531  0.00  0.00    +0.000 OA
ATOM     10  C   UNL     1       2.913   1.647  19.065  0.00  0.00    +0.000 C 
ATOM     11  C   UNL     1       3.075   3.136  18.937  0.00  0.00    +0.000 C 
ATOM     12  C   UNL     1       4.010   3.602  17.845  0.00  0.00    +0.000 C 
ENDROOT
BRANCH   2  13
ATOM     13  C   UNL     1       6.397   5.336  17.694  0.00  0.00    +0.000 A 
ATOM     14  C   UNL     1       7.142   5.148  18.837  0.00  0.00    +0.000 A 
ATOM     15  O   UNL     1       8.333   4.598  18.531  0.00  0.00    +0.000 OA
ATOM     16  N   UNL     1       8.383   4.342  17.183  0.00  0.00    +0.000 NA
ATOM     17  C   UNL     1       7.207   4.748  16.667  0.00  0.00    +0.000 A 
BRANCH  17  18
ATOM     18  C   UNL     1       6.928   4.551  15.242  0.00  0.00    +0.000 A 
ATOM     19  C   UNL     1       7.718   5.203  14.279  0.00  0.00    +0.000 A 
ATOM     20  C   UNL     1       7.492   5.008  12.915  0.00  0.00    +0.000 A 
ATOM     21  C   UNL     1       6.468   4.164  12.493  0.00  0.00    +0.000 A 
ATOM     22  C   UNL     1       5.669   3.521  13.436  0.00  0.00    +0.000 A 
ATOM     23  C   UNL     1       5.889   3.725  14.801  0.00  0.00    +0.000 A 
ENDBRANCH  17  18
ENDBRANCH   2  13
TORSDOF 2
ENDMDL
