MODEL 1
REMARK VINA RESULT:      -8.3      0.000      0.000
REMARK  Name = 
REMARK  6 active torsions:
REMARK  status: ('A' for Active; 'I' for Inactive)
REMARK    1  A    between atoms: C_2  and  C_4
REMARK    2  A    between atoms: N_7  and  C_8
REMARK    3  A    between atoms: C_8  and  C_9
REMARK    4  A    between atoms: C_12  and  C_13
REMARK    5  A    between atoms: C_13  and  C_15
REMARK    6  A    between atoms: C_26  and  N_27
REMARK                            x       y       z     vdW  Elec       q    Type
REMARK                         _______ _______ _______ _____ _____    ______ ____
ROOT
ATOM      1  C   UNL     1       2.879   6.573  19.359  0.00  0.00    +0.000 A 
ATOM      2  C   UNL     1       2.860   7.161  18.092  0.00  0.00    +0.000 A 
ATOM      3  C   UNL     1       2.154   8.345  17.877  0.00  0.00    +0.000 A 
ATOM      4  C   UNL     1       1.429   8.957  18.914  0.00  0.00    +0.000 A 
ATOM      5  C   UNL     1       1.292   8.266  20.124  0.00  0.00    +0.000 A 
ATOM      6 CL   UNL     1       0.198   8.737  21.378  0.00  0.00    +0.000 Cl
ATOM      7  C   UNL     1       2.041   7.100  20.354  0.00  0.00    +0.000 A 
ENDROOT
BRANCH   4   8
ATOM      8  C   UNL     1       0.920  10.331  18.613  0.00  0.00    +0.000 C 
ATOM      9  O   UNL     1       1.745  11.241  18.583  0.00  0.00    +0.000 OA
BRANCH   8  10
ATOM     10  C   UNL     1      -0.535  10.658  18.500  0.00  0.00    +0.000 A 
ATOM     11  C   UNL     1      -1.313  10.037  17.505  0.00  0.00    +0.000 A 
ATOM     12  C   UNL     1      -2.640  10.419  17.291  0.00  0.00    +0.000 A 
ATOM     13  C   UNL     1      -3.229  11.365  18.123  0.00  0.00    +0.000 A 
ATOM     14 CL   UNL     1      -4.845  11.871  17.835  0.00  0.00    +0.000 Cl
ATOM     15  C   UNL     1      -2.510  11.909  19.183  0.00  0.00    +0.000 A 
ATOM     16  C   UNL     1      -1.165  11.564  19.374  0.00  0.00    +0.000 A 
ATOM     17 CL   UNL     1      -0.370  12.344  20.698  0.00  0.00    +0.000 Cl
ENDBRANCH   8  10
ENDBRANCH   4   8
BRANCH   1  18
ATOM     18  C   UNL     1       3.796   5.408  19.655  0.00  0.00    +0.000 C 
BRANCH  18  22
ATOM     19  C   UNL     1       5.605   4.337  16.751  0.00  0.00    +0.000 A 
ATOM     20  N   UNL     1       4.382   3.718  16.622  0.00  0.00    +0.000 NA
ATOM     21  N   UNL     1       3.644   4.029  17.679  0.00  0.00    +0.000 NA
ATOM     22  N   UNL     1       4.382   4.849  18.456  0.00  0.00    +0.000 N 
ATOM     23  C   UNL     1       5.640   5.042  17.941  0.00  0.00    +0.000 A 
BRANCH  19  25
ATOM     24  N   UNL     1       6.261   3.650  14.577  0.00  0.00    +0.000 N 
ATOM     25  C   UNL     1       6.658   4.223  15.755  0.00  0.00    +0.000 C 
ATOM     26  O   UNL     1       7.808   4.609  15.915  0.00  0.00    +0.000 OA
ATOM     27  H   UNL     1       6.924   3.589  13.819  0.00  0.00    +0.000 HD
ATOM     28  H   UNL     1       5.293   3.394  14.427  0.00  0.00    +0.000 HD
ENDBRANCH  19  25
BRANCH  23  29
ATOM     29  N   UNL     1       6.595   5.805  18.519  0.00  0.00    +0.000 N 
ATOM     30  H   UNL     1       6.435   6.682  19.005  0.00  0.00    +0.000 HD
ATOM     31  H   UNL     1       7.525   5.406  18.681  0.00  0.00    +0.000 HD
ENDBRANCH  23  29
ENDBRANCH  18  22
ENDBRANCH   1  18
TORSDOF 6
ENDMDL
MODEL 2
REMARK VINA RESULT:      -8.1      0.986      1.465
REMARK  Name = 
REMARK  6 active torsions:
REMARK  status: ('A' for Active; 'I' for Inactive)
REMARK    1  A    between atoms: C_2  and  C_4
REMARK    2  A    between atoms: N_7  and  C_8
REMARK    3  A    between atoms: C_8  and  C_9
REMARK    4  A    between atoms: C_12  and  C_13
REMARK    5  A    between atoms: C_13  and  C_15
REMARK    6  A    between atoms: C_26  and  N_27
REMARK                            x       y       z     vdW  Elec       q    Type
REMARK                         _______ _______ _______ _____ _____    ______ ____
ROOT
ATOM      1  C   UNL     1       2.884   6.937  18.944  0.00  0.00    +0.000 A 
ATOM      2  C   UNL     1       2.634   7.591  17.735  0.00  0.00    +0.000 A 
ATOM      3  C   UNL     1       1.829   8.730  17.705  0.00  0.00    +0.000 A 
ATOM      4  C   UNL     1       1.234   9.230  18.877  0.00  0.00    +0.000 A 
ATOM      5  C   UNL     1       1.327   8.465  20.046  0.00  0.00    +0.000 A 
ATOM      6 CL   UNL     1       0.410   8.784  21.476  0.00  0.00    +0.000 Cl
ATOM      7  C   UNL     1       2.175   7.345  20.084  0.00  0.00    +0.000 A 
ENDROOT
BRANCH   4   8
ATOM      8  C   UNL     1       0.599  10.577  18.745  0.00  0.00    +0.000 C 
ATOM      9  O   UNL     1       1.306  11.556  18.973  0.00  0.00    +0.000 OA
BRANCH   8  10
ATOM     10  C   UNL     1      -0.865  10.772  18.502  0.00  0.00    +0.000 A 
ATOM     11  C   UNL     1      -1.494  10.079  17.452  0.00  0.00    +0.000 A 
ATOM     12  C   UNL     1      -2.826  10.340  17.118  0.00  0.00    +0.000 A 
ATOM     13  C   UNL     1      -3.567  11.233  17.884  0.00  0.00    +0.000 A 
ATOM     14 CL   UNL     1      -5.190  11.591  17.450  0.00  0.00    +0.000 Cl
ATOM     15  C   UNL     1      -2.995  11.845  18.995  0.00  0.00    +0.000 A 
ATOM     16  C   UNL     1      -1.646  11.622  19.306  0.00  0.00    +0.000 A 
ATOM     17 CL   UNL     1      -1.043  12.477  20.684  0.00  0.00    +0.000 Cl
ENDBRANCH   8  10
ENDBRANCH   4   8
BRANCH   1  18
ATOM     18  C   UNL     1       3.907   5.827  19.023  0.00  0.00    +0.000 C 
BRANCH  18  22
ATOM     19  C   UNL     1       5.967   5.349  16.128  0.00  0.00    +0.000 A 
ATOM     20  N   UNL     1       6.428   6.529  16.668  0.00  0.00    +0.000 NA
ATOM     21  N   UNL     1       5.697   6.812  17.737  0.00  0.00    +0.000 NA
ATOM     22  N   UNL     1       4.799   5.816  17.884  0.00  0.00    +0.000 N 
ATOM     23  C   UNL     1       4.896   4.891  16.874  0.00  0.00    +0.000 A 
BRANCH  19  25
ATOM     24  N   UNL     1       7.632   5.409  14.440  0.00  0.00    +0.000 N 
ATOM     25  C   UNL     1       6.556   4.735  14.950  0.00  0.00    +0.000 C 
ATOM     26  O   UNL     1       6.160   3.696  14.438  0.00  0.00    +0.000 OA
ATOM     27  H   UNL     1       8.128   5.011  13.656  0.00  0.00    +0.000 HD
ATOM     28  H   UNL     1       7.996   6.231  14.907  0.00  0.00    +0.000 HD
ENDBRANCH  19  25
BRANCH  23  29
ATOM     29  N   UNL     1       4.110   3.796  16.761  0.00  0.00    +0.000 N 
ATOM     30  H   UNL     1       4.420   2.835  16.867  0.00  0.00    +0.000 HD
ATOM     31  H   UNL     1       3.092   3.906  16.777  0.00  0.00    +0.000 HD
ENDBRANCH  23  29
ENDBRANCH  18  22
ENDBRANCH   1  18
TORSDOF 6
ENDMDL
MODEL 3
REMARK VINA RESULT:      -8.1      1.192      1.635
REMARK  Name = 
REMARK  6 active torsions:
REMARK  status: ('A' for Active; 'I' for Inactive)
REMARK    1  A    between atoms: C_2  and  C_4
REMARK    2  A    between atoms: N_7  and  C_8
REMARK    3  A    between atoms: C_8  and  C_9
REMARK    4  A    between atoms: C_12  and  C_13
REMARK    5  A    between atoms: C_13  and  C_15
REMARK    6  A    between atoms: C_26  and  N_27
REMARK                            x       y       z     vdW  Elec       q    Type
REMARK                         _______ _______ _______ _____ _____    ______ ____
ROOT
ATOM      1  C   UNL     1       2.547   6.633  19.431  0.00  0.00    +0.000 A 
ATOM      2  C   UNL     1       2.577   7.208  18.158  0.00  0.00    +0.000 A 
ATOM      3  C   UNL     1       2.061   8.488  17.953  0.00  0.00    +0.000 A 
ATOM      4  C   UNL     1       1.480   9.215  19.008  0.00  0.00    +0.000 A 
ATOM      5  C   UNL     1       1.278   8.562  20.230  0.00  0.00    +0.000 A 
ATOM      6 CL   UNL     1       0.318   9.209  21.515  0.00  0.00    +0.000 Cl
ATOM      7  C   UNL     1       1.839   7.293  20.447  0.00  0.00    +0.000 A 
ENDROOT
BRANCH   4   8
ATOM      8  C   UNL     1       1.186  10.650  18.708  0.00  0.00    +0.000 C 
ATOM      9  O   UNL     1       2.112  11.335  18.277  0.00  0.00    +0.000 OA
BRANCH   8  10
ATOM     10  C   UNL     1      -0.115  11.307  19.046  0.00  0.00    +0.000 A 
ATOM     11  C   UNL     1      -0.146  12.339  20.003  0.00  0.00    +0.000 A 
ATOM     12  C   UNL     1      -1.360  12.880  20.435  0.00  0.00    +0.000 A 
ATOM     13  C   UNL     1      -2.549  12.455  19.854  0.00  0.00    +0.000 A 
ATOM     14 CL   UNL     1      -4.047  13.084  20.414  0.00  0.00    +0.000 Cl
ATOM     15  C   UNL     1      -2.532  11.516  18.827  0.00  0.00    +0.000 A 
ATOM     16  C   UNL     1      -1.320  10.937  18.423  0.00  0.00    +0.000 A 
ATOM     17 CL   UNL     1      -1.438   9.749  17.170  0.00  0.00    +0.000 Cl
ENDBRANCH   8  10
ENDBRANCH   4   8
BRANCH   1  18
ATOM     18  C   UNL     1       3.276   5.338  19.709  0.00  0.00    +0.000 C 
BRANCH  18  22
ATOM     19  C   UNL     1       5.626   4.511  17.131  0.00  0.00    +0.000 A 
ATOM     20  N   UNL     1       4.416   4.102  16.616  0.00  0.00    +0.000 NA
ATOM     21  N   UNL     1       3.477   4.338  17.521  0.00  0.00    +0.000 NA
ATOM     22  N   UNL     1       4.080   4.905  18.586  0.00  0.00    +0.000 N 
ATOM     23  C   UNL     1       5.438   4.998  18.412  0.00  0.00    +0.000 A 
BRANCH  19  25
ATOM     24  N   UNL     1       6.721   4.310  15.037  0.00  0.00    +0.000 N 
ATOM     25  C   UNL     1       6.874   4.412  16.393  0.00  0.00    +0.000 C 
ATOM     26  O   UNL     1       7.986   4.432  16.905  0.00  0.00    +0.000 OA
ATOM     27  H   UNL     1       7.546   4.294  14.454  0.00  0.00    +0.000 HD
ATOM     28  H   UNL     1       5.802   4.361  14.615  0.00  0.00    +0.000 HD
ENDBRANCH  19  25
BRANCH  23  29
ATOM     29  N   UNL     1       6.294   5.512  19.325  0.00  0.00    +0.000 N 
ATOM     30  H   UNL     1       7.231   5.170  19.512  0.00  0.00    +0.000 HD
ATOM     31  H   UNL     1       6.102   6.435  19.727  0.00  0.00    +0.000 HD
ENDBRANCH  23  29
ENDBRANCH  18  22
ENDBRANCH   1  18
TORSDOF 6
ENDMDL
MODEL 4
REMARK VINA RESULT:      -7.7      1.995      3.051
REMARK  Name = 
REMARK  6 active torsions:
REMARK  status: ('A' for Active; 'I' for Inactive)
REMARK    1  A    between atoms: C_2  and  C_4
REMARK    2  A    between atoms: N_7  and  C_8
REMARK    3  A    between atoms: C_8  and  C_9
REMARK    4  A    between atoms: C_12  and  C_13
REMARK    5  A    between atoms: C_13  and  C_15
REMARK    6  A    between atoms: C_26  and  N_27
REMARK                            x       y       z     vdW  Elec       q    Type
REMARK                         _______ _______ _______ _____ _____    ______ ____
ROOT
ATOM      1  C   UNL     1       3.100   6.773  19.118  0.00  0.00    +0.000 A 
ATOM      2  C   UNL     1       3.038   7.474  17.911  0.00  0.00    +0.000 A 
ATOM      3  C   UNL     1       2.222   8.599  17.793  0.00  0.00    +0.000 A 
ATOM      4  C   UNL     1       1.429   9.038  18.868  0.00  0.00    +0.000 A 
ATOM      5  C   UNL     1       1.347   8.226  20.005  0.00  0.00    +0.000 A 
ATOM      6 CL   UNL     1       0.199   8.468  21.275  0.00  0.00    +0.000 Cl
ATOM      7  C   UNL     1       2.204   7.120  20.140  0.00  0.00    +0.000 A 
ENDROOT
BRANCH   4   8
ATOM      8  C   UNL     1       0.793  10.379  18.685  0.00  0.00    +0.000 C 
ATOM      9  O   UNL     1      -0.296  10.411  18.115  0.00  0.00    +0.000 OA
BRANCH   8  10
ATOM     10  C   UNL     1       1.479  11.664  19.024  0.00  0.00    +0.000 A 
ATOM     11  C   UNL     1       2.369  12.243  18.100  0.00  0.00    +0.000 A 
ATOM     12  C   UNL     1       3.123  13.369  18.440  0.00  0.00    +0.000 A 
ATOM     13  C   UNL     1       2.935  13.978  19.676  0.00  0.00    +0.000 A 
ATOM     14 CL   UNL     1       3.892  15.335  20.116  0.00  0.00    +0.000 Cl
ATOM     15  C   UNL     1       1.980  13.486  20.561  0.00  0.00    +0.000 A 
ATOM     16  C   UNL     1       1.254  12.329  20.243  0.00  0.00    +0.000 A 
ATOM     17 CL   UNL     1       0.131  11.795  21.446  0.00  0.00    +0.000 Cl
ENDBRANCH   8  10
ENDBRANCH   4   8
BRANCH   1  18
ATOM     18  C   UNL     1       4.123   5.678  19.323  0.00  0.00    +0.000 C 
BRANCH  18  22
ATOM     19  C   UNL     1       5.680   4.699  16.246  0.00  0.00    +0.000 A 
ATOM     20  N   UNL     1       4.507   3.978  16.264  0.00  0.00    +0.000 NA
ATOM     21  N   UNL     1       3.869   4.250  17.394  0.00  0.00    +0.000 NA
ATOM     22  N   UNL     1       4.617   5.144  18.072  0.00  0.00    +0.000 N 
ATOM     23  C   UNL     1       5.789   5.429  17.416  0.00  0.00    +0.000 A 
BRANCH  19  25
ATOM     24  N   UNL     1       6.346   3.689  14.205  0.00  0.00    +0.000 N 
ATOM     25  C   UNL     1       6.622   4.650  15.140  0.00  0.00    +0.000 C 
ATOM     26  O   UNL     1       7.582   5.399  15.013  0.00  0.00    +0.000 OA
ATOM     27  H   UNL     1       6.924   3.634  13.379  0.00  0.00    +0.000 HD
ATOM     28  H   UNL     1       5.513   3.118  14.282  0.00  0.00    +0.000 HD
ENDBRANCH  19  25
BRANCH  23  29
ATOM     29  N   UNL     1       6.735   6.280  17.874  0.00  0.00    +0.000 N 
ATOM     30  H   UNL     1       6.898   7.221  17.528  0.00  0.00    +0.000 HD
ATOM     31  H   UNL     1       7.200   6.081  18.764  0.00  0.00    +0.000 HD
ENDBRANCH  23  29
ENDBRANCH  18  22
ENDBRANCH   1  18
TORSDOF 6
ENDMDL
MODEL 5
REMARK VINA RESULT:      -7.7      2.143      3.369
REMARK  Name = 
REMARK  6 active torsions:
REMARK  status: ('A' for Active; 'I' for Inactive)
REMARK    1  A    between atoms: C_2  and  C_4
REMARK    2  A    between atoms: N_7  and  C_8
REMARK    3  A    between atoms: C_8  and  C_9
REMARK    4  A    between atoms: C_12  and  C_13
REMARK    5  A    between atoms: C_13  and  C_15
REMARK    6  A    between atoms: C_26  and  N_27
REMARK                            x       y       z     vdW  Elec       q    Type
REMARK                         _______ _______ _______ _____ _____    ______ ____
ROOT
ATOM      1  C   UNL     1       3.112   6.865  18.856  0.00  0.00    +0.000 A 
ATOM      2  C   UNL     1       2.924   7.599  17.683  0.00  0.00    +0.000 A 
ATOM      3  C   UNL     1       2.088   8.716  17.680  0.00  0.00    +0.000 A 
ATOM      4  C   UNL     1       1.400   9.113  18.840  0.00  0.00    +0.000 A 
ATOM      5  C   UNL     1       1.439   8.266  19.955  0.00  0.00    +0.000 A 
ATOM      6 CL   UNL     1       0.419   8.456  21.338  0.00  0.00    +0.000 Cl
ATOM      7  C   UNL     1       2.317   7.170  19.971  0.00  0.00    +0.000 A 
ENDROOT
BRANCH   4   8
ATOM      8  C   UNL     1       0.734  10.449  18.762  0.00  0.00    +0.000 C 
ATOM      9  O   UNL     1      -0.400  10.485  18.291  0.00  0.00    +0.000 OA
BRANCH   8  10
ATOM     10  C   UNL     1       1.433  11.732  19.085  0.00  0.00    +0.000 A 
ATOM     11  C   UNL     1       2.307  12.305  18.143  0.00  0.00    +0.000 A 
ATOM     12  C   UNL     1       3.073  13.429  18.466  0.00  0.00    +0.000 A 
ATOM     13  C   UNL     1       2.911  14.041  19.704  0.00  0.00    +0.000 A 
ATOM     14 CL   UNL     1       3.883  15.395  20.122  0.00  0.00    +0.000 Cl
ATOM     15  C   UNL     1       1.971  13.556  20.607  0.00  0.00    +0.000 A 
ATOM     16  C   UNL     1       1.233  12.402  20.306  0.00  0.00    +0.000 A 
ATOM     17 CL   UNL     1       0.131  11.875  21.531  0.00  0.00    +0.000 Cl
ENDBRANCH   8  10
ENDBRANCH   4   8
BRANCH   1  18
ATOM     18  C   UNL     1       4.162   5.779  18.926  0.00  0.00    +0.000 C 
BRANCH  18  22
ATOM     19  C   UNL     1       6.153   5.350  15.976  0.00  0.00    +0.000 A 
ATOM     20  N   UNL     1       6.689   6.468  16.573  0.00  0.00    +0.000 NA
ATOM     21  N   UNL     1       5.989   6.731  17.668  0.00  0.00    +0.000 NA
ATOM     22  N   UNL     1       5.036   5.782  17.773  0.00  0.00    +0.000 N 
ATOM     23  C   UNL     1       5.066   4.912  16.712  0.00  0.00    +0.000 A 
BRANCH  19  25
ATOM     24  N   UNL     1       7.716   5.483  14.196  0.00  0.00    +0.000 N 
ATOM     25  C   UNL     1       6.689   4.771  14.755  0.00  0.00    +0.000 C 
ATOM     26  O   UNL     1       6.292   3.729  14.249  0.00  0.00    +0.000 OA
ATOM     27  H   UNL     1       8.176   5.112  13.378  0.00  0.00    +0.000 HD
ATOM     28  H   UNL     1       8.083   6.307  14.656  0.00  0.00    +0.000 HD
ENDBRANCH  19  25
BRANCH  23  29
ATOM     29  N   UNL     1       4.216   3.872  16.550  0.00  0.00    +0.000 N 
ATOM     30  H   UNL     1       3.754   3.367  17.299  0.00  0.00    +0.000 HD
ATOM     31  H   UNL     1       3.824   3.686  15.622  0.00  0.00    +0.000 HD
ENDBRANCH  23  29
ENDBRANCH  18  22
ENDBRANCH   1  18
TORSDOF 6
ENDMDL
MODEL 6
REMARK VINA RESULT:      -7.7      2.579      3.465
REMARK  Name = 
REMARK  6 active torsions:
REMARK  status: ('A' for Active; 'I' for Inactive)
REMARK    1  A    between atoms: C_2  and  C_4
REMARK    2  A    between atoms: N_7  and  C_8
REMARK    3  A    between atoms: C_8  and  C_9
REMARK    4  A    between atoms: C_12  and  C_13
REMARK    5  A    between atoms: C_13  and  C_15
REMARK    6  A    between atoms: C_26  and  N_27
REMARK                            x       y       z     vdW  Elec       q    Type
REMARK                         _______ _______ _______ _____ _____    ______ ____
ROOT
ATOM      1  C   UNL     1       2.620   7.668  18.327  0.00  0.00    +0.000 A 
ATOM      2  C   UNL     1       1.952   8.625  17.558  0.00  0.00    +0.000 A 
ATOM      3  C   UNL     1       1.113   9.556  18.169  0.00  0.00    +0.000 A 
ATOM      4  C   UNL     1       0.899   9.541  19.559  0.00  0.00    +0.000 A 
ATOM      5  C   UNL     1       1.413   8.467  20.296  0.00  0.00    +0.000 A 
ATOM      6 CL   UNL     1       0.990   8.145  21.941  0.00  0.00    +0.000 Cl
ATOM      7  C   UNL     1       2.295   7.558  19.687  0.00  0.00    +0.000 A 
ENDROOT
BRANCH   4   8
ATOM      8  C   UNL     1       0.174  10.729  20.106  0.00  0.00    +0.000 C 
ATOM      9  O   UNL     1      -0.794  10.510  20.831  0.00  0.00    +0.000 OA
BRANCH   8  10
ATOM     10  C   UNL     1       0.479  12.134  19.696  0.00  0.00    +0.000 A 
ATOM     11  C   UNL     1       1.591  12.796  20.251  0.00  0.00    +0.000 A 
ATOM     12  C   UNL     1       1.824  14.149  19.988  0.00  0.00    +0.000 A 
ATOM     13  C   UNL     1       0.998  14.831  19.102  0.00  0.00    +0.000 A 
ATOM     14 CL   UNL     1       1.254  16.506  18.811  0.00  0.00    +0.000 Cl
ATOM     15  C   UNL     1      -0.039  14.166  18.457  0.00  0.00    +0.000 A 
ATOM     16  C   UNL     1      -0.306  12.822  18.752  0.00  0.00    +0.000 A 
ATOM     17 CL   UNL     1      -1.650  12.123  17.917  0.00  0.00    +0.000 Cl
ENDBRANCH   8  10
ENDBRANCH   4   8
BRANCH   1  18
ATOM     18  C   UNL     1       3.679   6.785  17.709  0.00  0.00    +0.000 C 
BRANCH  18  22
ATOM     19  C   UNL     1       3.777   3.365  18.781  0.00  0.00    +0.000 A 
ATOM     20  N   UNL     1       2.572   3.469  18.125  0.00  0.00    +0.000 NA
ATOM     21  N   UNL     1       2.426   4.722  17.716  0.00  0.00    +0.000 NA
ATOM     22  N   UNL     1       3.532   5.397  18.090  0.00  0.00    +0.000 N 
ATOM     23  C   UNL     1       4.396   4.602  18.802  0.00  0.00    +0.000 A 
BRANCH  19  25
ATOM     24  N   UNL     1       4.061   1.021  18.558  0.00  0.00    +0.000 N 
ATOM     25  C   UNL     1       4.265   2.119  19.349  0.00  0.00    +0.000 C 
ATOM     26  O   UNL     1       4.828   2.024  20.432  0.00  0.00    +0.000 OA
ATOM     27  H   UNL     1       4.424   0.129  18.862  0.00  0.00    +0.000 HD
ATOM     28  H   UNL     1       3.655   1.116  17.635  0.00  0.00    +0.000 HD
ENDBRANCH  19  25
BRANCH  23  29
ATOM     29  N   UNL     1       5.576   5.021  19.314  0.00  0.00    +0.000 N 
ATOM     30  H   UNL     1       5.880   4.896  20.274  0.00  0.00    +0.000 HD
ATOM     31  H   UNL     1       6.328   5.301  18.676  0.00  0.00    +0.000 HD
ENDBRANCH  23  29
ENDBRANCH  18  22
ENDBRANCH   1  18
TORSDOF 6
ENDMDL
MODEL 7
REMARK VINA RESULT:      -7.7      1.382      2.113
REMARK  Name = 
REMARK  6 active torsions:
REMARK  status: ('A' for Active; 'I' for Inactive)
REMARK    1  A    between atoms: C_2  and  C_4
REMARK    2  A    between atoms: N_7  and  C_8
REMARK    3  A    between atoms: C_8  and  C_9
REMARK    4  A    between atoms: C_12  and  C_13
REMARK    5  A    between atoms: C_13  and  C_15
REMARK    6  A    between atoms: C_26  and  N_27
REMARK                            x       y       z     vdW  Elec       q    Type
REMARK                         _______ _______ _______ _____ _____    ______ ____
ROOT
ATOM      1  C   UNL     1       2.404   6.625  19.221  0.00  0.00    +0.000 A 
ATOM      2  C   UNL     1       2.301   7.239  17.971  0.00  0.00    +0.000 A 
ATOM      3  C   UNL     1       1.822   8.546  17.867  0.00  0.00    +0.000 A 
ATOM      4  C   UNL     1       1.411   9.262  19.005  0.00  0.00    +0.000 A 
ATOM      5  C   UNL     1       1.334   8.579  20.225  0.00  0.00    +0.000 A 
ATOM      6 CL   UNL     1       0.573   9.224  21.637  0.00  0.00    +0.000 Cl
ATOM      7  C   UNL     1       1.860   7.281  20.336  0.00  0.00    +0.000 A 
ENDROOT
BRANCH   4   8
ATOM      8  C   UNL     1       1.148  10.717  18.782  0.00  0.00    +0.000 C 
ATOM      9  O   UNL     1       2.092  11.407  18.405  0.00  0.00    +0.000 OA
BRANCH   8  10
ATOM     10  C   UNL     1      -0.146  11.378  19.138  0.00  0.00    +0.000 A 
ATOM     11  C   UNL     1      -0.169  12.373  20.133  0.00  0.00    +0.000 A 
ATOM     12  C   UNL     1      -1.379  12.913  20.578  0.00  0.00    +0.000 A 
ATOM     13  C   UNL     1      -2.570  12.527  19.974  0.00  0.00    +0.000 A 
ATOM     14 CL   UNL     1      -4.064  13.154  20.549  0.00  0.00    +0.000 Cl
ATOM     15  C   UNL     1      -2.559  11.627  18.913  0.00  0.00    +0.000 A 
ATOM     16  C   UNL     1      -1.352  11.048  18.494  0.00  0.00    +0.000 A 
ATOM     17 CL   UNL     1      -1.478   9.911  17.195  0.00  0.00    +0.000 Cl
ENDBRANCH   8  10
ENDBRANCH   4   8
BRANCH   1  18
ATOM     18  C   UNL     1       3.102   5.293  19.371  0.00  0.00    +0.000 C 
BRANCH  18  22
ATOM     19  C   UNL     1       6.336   5.127  17.832  0.00  0.00    +0.000 A 
ATOM     20  N   UNL     1       6.595   5.634  19.086  0.00  0.00    +0.000 NA
ATOM     21  N   UNL     1       5.442   5.766  19.728  0.00  0.00    +0.000 NA
ATOM     22  N   UNL     1       4.470   5.331  18.900  0.00  0.00    +0.000 N 
ATOM     23  C   UNL     1       4.972   4.957  17.678  0.00  0.00    +0.000 A 
BRANCH  19  25
ATOM     24  N   UNL     1       7.303   5.581  15.715  0.00  0.00    +0.000 N 
ATOM     25  C   UNL     1       7.381   4.841  16.863  0.00  0.00    +0.000 C 
ATOM     26  O   UNL     1       8.280   4.027  17.032  0.00  0.00    +0.000 OA
ATOM     27  H   UNL     1       8.028   5.478  15.020  0.00  0.00    +0.000 HD
ATOM     28  H   UNL     1       6.597   6.300  15.609  0.00  0.00    +0.000 HD
ENDBRANCH  19  25
BRANCH  23  29
ATOM     29  N   UNL     1       4.222   4.495  16.652  0.00  0.00    +0.000 N 
ATOM     30  H   UNL     1       3.909   5.044  15.857  0.00  0.00    +0.000 HD
ATOM     31  H   UNL     1       4.118   3.484  16.522  0.00  0.00    +0.000 HD
ENDBRANCH  23  29
ENDBRANCH  18  22
ENDBRANCH   1  18
TORSDOF 6
ENDMDL
MODEL 8
REMARK VINA RESULT:      -7.7      2.713      3.592
REMARK  Name = 
REMARK  6 active torsions:
REMARK  status: ('A' for Active; 'I' for Inactive)
REMARK    1  A    between atoms: C_2  and  C_4
REMARK    2  A    between atoms: N_7  and  C_8
REMARK    3  A    between atoms: C_8  and  C_9
REMARK    4  A    between atoms: C_12  and  C_13
REMARK    5  A    between atoms: C_13  and  C_15
REMARK    6  A    between atoms: C_26  and  N_27
REMARK                            x       y       z     vdW  Elec       q    Type
REMARK                         _______ _______ _______ _____ _____    ______ ____
ROOT
ATOM      1  C   UNL     1       1.974   8.027  19.338  0.00  0.00    +0.000 A 
ATOM      2  C   UNL     1       1.704   8.549  18.071  0.00  0.00    +0.000 A 
ATOM      3  C   UNL     1       0.890   9.674  17.933  0.00  0.00    +0.000 A 
ATOM      4  C   UNL     1       0.308  10.291  19.054  0.00  0.00    +0.000 A 
ATOM      5  C   UNL     1       0.423   9.654  20.296  0.00  0.00    +0.000 A 
ATOM      6 CL   UNL     1      -0.477  10.117  21.698  0.00  0.00    +0.000 Cl
ATOM      7  C   UNL     1       1.279   8.549  20.439  0.00  0.00    +0.000 A 
ENDROOT
BRANCH   4   8
ATOM      8  C   UNL     1      -0.338  11.614  18.791  0.00  0.00    +0.000 C 
ATOM      9  O   UNL     1       0.405  12.571  18.585  0.00  0.00    +0.000 OA
BRANCH   8  10
ATOM     10  C   UNL     1      -1.811  11.845  18.917  0.00  0.00    +0.000 A 
ATOM     11  C   UNL     1      -2.308  12.599  19.997  0.00  0.00    +0.000 A 
ATOM     12  C   UNL     1      -3.683  12.719  20.214  0.00  0.00    +0.000 A 
ATOM     13  C   UNL     1      -4.576  12.160  19.306  0.00  0.00    +0.000 A 
ATOM     14 CL   UNL     1      -6.267  12.268  19.593  0.00  0.00    +0.000 Cl
ATOM     15  C   UNL     1      -4.105  11.506  18.172  0.00  0.00    +0.000 A 
ATOM     16  C   UNL     1      -2.726  11.342  17.975  0.00  0.00    +0.000 A 
ATOM     17 CL   UNL     1      -2.271  10.472  16.550  0.00  0.00    +0.000 Cl
ENDBRANCH   8  10
ENDBRANCH   4   8
BRANCH   1  18
ATOM     18  C   UNL     1       3.006   6.937  19.519  0.00  0.00    +0.000 C 
BRANCH  18  22
ATOM     19  C   UNL     1       1.634   3.633  19.286  0.00  0.00    +0.000 A 
ATOM     20  N   UNL     1       1.207   4.080  20.517  0.00  0.00    +0.000 NA
ATOM     21  N   UNL     1       1.698   5.296  20.712  0.00  0.00    +0.000 NA
ATOM     22  N   UNL     1       2.409   5.622  19.613  0.00  0.00    +0.000 N 
ATOM     23  C   UNL     1       2.438   4.596  18.702  0.00  0.00    +0.000 A 
BRANCH  19  25
ATOM     24  N   UNL     1       2.311   1.465  18.605  0.00  0.00    +0.000 N 
ATOM     25  C   UNL     1       1.265   2.336  18.744  0.00  0.00    +0.000 C 
ATOM     26  O   UNL     1       0.125   2.010  18.442  0.00  0.00    +0.000 OA
ATOM     27  H   UNL     1       2.122   0.525  18.288  0.00  0.00    +0.000 HD
ATOM     28  H   UNL     1       3.240   1.718  18.919  0.00  0.00    +0.000 HD
ENDBRANCH  19  25
BRANCH  23  29
ATOM     29  N   UNL     1       3.089   4.641  17.518  0.00  0.00    +0.000 N 
ATOM     30  H   UNL     1       2.690   4.400  16.616  0.00  0.00    +0.000 HD
ATOM     31  H   UNL     1       3.979   5.145  17.454  0.00  0.00    +0.000 HD
ENDBRANCH  23  29
ENDBRANCH  18  22
ENDBRANCH   1  18
TORSDOF 6
ENDMDL
MODEL 9
REMARK VINA RESULT:      -7.7      1.416      2.102
REMARK  Name = 
REMARK  6 active torsions:
REMARK  status: ('A' for Active; 'I' for Inactive)
REMARK    1  A    between atoms: C_2  and  C_4
REMARK    2  A    between atoms: N_7  and  C_8
REMARK    3  A    between atoms: C_8  and  C_9
REMARK    4  A    between atoms: C_12  and  C_13
REMARK    5  A    between atoms: C_13  and  C_15
REMARK    6  A    between atoms: C_26  and  N_27
REMARK                            x       y       z     vdW  Elec       q    Type
REMARK                         _______ _______ _______ _____ _____    ______ ____
ROOT
ATOM      1  C   UNL     1       2.529   7.092  19.011  0.00  0.00    +0.000 A 
ATOM      2  C   UNL     1       2.362   7.763  17.797  0.00  0.00    +0.000 A 
ATOM      3  C   UNL     1       1.750   9.016  17.765  0.00  0.00    +0.000 A 
ATOM      4  C   UNL     1       1.268   9.620  18.940  0.00  0.00    +0.000 A 
ATOM      5  C   UNL     1       1.262   8.863  20.118  0.00  0.00    +0.000 A 
ATOM      6 CL   UNL     1       0.438   9.344  21.561  0.00  0.00    +0.000 Cl
ATOM      7  C   UNL     1       1.920   7.622  20.158  0.00  0.00    +0.000 A 
ENDROOT
BRANCH   4   8
ATOM      8  C   UNL     1       0.855  11.050  18.800  0.00  0.00    +0.000 C 
ATOM      9  O   UNL     1       1.737  11.866  18.543  0.00  0.00    +0.000 OA
BRANCH   8  10
ATOM     10  C   UNL     1      -0.527  11.536  19.102  0.00  0.00    +0.000 A 
ATOM     11  C   UNL     1      -0.721  12.503  20.107  0.00  0.00    +0.000 A 
ATOM     12  C   UNL     1      -2.008  12.878  20.502  0.00  0.00    +0.000 A 
ATOM     13  C   UNL     1      -3.112  12.355  19.839  0.00  0.00    +0.000 A 
ATOM     14 CL   UNL     1      -4.697  12.778  20.351  0.00  0.00    +0.000 Cl
ATOM     15  C   UNL     1      -2.939  11.483  18.769  0.00  0.00    +0.000 A 
ATOM     16  C   UNL     1      -1.652  11.067  18.399  0.00  0.00    +0.000 A 
ATOM     17 CL   UNL     1      -1.574   9.947  17.083  0.00  0.00    +0.000 Cl
ENDBRANCH   8  10
ENDBRANCH   4   8
BRANCH   1  18
ATOM     18  C   UNL     1       3.362   5.832  19.088  0.00  0.00    +0.000 C 
BRANCH  18  22
ATOM     19  C   UNL     1       5.735   5.264  16.461  0.00  0.00    +0.000 A 
ATOM     20  N   UNL     1       6.173   6.428  17.053  0.00  0.00    +0.000 NA
ATOM     21  N   UNL     1       5.330   6.743  18.027  0.00  0.00    +0.000 NA
ATOM     22  N   UNL     1       4.383   5.783  18.064  0.00  0.00    +0.000 N 
ATOM     23  C   UNL     1       4.565   4.851  17.073  0.00  0.00    +0.000 A 
BRANCH  19  25
ATOM     24  N   UNL     1       7.534   5.309  14.916  0.00  0.00    +0.000 N 
ATOM     25  C   UNL     1       6.437   4.623  15.361  0.00  0.00    +0.000 C 
ATOM     26  O   UNL     1       6.112   3.554  14.861  0.00  0.00    +0.000 OA
ATOM     27  H   UNL     1       8.105   4.897  14.192  0.00  0.00    +0.000 HD
ATOM     28  H   UNL     1       7.835   6.158  15.378  0.00  0.00    +0.000 HD
ENDBRANCH  19  25
BRANCH  23  29
ATOM     29  N   UNL     1       3.757   3.786  16.865  0.00  0.00    +0.000 N 
ATOM     30  H   UNL     1       2.956   3.533  17.436  0.00  0.00    +0.000 HD
ATOM     31  H   UNL     1       3.793   3.297  15.965  0.00  0.00    +0.000 HD
ENDBRANCH  23  29
ENDBRANCH  18  22
ENDBRANCH   1  18
TORSDOF 6
ENDMDL
