MODEL 1
REMARK VINA RESULT:      -5.0      0.000      0.000
REMARK  Name = 
REMARK  7 active torsions:
REMARK  status: ('A' for Active; 'I' for Inactive)
REMARK    1  A    between atoms: C_1  and  O_2
REMARK    2  A    between atoms: O_2  and  C_3
REMARK    3  A    between atoms: C_3  and  C_4
REMARK    4  A    between atoms: C_4  and  C_5
REMARK    5  A    between atoms: C_4  and  C_6
REMARK    6  A    between atoms: C_4  and  N_11
REMARK    7  A    between atoms: C_6  and  S_7
REMARK                            x       y       z     vdW  Elec       q    Type
REMARK                         _______ _______ _______ _____ _____    ______ ____
ROOT
ATOM      1  C   UNL     1       3.702   3.662  18.571  0.00  0.00    +0.000 C 
ATOM      2  C   UNL     1       3.325   2.525  17.579  0.00  0.00    +0.000 C 
ENDROOT
BRANCH   1   3
ATOM      3  N   UNL     1       2.734   4.787  18.457  0.00  0.00    +0.000 NA
ATOM      4 CL   UNL     1       3.401   6.349  17.962  0.00  0.00    +0.000 Cl
ATOM      5 CL   UNL     1       1.288   4.456  17.495  0.00  0.00    +0.000 Cl
ENDBRANCH   1   3
BRANCH   1   6
ATOM      6  C   UNL     1       5.127   4.149  18.180  0.00  0.00    +0.000 C 
BRANCH   6   8
ATOM      7  C   UNL     1       6.753   5.490  19.231  0.00  0.00    +0.000 C 
ATOM      8  O   UNL     1       5.943   4.344  19.348  0.00  0.00    +0.000 OA
ENDBRANCH   6   8
ENDBRANCH   1   6
BRANCH   1   9
ATOM      9  C   UNL     1       3.727   3.030  19.988  0.00  0.00    +0.000 C 
BRANCH   9  10
ATOM     10  S   UNL     1       2.277   3.247  21.004  0.00  0.00    +0.000 S 
ATOM     11  O   UNL     1       1.190   2.666  20.229  0.00  0.00    +0.000 OA
ATOM     12  O   UNL     1       2.626   2.529  22.212  0.00  0.00    +0.000 OA
ATOM     13  O   UNL     1       2.175   4.703  21.196  0.00  0.00    +0.000 OA
ENDBRANCH   9  10
ENDBRANCH   1   9
TORSDOF 5
ENDMDL
MODEL 2
REMARK VINA RESULT:      -5.0      3.263      4.758
REMARK  Name = 
REMARK  7 active torsions:
REMARK  status: ('A' for Active; 'I' for Inactive)
REMARK    1  A    between atoms: C_1  and  O_2
REMARK    2  A    between atoms: O_2  and  C_3
REMARK    3  A    between atoms: C_3  and  C_4
REMARK    4  A    between atoms: C_4  and  C_5
REMARK    5  A    between atoms: C_4  and  C_6
REMARK    6  A    between atoms: C_4  and  N_11
REMARK    7  A    between atoms: C_6  and  S_7
REMARK                            x       y       z     vdW  Elec       q    Type
REMARK                         _______ _______ _______ _____ _____    ______ ____
ROOT
ATOM      1  C   UNL     1       4.834   4.857  17.513  0.00  0.00    +0.000 C 
ATOM      2  C   UNL     1       3.753   5.953  17.736  0.00  0.00    +0.000 C 
ENDROOT
BRANCH   1   3
ATOM      3  N   UNL     1       5.661   5.185  16.321  0.00  0.00    +0.000 NA
ATOM      4 CL   UNL     1       5.985   3.855  15.200  0.00  0.00    +0.000 Cl
ATOM      5 CL   UNL     1       5.138   6.596  15.392  0.00  0.00    +0.000 Cl
ENDBRANCH   1   3
BRANCH   1   6
ATOM      6  C   UNL     1       4.077   3.517  17.280  0.00  0.00    +0.000 C 
BRANCH   6   8
ATOM      7  C   UNL     1       2.760   2.160  18.684  0.00  0.00    +0.000 C 
ATOM      8  O   UNL     1       4.030   2.737  18.487  0.00  0.00    +0.000 OA
ENDBRANCH   6   8
ENDBRANCH   1   6
BRANCH   1   9
ATOM      9  C   UNL     1       5.666   4.776  18.820  0.00  0.00    +0.000 C 
BRANCH   9  10
ATOM     10  S   UNL     1       7.334   5.406  18.765  0.00  0.00    +0.000 S 
ATOM     11  O   UNL     1       7.216   6.718  18.145  0.00  0.00    +0.000 OA
ATOM     12  O   UNL     1       7.715   5.416  20.162  0.00  0.00    +0.000 OA
ATOM     13  O   UNL     1       8.075   4.420  17.962  0.00  0.00    +0.000 OA
ENDBRANCH   9  10
ENDBRANCH   1   9
TORSDOF 5
ENDMDL
MODEL 3
REMARK VINA RESULT:      -4.8      3.722      5.180
REMARK  Name = 
REMARK  7 active torsions:
REMARK  status: ('A' for Active; 'I' for Inactive)
REMARK    1  A    between atoms: C_1  and  O_2
REMARK    2  A    between atoms: O_2  and  C_3
REMARK    3  A    between atoms: C_3  and  C_4
REMARK    4  A    between atoms: C_4  and  C_5
REMARK    5  A    between atoms: C_4  and  C_6
REMARK    6  A    between atoms: C_4  and  N_11
REMARK    7  A    between atoms: C_6  and  S_7
REMARK                            x       y       z     vdW  Elec       q    Type
REMARK                         _______ _______ _______ _____ _____    ______ ____
ROOT
ATOM      1  C   UNL     1       4.652   4.476  17.326  0.00  0.00    +0.000 C 
ATOM      2  C   UNL     1       3.358   3.620  17.213  0.00  0.00    +0.000 C 
ENDROOT
BRANCH   1   3
ATOM      3  N   UNL     1       5.444   4.057  18.514  0.00  0.00    +0.000 NA
ATOM      4 CL   UNL     1       6.200   5.354  19.449  0.00  0.00    +0.000 Cl
ATOM      5 CL   UNL     1       4.625   2.955  19.628  0.00  0.00    +0.000 Cl
ENDBRANCH   1   3
BRANCH   1   6
ATOM      6  C   UNL     1       4.202   5.957  17.484  0.00  0.00    +0.000 C 
BRANCH   6   8
ATOM      7  C   UNL     1       2.546   7.377  18.374  0.00  0.00    +0.000 C 
ATOM      8  O   UNL     1       3.001   6.048  18.272  0.00  0.00    +0.000 OA
ENDBRANCH   6   8
ENDBRANCH   1   6
BRANCH   1   9
ATOM      9  C   UNL     1       5.425   4.296  15.992  0.00  0.00    +0.000 C 
BRANCH   9  10
ATOM     10  S   UNL     1       6.962   5.183  15.815  0.00  0.00    +0.000 S 
ATOM     11  O   UNL     1       6.689   6.510  16.350  0.00  0.00    +0.000 OA
ATOM     12  O   UNL     1       7.883   4.382  16.593  0.00  0.00    +0.000 OA
ATOM     13  O   UNL     1       7.239   5.158  14.369  0.00  0.00    +0.000 OA
ENDBRANCH   9  10
ENDBRANCH   1   9
TORSDOF 5
ENDMDL
MODEL 4
REMARK VINA RESULT:      -4.8      1.076      1.709
REMARK  Name = 
REMARK  7 active torsions:
REMARK  status: ('A' for Active; 'I' for Inactive)
REMARK    1  A    between atoms: C_1  and  O_2
REMARK    2  A    between atoms: O_2  and  C_3
REMARK    3  A    between atoms: C_3  and  C_4
REMARK    4  A    between atoms: C_4  and  C_5
REMARK    5  A    between atoms: C_4  and  C_6
REMARK    6  A    between atoms: C_4  and  N_11
REMARK    7  A    between atoms: C_6  and  S_7
REMARK                            x       y       z     vdW  Elec       q    Type
REMARK                         _______ _______ _______ _____ _____    ______ ____
ROOT
ATOM      1  C   UNL     1       3.598   3.582  18.559  0.00  0.00    +0.000 C 
ATOM      2  C   UNL     1       3.104   2.429  17.638  0.00  0.00    +0.000 C 
ENDROOT
BRANCH   1   3
ATOM      3  N   UNL     1       2.684   4.752  18.454  0.00  0.00    +0.000 NA
ATOM      4 CL   UNL     1       3.430   6.293  18.010  0.00  0.00    +0.000 Cl
ATOM      5 CL   UNL     1       1.244   4.509  17.457  0.00  0.00    +0.000 Cl
ENDBRANCH   1   3
BRANCH   1   6
ATOM      6  C   UNL     1       5.021   3.976  18.066  0.00  0.00    +0.000 C 
BRANCH   6   8
ATOM      7  C   UNL     1       6.210   4.462  16.091  0.00  0.00    +0.000 C 
ATOM      8  O   UNL     1       5.175   3.696  16.663  0.00  0.00    +0.000 OA
ENDBRANCH   6   8
ENDBRANCH   1   6
BRANCH   1   9
ATOM      9  C   UNL     1       3.675   3.004  19.997  0.00  0.00    +0.000 C 
BRANCH   9  10
ATOM     10  S   UNL     1       2.270   3.274  21.061  0.00  0.00    +0.000 S 
ATOM     11  O   UNL     1       2.230   4.716  21.264  0.00  0.00    +0.000 OA
ATOM     12  O   UNL     1       1.175   2.731  20.284  0.00  0.00    +0.000 OA
ATOM     13  O   UNL     1       2.570   2.498  22.275  0.00  0.00    +0.000 OA
ENDBRANCH   9  10
ENDBRANCH   1   9
TORSDOF 5
ENDMDL
MODEL 5
REMARK VINA RESULT:      -4.8      3.127      4.705
REMARK  Name = 
REMARK  7 active torsions:
REMARK  status: ('A' for Active; 'I' for Inactive)
REMARK    1  A    between atoms: C_1  and  O_2
REMARK    2  A    between atoms: O_2  and  C_3
REMARK    3  A    between atoms: C_3  and  C_4
REMARK    4  A    between atoms: C_4  and  C_5
REMARK    5  A    between atoms: C_4  and  C_6
REMARK    6  A    between atoms: C_4  and  N_11
REMARK    7  A    between atoms: C_6  and  S_7
REMARK                            x       y       z     vdW  Elec       q    Type
REMARK                         _______ _______ _______ _____ _____    ______ ____
ROOT
ATOM      1  C   UNL     1       4.762   5.365  18.290  0.00  0.00    +0.000 C 
ATOM      2  C   UNL     1       3.522   5.569  19.207  0.00  0.00    +0.000 C 
ENDROOT
BRANCH   1   3
ATOM      3  N   UNL     1       4.884   6.496  17.331  0.00  0.00    +0.000 NA
ATOM      4 CL   UNL     1       5.143   6.062  15.636  0.00  0.00    +0.000 Cl
ATOM      5 CL   UNL     1       3.603   7.713  17.417  0.00  0.00    +0.000 Cl
ENDBRANCH   1   3
BRANCH   1   6
ATOM      6  C   UNL     1       4.537   4.035  17.515  0.00  0.00    +0.000 C 
BRANCH   6   8
ATOM      7  C   UNL     1       3.392   2.009  17.881  0.00  0.00    +0.000 C 
ATOM      8  O   UNL     1       4.295   2.945  18.422  0.00  0.00    +0.000 OA
ENDBRANCH   6   8
ENDBRANCH   1   6
BRANCH   1   9
ATOM      9  C   UNL     1       5.993   5.232  19.225  0.00  0.00    +0.000 C 
BRANCH   9  10
ATOM     10  S   UNL     1       7.601   5.494  18.499  0.00  0.00    +0.000 S 
ATOM     11  O   UNL     1       7.580   6.875  18.037  0.00  0.00    +0.000 OA
ATOM     12  O   UNL     1       8.496   5.227  19.605  0.00  0.00    +0.000 OA
ATOM     13  O   UNL     1       7.687   4.495  17.421  0.00  0.00    +0.000 OA
ENDBRANCH   9  10
ENDBRANCH   1   9
TORSDOF 5
ENDMDL
MODEL 6
REMARK VINA RESULT:      -4.8      2.764      4.495
REMARK  Name = 
REMARK  7 active torsions:
REMARK  status: ('A' for Active; 'I' for Inactive)
REMARK    1  A    between atoms: C_1  and  O_2
REMARK    2  A    between atoms: O_2  and  C_3
REMARK    3  A    between atoms: C_3  and  C_4
REMARK    4  A    between atoms: C_4  and  C_5
REMARK    5  A    between atoms: C_4  and  C_6
REMARK    6  A    between atoms: C_4  and  N_11
REMARK    7  A    between atoms: C_6  and  S_7
REMARK                            x       y       z     vdW  Elec       q    Type
REMARK                         _______ _______ _______ _____ _____    ______ ____
ROOT
ATOM      1  C   UNL     1       3.242   4.454  19.013  0.00  0.00    +0.000 C 
ATOM      2  C   UNL     1       2.068   4.794  18.051  0.00  0.00    +0.000 C 
ENDROOT
BRANCH   1   3
ATOM      3  N   UNL     1       3.789   3.106  18.701  0.00  0.00    +0.000 NA
ATOM      4 CL   UNL     1       4.482   2.207  20.058  0.00  0.00    +0.000 Cl
ATOM      5 CL   UNL     1       2.709   2.033  17.801  0.00  0.00    +0.000 Cl
ENDBRANCH   1   3
BRANCH   1   6
ATOM      6  C   UNL     1       2.663   4.469  20.457  0.00  0.00    +0.000 C 
BRANCH   6   8
ATOM      7  C   UNL     1       1.283   2.797  21.378  0.00  0.00    +0.000 C 
ATOM      8  O   UNL     1       1.347   3.888  20.489  0.00  0.00    +0.000 OA
ENDBRANCH   6   8
ENDBRANCH   1   6
BRANCH   1   9
ATOM      9  C   UNL     1       4.294   5.583  18.851  0.00  0.00    +0.000 C 
BRANCH   9  10
ATOM     10  S   UNL     1       5.666   5.269  17.755  0.00  0.00    +0.000 S 
ATOM     11  O   UNL     1       5.073   4.612  16.598  0.00  0.00    +0.000 OA
ATOM     12  O   UNL     1       6.187   6.597  17.510  0.00  0.00    +0.000 OA
ATOM     13  O   UNL     1       6.576   4.416  18.536  0.00  0.00    +0.000 OA
ENDBRANCH   9  10
ENDBRANCH   1   9
TORSDOF 5
ENDMDL
MODEL 7
REMARK VINA RESULT:      -4.8      1.861      1.953
REMARK  Name = 
REMARK  7 active torsions:
REMARK  status: ('A' for Active; 'I' for Inactive)
REMARK    1  A    between atoms: C_1  and  O_2
REMARK    2  A    between atoms: O_2  and  C_3
REMARK    3  A    between atoms: C_3  and  C_4
REMARK    4  A    between atoms: C_4  and  C_5
REMARK    5  A    between atoms: C_4  and  C_6
REMARK    6  A    between atoms: C_4  and  N_11
REMARK    7  A    between atoms: C_6  and  S_7
REMARK                            x       y       z     vdW  Elec       q    Type
REMARK                         _______ _______ _______ _____ _____    ______ ____
ROOT
ATOM      1  C   UNL     1       4.206   4.721  18.140  0.00  0.00    +0.000 C 
ATOM      2  C   UNL     1       4.186   3.957  16.784  0.00  0.00    +0.000 C 
ENDROOT
BRANCH   1   3
ATOM      3  N   UNL     1       2.818   5.021  18.583  0.00  0.00    +0.000 NA
ATOM      4 CL   UNL     1       2.441   6.722  18.884  0.00  0.00    +0.000 Cl
ATOM      5 CL   UNL     1       1.531   4.321  17.591  0.00  0.00    +0.000 Cl
ENDBRANCH   1   3
BRANCH   1   6
ATOM      6  C   UNL     1       4.984   6.047  17.899  0.00  0.00    +0.000 C 
BRANCH   6   8
ATOM      7  C   UNL     1       7.245   6.475  17.399  0.00  0.00    +0.000 C 
ATOM      8  O   UNL     1       6.348   5.930  18.338  0.00  0.00    +0.000 OA
ENDBRANCH   6   8
ENDBRANCH   1   6
BRANCH   1   9
ATOM      9  C   UNL     1       4.980   3.827  19.145  0.00  0.00    +0.000 C 
BRANCH   9  10
ATOM     10  S   UNL     1       4.103   2.440  19.845  0.00  0.00    +0.000 S 
ATOM     11  O   UNL     1       3.568   1.721  18.697  0.00  0.00    +0.000 OA
ATOM     12  O   UNL     1       5.141   1.746  20.578  0.00  0.00    +0.000 OA
ATOM     13  O   UNL     1       3.079   3.048  20.710  0.00  0.00    +0.000 OA
ENDBRANCH   9  10
ENDBRANCH   1   9
TORSDOF 5
ENDMDL
MODEL 8
REMARK VINA RESULT:      -4.7      1.539      1.917
REMARK  Name = 
REMARK  7 active torsions:
REMARK  status: ('A' for Active; 'I' for Inactive)
REMARK    1  A    between atoms: C_1  and  O_2
REMARK    2  A    between atoms: O_2  and  C_3
REMARK    3  A    between atoms: C_3  and  C_4
REMARK    4  A    between atoms: C_4  and  C_5
REMARK    5  A    between atoms: C_4  and  C_6
REMARK    6  A    between atoms: C_4  and  N_11
REMARK    7  A    between atoms: C_6  and  S_7
REMARK                            x       y       z     vdW  Elec       q    Type
REMARK                         _______ _______ _______ _____ _____    ______ ____
ROOT
ATOM      1  C   UNL     1       4.318   4.985  18.101  0.00  0.00    +0.000 C 
ATOM      2  C   UNL     1       4.897   5.453  16.735  0.00  0.00    +0.000 C 
ENDROOT
BRANCH   1   3
ATOM      3  N   UNL     1       2.994   5.618  18.343  0.00  0.00    +0.000 NA
ATOM      4 CL   UNL     1       2.870   7.344  17.974  0.00  0.00    +0.000 Cl
ATOM      5 CL   UNL     1       1.606   4.784  17.633  0.00  0.00    +0.000 Cl
ENDBRANCH   1   3
BRANCH   1   6
ATOM      6  C   UNL     1       5.328   5.433  19.197  0.00  0.00    +0.000 C 
BRANCH   6   8
ATOM      7  C   UNL     1       7.668   5.690  19.281  0.00  0.00    +0.000 C 
ATOM      8  O   UNL     1       6.608   4.805  19.006  0.00  0.00    +0.000 OA
ENDBRANCH   6   8
ENDBRANCH   1   6
BRANCH   1   9
ATOM      9  C   UNL     1       4.245   3.436  18.049  0.00  0.00    +0.000 C 
BRANCH   9  10
ATOM     10  S   UNL     1       3.728   2.594  19.534  0.00  0.00    +0.000 S 
ATOM     11  O   UNL     1       2.806   1.564  19.076  0.00  0.00    +0.000 OA
ATOM     12  O   UNL     1       4.980   2.104  20.074  0.00  0.00    +0.000 OA
ATOM     13  O   UNL     1       3.105   3.643  20.357  0.00  0.00    +0.000 OA
ENDBRANCH   9  10
ENDBRANCH   1   9
TORSDOF 5
ENDMDL
MODEL 9
REMARK VINA RESULT:      -4.7      2.882      4.821
REMARK  Name = 
REMARK  7 active torsions:
REMARK  status: ('A' for Active; 'I' for Inactive)
REMARK    1  A    between atoms: C_1  and  O_2
REMARK    2  A    between atoms: O_2  and  C_3
REMARK    3  A    between atoms: C_3  and  C_4
REMARK    4  A    between atoms: C_4  and  C_5
REMARK    5  A    between atoms: C_4  and  C_6
REMARK    6  A    between atoms: C_4  and  N_11
REMARK    7  A    between atoms: C_6  and  S_7
REMARK                            x       y       z     vdW  Elec       q    Type
REMARK                         _______ _______ _______ _____ _____    ______ ____
ROOT
ATOM      1  C   UNL     1       4.372   5.071  17.771  0.00  0.00    +0.000 C 
ATOM      2  C   UNL     1       5.036   5.203  19.171  0.00  0.00    +0.000 C 
ENDROOT
BRANCH   1   3
ATOM      3  N   UNL     1       3.023   5.699  17.780  0.00  0.00    +0.000 NA
ATOM      4 CL   UNL     1       1.644   4.599  17.650  0.00  0.00    +0.000 Cl
ATOM      5 CL   UNL     1       2.720   6.838  19.098  0.00  0.00    +0.000 Cl
ENDBRANCH   1   3
BRANCH   1   6
ATOM      6  C   UNL     1       4.244   3.549  17.474  0.00  0.00    +0.000 C 
BRANCH   6   8
ATOM      7  C   UNL     1       3.500   1.618  18.599  0.00  0.00    +0.000 C 
ATOM      8  O   UNL     1       4.288   2.781  18.690  0.00  0.00    +0.000 OA
ENDBRANCH   6   8
ENDBRANCH   1   6
BRANCH   1   9
ATOM      9  C   UNL     1       5.338   5.731  16.753  0.00  0.00    +0.000 C 
BRANCH   9  10
ATOM     10  S   UNL     1       6.748   4.773  16.226  0.00  0.00    +0.000 S 
ATOM     11  O   UNL     1       6.180   3.646  15.500  0.00  0.00    +0.000 OA
ATOM     12  O   UNL     1       7.489   5.718  15.417  0.00  0.00    +0.000 OA
ATOM     13  O   UNL     1       7.433   4.406  17.476  0.00  0.00    +0.000 OA
ENDBRANCH   9  10
ENDBRANCH   1   9
TORSDOF 5
ENDMDL
