MODEL 1
REMARK VINA RESULT:      -7.9      0.000      0.000
REMARK  Name = 
REMARK  11 active torsions:
REMARK  status: ('A' for Active; 'I' for Inactive)
REMARK    1  A    between atoms: C_1  and  O_2
REMARK    2  A    between atoms: O_2  and  C_3
REMARK    3  A    between atoms: C_3  and  C_5
REMARK    4  A    between atoms: C_7  and  N_8
REMARK    5  A    between atoms: C_9  and  C_11
REMARK    6  A    between atoms: C_11  and  N_12
REMARK    7  A    between atoms: C_15  and  C_16
REMARK    8  A    between atoms: C_15  and  N_19
REMARK    9  A    between atoms: C_28  and  C_29
REMARK   10  A    between atoms: C_29  and  O_31
REMARK   11  A    between atoms: O_31  and  C_32
REMARK                            x       y       z     vdW  Elec       q    Type
REMARK                         _______ _______ _______ _____ _____    ______ ____
ROOT
ATOM      1  N   UNL     1       0.984   9.292  18.837  0.00  0.00    +0.000 N 
ATOM      2  C   UNL     1       1.381   8.420  19.834  0.00  0.00    +0.000 C 
ATOM      3  O   UNL     1       0.801   8.245  20.905  0.00  0.00    +0.000 OA
ATOM      4  H   UNL     1       1.506   9.220  17.968  0.00  0.00    +0.000 HD
ENDROOT
BRANCH   1   7
ATOM      5  C   UNL     1      -1.131  12.172  19.985  0.00  0.00    +0.000 A 
ATOM      6  C   UNL     1      -0.109  11.211  19.944  0.00  0.00    +0.000 A 
ATOM      7  C   UNL     1      -0.049  10.254  18.928  0.00  0.00    +0.000 A 
ATOM      8  C   UNL     1      -1.030  10.273  17.933  0.00  0.00    +0.000 A 
ATOM      9  C   UNL     1      -2.070  11.221  17.965  0.00  0.00    +0.000 A 
ATOM     10  C   UNL     1      -2.122  12.168  18.996  0.00  0.00    +0.000 A 
BRANCH   5  11
ATOM     11  C   UNL     1      -1.083  13.173  21.084  0.00  0.00    +0.000 C 
ATOM     12  O   UNL     1      -1.420  14.340  20.956  0.00  0.00    +0.000 OA
BRANCH  11  14
ATOM     13  C   UNL     1      -1.712  12.222  23.117  0.00  0.00    +0.000 C 
ATOM     14  O   UNL     1      -0.650  12.604  22.239  0.00  0.00    +0.000 OA
ENDBRANCH  11  14
ENDBRANCH   5  11
BRANCH   9  15
ATOM     15  C   UNL     1      -3.080  11.181  16.871  0.00  0.00    +0.000 C 
ATOM     16  O   UNL     1      -4.268  11.401  17.055  0.00  0.00    +0.000 OA
BRANCH  15  17
ATOM     17  O   UNL     1      -2.510  10.846  15.689  0.00  0.00    +0.000 OA
ATOM     18  C   UNL     1      -3.416  10.253  14.752  0.00  0.00    +0.000 C 
ENDBRANCH  15  17
ENDBRANCH   9  15
ENDBRANCH   1   7
BRANCH   2  19
ATOM     19  C   UNL     1       2.593   7.552  19.494  0.00  0.00    +0.000 C 
BRANCH  19  20
ATOM     20  N   UNL     1       2.300   6.095  19.350  0.00  0.00    +0.000 NA
ATOM     21  C   UNL     1       2.310   5.721  17.923  0.00  0.00    +0.000 C 
ATOM     22  C   UNL     1       2.262   4.217  17.715  0.00  0.00    +0.000 C 
ATOM     23  C   UNL     1       3.463   3.475  18.351  0.00  0.00    +0.000 C 
ATOM     24  C   UNL     1       3.438   3.858  19.856  0.00  0.00    +0.000 C 
ATOM     25  C   UNL     1       3.326   5.365  20.129  0.00  0.00    +0.000 C 
BRANCH  23  26
ATOM     26  N   UNL     1       4.810   3.632  17.652  0.00  0.00    +0.000 NA
ATOM     27  C   UNL     1       4.690   3.987  16.225  0.00  0.00    +0.000 C 
ATOM     28  C   UNL     1       6.039   3.983  15.499  0.00  0.00    +0.000 C 
ATOM     29  C   UNL     1       7.018   4.935  16.168  0.00  0.00    +0.000 C 
ATOM     30  C   UNL     1       7.160   4.558  17.633  0.00  0.00    +0.000 C 
ATOM     31  C   UNL     1       5.797   4.484  18.329  0.00  0.00    +0.000 C 
ENDBRANCH  23  26
BRANCH  23  32
ATOM     32  C   UNL     1       3.100   1.944  18.313  0.00  0.00    +0.000 C 
ATOM     33  N   UNL     1       1.784   1.637  18.514  0.00  0.00    +0.000 N 
ATOM     34  O   UNL     1       3.894   1.046  18.043  0.00  0.00    +0.000 OA
ATOM     35  H   UNL     1       1.245   2.310  19.048  0.00  0.00    +0.000 HD
ATOM     36  H   UNL     1       1.571   0.657  18.613  0.00  0.00    +0.000 HD
ENDBRANCH  23  32
ENDBRANCH  19  20
ENDBRANCH   2  19
TORSDOF 9
ENDMDL
MODEL 2
REMARK VINA RESULT:      -7.8      1.599      3.506
REMARK  Name = 
REMARK  11 active torsions:
REMARK  status: ('A' for Active; 'I' for Inactive)
REMARK    1  A    between atoms: C_1  and  O_2
REMARK    2  A    between atoms: O_2  and  C_3
REMARK    3  A    between atoms: C_3  and  C_5
REMARK    4  A    between atoms: C_7  and  N_8
REMARK    5  A    between atoms: C_9  and  C_11
REMARK    6  A    between atoms: C_11  and  N_12
REMARK    7  A    between atoms: C_15  and  C_16
REMARK    8  A    between atoms: C_15  and  N_19
REMARK    9  A    between atoms: C_28  and  C_29
REMARK   10  A    between atoms: C_29  and  O_31
REMARK   11  A    between atoms: O_31  and  C_32
REMARK                            x       y       z     vdW  Elec       q    Type
REMARK                         _______ _______ _______ _____ _____    ______ ____
ROOT
ATOM      1  N   UNL     1       1.112   9.306  19.192  0.00  0.00    +0.000 N 
ATOM      2  C   UNL     1       0.985   8.572  20.358  0.00  0.00    +0.000 C 
ATOM      3  O   UNL     1       0.035   8.625  21.138  0.00  0.00    +0.000 OA
ATOM      4  H   UNL     1       1.898   9.048  18.603  0.00  0.00    +0.000 HD
ENDROOT
BRANCH   1   7
ATOM      5  C   UNL     1      -1.803  11.220  17.802  0.00  0.00    +0.000 A 
ATOM      6  C   UNL     1      -0.977  10.148  18.176  0.00  0.00    +0.000 A 
ATOM      7  C   UNL     1       0.268  10.361  18.772  0.00  0.00    +0.000 A 
ATOM      8  C   UNL     1       0.684  11.676  19.001  0.00  0.00    +0.000 A 
ATOM      9  C   UNL     1      -0.125  12.763  18.620  0.00  0.00    +0.000 A 
ATOM     10  C   UNL     1      -1.367  12.533  18.015  0.00  0.00    +0.000 A 
BRANCH   5  11
ATOM     11  C   UNL     1      -3.127  10.887  17.214  0.00  0.00    +0.000 C 
ATOM     12  O   UNL     1      -4.162  11.475  17.492  0.00  0.00    +0.000 OA
BRANCH  11  14
ATOM     13  C   UNL     1      -2.954  10.327  14.958  0.00  0.00    +0.000 C 
ATOM     14  O   UNL     1      -3.018   9.877  16.313  0.00  0.00    +0.000 OA
ENDBRANCH  11  14
ENDBRANCH   5  11
BRANCH   9  15
ATOM     15  C   UNL     1       0.383  14.136  18.896  0.00  0.00    +0.000 C 
ATOM     16  O   UNL     1      -0.346  15.059  19.227  0.00  0.00    +0.000 OA
BRANCH  15  17
ATOM     17  O   UNL     1       1.722  14.212  18.703  0.00  0.00    +0.000 OA
ATOM     18  C   UNL     1       2.432  14.828  19.783  0.00  0.00    +0.000 C 
ENDBRANCH  15  17
ENDBRANCH   9  15
ENDBRANCH   1   7
BRANCH   2  19
ATOM     19  C   UNL     1       2.098   7.554  20.609  0.00  0.00    +0.000 C 
BRANCH  19  20
ATOM     20  N   UNL     1       1.920   6.246  19.910  0.00  0.00    +0.000 NA
ATOM     21  C   UNL     1       2.429   6.342  18.529  0.00  0.00    +0.000 C 
ATOM     22  C   UNL     1       2.505   4.990  17.841  0.00  0.00    +0.000 C 
ATOM     23  C   UNL     1       3.439   3.990  18.563  0.00  0.00    +0.000 C 
ATOM     24  C   UNL     1       2.888   3.878  20.012  0.00  0.00    +0.000 C 
ATOM     25  C   UNL     1       2.641   5.226  20.704  0.00  0.00    +0.000 C 
BRANCH  23  26
ATOM     26  N   UNL     1       4.939   4.248  18.445  0.00  0.00    +0.000 NA
ATOM     27  C   UNL     1       5.385   4.472  17.057  0.00  0.00    +0.000 C 
ATOM     28  C   UNL     1       6.908   4.569  16.934  0.00  0.00    +0.000 C 
ATOM     29  C   UNL     1       7.454   5.680  17.818  0.00  0.00    +0.000 C 
ATOM     30  C   UNL     1       7.014   5.441  19.252  0.00  0.00    +0.000 C 
ATOM     31  C   UNL     1       5.496   5.262  19.351  0.00  0.00    +0.000 C 
ENDBRANCH  23  26
BRANCH  23  32
ATOM     32  C   UNL     1       3.161   2.584  17.912  0.00  0.00    +0.000 C 
ATOM     33  N   UNL     1       3.950   1.558  18.348  0.00  0.00    +0.000 N 
ATOM     34  O   UNL     1       2.253   2.351  17.118  0.00  0.00    +0.000 OA
ATOM     35  H   UNL     1       4.860   1.818  18.711  0.00  0.00    +0.000 HD
ATOM     36  H   UNL     1       3.858   0.689  17.845  0.00  0.00    +0.000 HD
ENDBRANCH  23  32
ENDBRANCH  19  20
ENDBRANCH   2  19
TORSDOF 9
ENDMDL
MODEL 3
REMARK VINA RESULT:      -7.8      2.683     10.016
REMARK  Name = 
REMARK  11 active torsions:
REMARK  status: ('A' for Active; 'I' for Inactive)
REMARK    1  A    between atoms: C_1  and  O_2
REMARK    2  A    between atoms: O_2  and  C_3
REMARK    3  A    between atoms: C_3  and  C_5
REMARK    4  A    between atoms: C_7  and  N_8
REMARK    5  A    between atoms: C_9  and  C_11
REMARK    6  A    between atoms: C_11  and  N_12
REMARK    7  A    between atoms: C_15  and  C_16
REMARK    8  A    between atoms: C_15  and  N_19
REMARK    9  A    between atoms: C_28  and  C_29
REMARK   10  A    between atoms: C_29  and  O_31
REMARK   11  A    between atoms: O_31  and  C_32
REMARK                            x       y       z     vdW  Elec       q    Type
REMARK                         _______ _______ _______ _____ _____    ______ ____
ROOT
ATOM      1  N   UNL     1       3.148   7.702  17.579  0.00  0.00    +0.000 N 
ATOM      2  C   UNL     1       2.324   8.118  18.609  0.00  0.00    +0.000 C 
ATOM      3  O   UNL     1       2.125   7.506  19.658  0.00  0.00    +0.000 OA
ATOM      4  H   UNL     1       3.295   8.386  16.842  0.00  0.00    +0.000 HD
ENDROOT
BRANCH   1   7
ATOM      5  C   UNL     1       5.710   5.015  17.029  0.00  0.00    +0.000 A 
ATOM      6  C   UNL     1       5.113   6.284  17.099  0.00  0.00    +0.000 A 
ATOM      7  C   UNL     1       3.774   6.439  17.465  0.00  0.00    +0.000 A 
ATOM      8  C   UNL     1       3.028   5.298  17.774  0.00  0.00    +0.000 A 
ATOM      9  C   UNL     1       3.607   4.017  17.696  0.00  0.00    +0.000 A 
ATOM     10  C   UNL     1       4.949   3.877  17.318  0.00  0.00    +0.000 A 
BRANCH   5  11
ATOM     11  C   UNL     1       7.152   4.960  16.670  0.00  0.00    +0.000 C 
ATOM     12  O   UNL     1       7.998   4.385  17.338  0.00  0.00    +0.000 OA
BRANCH  11  14
ATOM     13  C   UNL     1       7.054   4.816  14.345  0.00  0.00    +0.000 C 
ATOM     14  O   UNL     1       7.385   5.599  15.494  0.00  0.00    +0.000 OA
ENDBRANCH  11  14
ENDBRANCH   5  11
BRANCH   9  15
ATOM     15  C   UNL     1       2.752   2.847  18.040  0.00  0.00    +0.000 C 
ATOM     16  O   UNL     1       3.209   1.777  18.414  0.00  0.00    +0.000 OA
BRANCH  15  17
ATOM     17  O   UNL     1       1.439   3.126  17.853  0.00  0.00    +0.000 OA
ATOM     18  C   UNL     1       0.580   2.590  18.865  0.00  0.00    +0.000 C 
ENDBRANCH  15  17
ENDBRANCH   9  15
ENDBRANCH   1   7
BRANCH   2  19
ATOM     19  C   UNL     1       1.702   9.503  18.427  0.00  0.00    +0.000 C 
BRANCH  19  20
ATOM     20  N   UNL     1       0.533   9.787  19.312  0.00  0.00    +0.000 NA
ATOM     21  C   UNL     1       0.987  10.462  20.541  0.00  0.00    +0.000 C 
ATOM     22  C   UNL     1      -0.167  10.998  21.371  0.00  0.00    +0.000 C 
ATOM     23  C   UNL     1      -1.031  12.037  20.617  0.00  0.00    +0.000 C 
ATOM     24  C   UNL     1      -1.521  11.314  19.332  0.00  0.00    +0.000 C 
ATOM     25  C   UNL     1      -0.413  10.617  18.531  0.00  0.00    +0.000 C 
BRANCH  23  26
ATOM     26  N   UNL     1      -0.411  13.415  20.404  0.00  0.00    +0.000 NA
ATOM     27  C   UNL     1       0.929  13.552  21.007  0.00  0.00    +0.000 C 
ATOM     28  C   UNL     1       1.469  14.982  20.928  0.00  0.00    +0.000 C 
ATOM     29  C   UNL     1       1.522  15.462  19.485  0.00  0.00    +0.000 C 
ATOM     30  C   UNL     1       0.139  15.343  18.868  0.00  0.00    +0.000 C 
ATOM     31  C   UNL     1      -0.427  13.928  19.028  0.00  0.00    +0.000 C 
ENDBRANCH  23  26
BRANCH  23  32
ATOM     32  C   UNL     1      -2.325  12.244  21.488  0.00  0.00    +0.000 C 
ATOM     33  N   UNL     1      -3.431  12.684  20.818  0.00  0.00    +0.000 N 
ATOM     34  O   UNL     1      -2.415  11.965  22.681  0.00  0.00    +0.000 OA
ATOM     35  H   UNL     1      -3.258  13.210  19.969  0.00  0.00    +0.000 HD
ATOM     36  H   UNL     1      -4.221  12.935  21.392  0.00  0.00    +0.000 HD
ENDBRANCH  23  32
ENDBRANCH  19  20
ENDBRANCH   2  19
TORSDOF 9
ENDMDL
MODEL 4
REMARK VINA RESULT:      -7.7      0.821      1.353
REMARK  Name = 
REMARK  11 active torsions:
REMARK  status: ('A' for Active; 'I' for Inactive)
REMARK    1  A    between atoms: C_1  and  O_2
REMARK    2  A    between atoms: O_2  and  C_3
REMARK    3  A    between atoms: C_3  and  C_5
REMARK    4  A    between atoms: C_7  and  N_8
REMARK    5  A    between atoms: C_9  and  C_11
REMARK    6  A    between atoms: C_11  and  N_12
REMARK    7  A    between atoms: C_15  and  C_16
REMARK    8  A    between atoms: C_15  and  N_19
REMARK    9  A    between atoms: C_28  and  C_29
REMARK   10  A    between atoms: C_29  and  O_31
REMARK   11  A    between atoms: O_31  and  C_32
REMARK                            x       y       z     vdW  Elec       q    Type
REMARK                         _______ _______ _______ _____ _____    ______ ____
ROOT
ATOM      1  N   UNL     1       0.855   9.361  19.109  0.00  0.00    +0.000 N 
ATOM      2  C   UNL     1       1.333   8.383  19.962  0.00  0.00    +0.000 C 
ATOM      3  O   UNL     1       0.856   8.092  21.058  0.00  0.00    +0.000 OA
ATOM      4  H   UNL     1       1.290   9.384  18.191  0.00  0.00    +0.000 HD
ENDROOT
BRANCH   1   7
ATOM      5  C   UNL     1      -1.097  12.108  20.762  0.00  0.00    +0.000 A 
ATOM      6  C   UNL     1      -0.097  11.154  20.518  0.00  0.00    +0.000 A 
ATOM      7  C   UNL     1      -0.151  10.311  19.406  0.00  0.00    +0.000 A 
ATOM      8  C   UNL     1      -1.226  10.437  18.522  0.00  0.00    +0.000 A 
ATOM      9  C   UNL     1      -2.246  11.379  18.759  0.00  0.00    +0.000 A 
ATOM     10  C   UNL     1      -2.182  12.211  19.884  0.00  0.00    +0.000 A 
BRANCH   5  11
ATOM     11  C   UNL     1      -0.925  12.986  21.950  0.00  0.00    +0.000 C 
ATOM     12  O   UNL     1      -0.599  12.579  23.055  0.00  0.00    +0.000 OA
BRANCH  11  14
ATOM     13  C   UNL     1       0.038  14.980  21.222  0.00  0.00    +0.000 C 
ATOM     14  O   UNL     1      -1.144  14.287  21.628  0.00  0.00    +0.000 OA
ENDBRANCH  11  14
ENDBRANCH   5  11
BRANCH   9  15
ATOM     15  C   UNL     1      -3.361  11.457  17.774  0.00  0.00    +0.000 C 
ATOM     16  O   UNL     1      -3.197  11.306  16.573  0.00  0.00    +0.000 OA
BRANCH  15  17
ATOM     17  O   UNL     1      -4.536  11.741  18.385  0.00  0.00    +0.000 OA
ATOM     18  C   UNL     1      -5.569  12.170  17.490  0.00  0.00    +0.000 C 
ENDBRANCH  15  17
ENDBRANCH   9  15
ENDBRANCH   1   7
BRANCH   2  19
ATOM     19  C   UNL     1       2.496   7.554  19.413  0.00  0.00    +0.000 C 
BRANCH  19  20
ATOM     20  N   UNL     1       2.226   6.088  19.311  0.00  0.00    +0.000 NA
ATOM     21  C   UNL     1       2.258   5.670  17.897  0.00  0.00    +0.000 C 
ATOM     22  C   UNL     1       2.237   4.160  17.735  0.00  0.00    +0.000 C 
ATOM     23  C   UNL     1       3.441   3.457  18.408  0.00  0.00    +0.000 C 
ATOM     24  C   UNL     1       3.392   3.886  19.900  0.00  0.00    +0.000 C 
ATOM     25  C   UNL     1       3.254   5.399  20.124  0.00  0.00    +0.000 C 
BRANCH  23  26
ATOM     26  N   UNL     1       4.794   3.614  17.719  0.00  0.00    +0.000 NA
ATOM     27  C   UNL     1       4.685   3.939  16.284  0.00  0.00    +0.000 C 
ATOM     28  C   UNL     1       6.040   3.934  15.572  0.00  0.00    +0.000 C 
ATOM     29  C   UNL     1       7.003   4.909  16.232  0.00  0.00    +0.000 C 
ATOM     30  C   UNL     1       7.134   4.563  17.705  0.00  0.00    +0.000 C 
ATOM     31  C   UNL     1       5.765   4.489  18.389  0.00  0.00    +0.000 C 
ENDBRANCH  23  26
BRANCH  23  32
ATOM     32  C   UNL     1       3.102   1.920  18.413  0.00  0.00    +0.000 C 
ATOM     33  N   UNL     1       1.782   1.601  18.558  0.00  0.00    +0.000 N 
ATOM     34  O   UNL     1       3.921   1.025  18.222  0.00  0.00    +0.000 OA
ATOM     35  H   UNL     1       1.206   2.286  19.035  0.00  0.00    +0.000 HD
ATOM     36  H   UNL     1       1.578   0.622  18.686  0.00  0.00    +0.000 HD
ENDBRANCH  23  32
ENDBRANCH  19  20
ENDBRANCH   2  19
TORSDOF 9
ENDMDL
MODEL 5
REMARK VINA RESULT:      -7.7      1.087      3.606
REMARK  Name = 
REMARK  11 active torsions:
REMARK  status: ('A' for Active; 'I' for Inactive)
REMARK    1  A    between atoms: C_1  and  O_2
REMARK    2  A    between atoms: O_2  and  C_3
REMARK    3  A    between atoms: C_3  and  C_5
REMARK    4  A    between atoms: C_7  and  N_8
REMARK    5  A    between atoms: C_9  and  C_11
REMARK    6  A    between atoms: C_11  and  N_12
REMARK    7  A    between atoms: C_15  and  C_16
REMARK    8  A    between atoms: C_15  and  N_19
REMARK    9  A    between atoms: C_28  and  C_29
REMARK   10  A    between atoms: C_29  and  O_31
REMARK   11  A    between atoms: O_31  and  C_32
REMARK                            x       y       z     vdW  Elec       q    Type
REMARK                         _______ _______ _______ _____ _____    ______ ____
ROOT
ATOM      1  N   UNL     1       0.619   9.374  19.415  0.00  0.00    +0.000 N 
ATOM      2  C   UNL     1       0.843   8.514  20.474  0.00  0.00    +0.000 C 
ATOM      3  O   UNL     1       0.075   8.321  21.415  0.00  0.00    +0.000 OA
ATOM      4  H   UNL     1       1.299   9.318  18.662  0.00  0.00    +0.000 HD
ENDROOT
BRANCH   1   7
ATOM      5  C   UNL     1      -2.438  11.186  18.206  0.00  0.00    +0.000 A 
ATOM      6  C   UNL     1      -1.379  10.267  18.268  0.00  0.00    +0.000 A 
ATOM      7  C   UNL     1      -0.441  10.304  19.302  0.00  0.00    +0.000 A 
ATOM      8  C   UNL     1      -0.578  11.279  20.294  0.00  0.00    +0.000 A 
ATOM      9  C   UNL     1      -1.626  12.218  20.241  0.00  0.00    +0.000 A 
ATOM     10  C   UNL     1      -2.554  12.173  19.192  0.00  0.00    +0.000 A 
BRANCH   5  11
ATOM     11  C   UNL     1      -3.407  11.035  17.088  0.00  0.00    +0.000 C 
ATOM     12  O   UNL     1      -4.357  11.782  16.906  0.00  0.00    +0.000 OA
BRANCH  11  14
ATOM     13  C   UNL     1      -3.154  10.284  14.896  0.00  0.00    +0.000 C 
ATOM     14  O   UNL     1      -3.071   9.988  16.292  0.00  0.00    +0.000 OA
ENDBRANCH  11  14
ENDBRANCH   5  11
BRANCH   9  15
ATOM     15  C   UNL     1      -1.710  13.227  21.333  0.00  0.00    +0.000 C 
ATOM     16  O   UNL     1      -2.770  13.614  21.800  0.00  0.00    +0.000 OA
BRANCH  15  17
ATOM     17  O   UNL     1      -0.478  13.658  21.698  0.00  0.00    +0.000 OA
ATOM     18  C   UNL     1      -0.486  14.595  22.781  0.00  0.00    +0.000 C 
ENDBRANCH  15  17
ENDBRANCH   9  15
ENDBRANCH   1   7
BRANCH   2  19
ATOM     19  C   UNL     1       2.124   7.684  20.378  0.00  0.00    +0.000 C 
BRANCH  19  20
ATOM     20  N   UNL     1       1.950   6.331  19.770  0.00  0.00    +0.000 NA
ATOM     21  C   UNL     1       2.448   6.337  18.382  0.00  0.00    +0.000 C 
ATOM     22  C   UNL     1       2.528   4.942  17.786  0.00  0.00    +0.000 C 
ATOM     23  C   UNL     1       3.474   3.998  18.567  0.00  0.00    +0.000 C 
ATOM     24  C   UNL     1       2.934   3.981  20.024  0.00  0.00    +0.000 C 
ATOM     25  C   UNL     1       2.683   5.371  20.626  0.00  0.00    +0.000 C 
BRANCH  23  26
ATOM     26  N   UNL     1       4.971   4.257  18.420  0.00  0.00    +0.000 NA
ATOM     27  C   UNL     1       5.388   4.497  17.026  0.00  0.00    +0.000 C 
ATOM     28  C   UNL     1       6.909   4.594  16.872  0.00  0.00    +0.000 C 
ATOM     29  C   UNL     1       7.474   5.695  17.756  0.00  0.00    +0.000 C 
ATOM     30  C   UNL     1       7.064   5.440  19.197  0.00  0.00    +0.000 C 
ATOM     31  C   UNL     1       5.548   5.260  19.326  0.00  0.00    +0.000 C 
ENDBRANCH  23  26
BRANCH  23  32
ATOM     32  C   UNL     1       3.201   2.550  18.014  0.00  0.00    +0.000 C 
ATOM     33  N   UNL     1       4.022   1.567  18.486  0.00  0.00    +0.000 N 
ATOM     34  O   UNL     1       2.272   2.253  17.267  0.00  0.00    +0.000 OA
ATOM     35  H   UNL     1       4.939   1.863  18.801  0.00  0.00    +0.000 HD
ATOM     36  H   UNL     1       3.930   0.666  18.041  0.00  0.00    +0.000 HD
ENDBRANCH  23  32
ENDBRANCH  19  20
ENDBRANCH   2  19
TORSDOF 9
ENDMDL
MODEL 6
REMARK VINA RESULT:      -7.7      0.969      1.237
REMARK  Name = 
REMARK  11 active torsions:
REMARK  status: ('A' for Active; 'I' for Inactive)
REMARK    1  A    between atoms: C_1  and  O_2
REMARK    2  A    between atoms: O_2  and  C_3
REMARK    3  A    between atoms: C_3  and  C_5
REMARK    4  A    between atoms: C_7  and  N_8
REMARK    5  A    between atoms: C_9  and  C_11
REMARK    6  A    between atoms: C_11  and  N_12
REMARK    7  A    between atoms: C_15  and  C_16
REMARK    8  A    between atoms: C_15  and  N_19
REMARK    9  A    between atoms: C_28  and  C_29
REMARK   10  A    between atoms: C_29  and  O_31
REMARK   11  A    between atoms: O_31  and  C_32
REMARK                            x       y       z     vdW  Elec       q    Type
REMARK                         _______ _______ _______ _____ _____    ______ ____
ROOT
ATOM      1  N   UNL     1       0.704   9.382  18.292  0.00  0.00    +0.000 N 
ATOM      2  C   UNL     1       1.451   8.636  19.186  0.00  0.00    +0.000 C 
ATOM      3  O   UNL     1       1.244   8.549  20.395  0.00  0.00    +0.000 OA
ATOM      4  H   UNL     1       0.936   9.242  17.313  0.00  0.00    +0.000 HD
ENDROOT
BRANCH   1   7
ATOM      5  C   UNL     1      -1.235  12.130  19.960  0.00  0.00    +0.000 A 
ATOM      6  C   UNL     1      -0.215  11.205  19.684  0.00  0.00    +0.000 A 
ATOM      7  C   UNL     1      -0.316  10.305  18.620  0.00  0.00    +0.000 A 
ATOM      8  C   UNL     1      -1.460  10.344  17.817  0.00  0.00    +0.000 A 
ATOM      9  C   UNL     1      -2.498  11.257  18.088  0.00  0.00    +0.000 A 
ATOM     10  C   UNL     1      -2.386  12.146  19.164  0.00  0.00    +0.000 A 
BRANCH   5  11
ATOM     11  C   UNL     1      -1.012  13.072  21.088  0.00  0.00    +0.000 C 
ATOM     12  O   UNL     1      -1.216  14.275  21.020  0.00  0.00    +0.000 OA
BRANCH  11  14
ATOM     13  C   UNL     1      -1.660  11.963  23.033  0.00  0.00    +0.000 C 
ATOM     14  O   UNL     1      -0.591  12.411  22.197  0.00  0.00    +0.000 OA
ENDBRANCH  11  14
ENDBRANCH   5  11
BRANCH   9  15
ATOM     15  C   UNL     1      -3.686  11.241  17.189  0.00  0.00    +0.000 C 
ATOM     16  O   UNL     1      -3.597  11.183  15.972  0.00  0.00    +0.000 OA
BRANCH  15  17
ATOM     17  O   UNL     1      -4.838  11.329  17.897  0.00  0.00    +0.000 OA
ATOM     18  C   UNL     1      -5.757  12.306  17.395  0.00  0.00    +0.000 C 
ENDBRANCH  15  17
ENDBRANCH   9  15
ENDBRANCH   1   7
BRANCH   2  19
ATOM     19  C   UNL     1       2.559   7.788  18.558  0.00  0.00    +0.000 C 
BRANCH  19  20
ATOM     20  N   UNL     1       2.507   6.336  18.902  0.00  0.00    +0.000 NA
ATOM     21  C   UNL     1       2.376   5.534  17.671  0.00  0.00    +0.000 C 
ATOM     22  C   UNL     1       2.562   4.048  17.921  0.00  0.00    +0.000 C 
ATOM     23  C   UNL     1       3.953   3.697  18.503  0.00  0.00    +0.000 C 
ATOM     24  C   UNL     1       4.079   4.530  19.808  0.00  0.00    +0.000 C 
ATOM     25  C   UNL     1       3.747   6.020  19.648  0.00  0.00    +0.000 C 
BRANCH  23  26
ATOM     26  N   UNL     1       5.137   3.788  17.545  0.00  0.00    +0.000 NA
ATOM     27  C   UNL     1       4.742   4.088  16.155  0.00  0.00    +0.000 C 
ATOM     28  C   UNL     1       5.918   4.016  15.177  0.00  0.00    +0.000 C 
ATOM     29  C   UNL     1       7.028   4.968  15.595  0.00  0.00    +0.000 C 
ATOM     30  C   UNL     1       7.453   4.649  17.018  0.00  0.00    +0.000 C 
ATOM     31  C   UNL     1       6.255   4.640  17.973  0.00  0.00    +0.000 C 
ENDBRANCH  23  26
BRANCH  23  32
ATOM     32  C   UNL     1       3.862   2.201  18.981  0.00  0.00    +0.000 C 
ATOM     33  N   UNL     1       4.865   1.775  19.805  0.00  0.00    +0.000 N 
ATOM     34  O   UNL     1       2.928   1.444  18.728  0.00  0.00    +0.000 OA
ATOM     35  H   UNL     1       5.748   2.266  19.723  0.00  0.00    +0.000 HD
ATOM     36  H   UNL     1       4.876   0.788  20.011  0.00  0.00    +0.000 HD
ENDBRANCH  23  32
ENDBRANCH  19  20
ENDBRANCH   2  19
TORSDOF 9
ENDMDL
MODEL 7
REMARK VINA RESULT:      -7.7      1.105      3.368
REMARK  Name = 
REMARK  11 active torsions:
REMARK  status: ('A' for Active; 'I' for Inactive)
REMARK    1  A    between atoms: C_1  and  O_2
REMARK    2  A    between atoms: O_2  and  C_3
REMARK    3  A    between atoms: C_3  and  C_5
REMARK    4  A    between atoms: C_7  and  N_8
REMARK    5  A    between atoms: C_9  and  C_11
REMARK    6  A    between atoms: C_11  and  N_12
REMARK    7  A    between atoms: C_15  and  C_16
REMARK    8  A    between atoms: C_15  and  N_19
REMARK    9  A    between atoms: C_28  and  C_29
REMARK   10  A    between atoms: C_29  and  O_31
REMARK   11  A    between atoms: O_31  and  C_32
REMARK                            x       y       z     vdW  Elec       q    Type
REMARK                         _______ _______ _______ _____ _____    ______ ____
ROOT
ATOM      1  N   UNL     1       0.679   9.386  18.147  0.00  0.00    +0.000 N 
ATOM      2  C   UNL     1       1.503   8.675  19.001  0.00  0.00    +0.000 C 
ATOM      3  O   UNL     1       1.418   8.658  20.228  0.00  0.00    +0.000 OA
ATOM      4  H   UNL     1       0.808   9.188  17.159  0.00  0.00    +0.000 HD
ENDROOT
BRANCH   1   7
ATOM      5  C   UNL     1      -2.489  11.391  18.325  0.00  0.00    +0.000 A 
ATOM      6  C   UNL     1      -1.537  10.451  17.901  0.00  0.00    +0.000 A 
ATOM      7  C   UNL     1      -0.292  10.343  18.525  0.00  0.00    +0.000 A 
ATOM      8  C   UNL     1      -0.005  11.192  19.598  0.00  0.00    +0.000 A 
ATOM      9  C   UNL     1      -0.943  12.151  20.027  0.00  0.00    +0.000 A 
ATOM     10  C   UNL     1      -2.184  12.252  19.385  0.00  0.00    +0.000 A 
BRANCH   5  11
ATOM     11  C   UNL     1      -3.800  11.398  17.622  0.00  0.00    +0.000 C 
ATOM     12  O   UNL     1      -3.935  11.157  16.432  0.00  0.00    +0.000 OA
BRANCH  11  14
ATOM     13  C   UNL     1      -5.950  10.821  18.315  0.00  0.00    +0.000 C 
ATOM     14  O   UNL     1      -4.812  11.670  18.486  0.00  0.00    +0.000 OA
ENDBRANCH  11  14
ENDBRANCH   5  11
BRANCH   9  15
ATOM     15  C   UNL     1      -0.569  13.020  21.177  0.00  0.00    +0.000 C 
ATOM     16  O   UNL     1      -0.556  14.240  21.110  0.00  0.00    +0.000 OA
BRANCH  15  17
ATOM     17  O   UNL     1      -0.229  12.282  22.261  0.00  0.00    +0.000 OA
ATOM     18  C   UNL     1      -1.345  11.857  23.050  0.00  0.00    +0.000 C 
ENDBRANCH  15  17
ENDBRANCH   9  15
ENDBRANCH   1   7
BRANCH   2  19
ATOM     19  C   UNL     1       2.531   7.775  18.314  0.00  0.00    +0.000 C 
BRANCH  19  20
ATOM     20  N   UNL     1       2.498   6.345  18.744  0.00  0.00    +0.000 NA
ATOM     21  C   UNL     1       2.379   5.469  17.563  0.00  0.00    +0.000 C 
ATOM     22  C   UNL     1       2.586   4.003  17.902  0.00  0.00    +0.000 C 
ATOM     23  C   UNL     1       3.980   3.707  18.505  0.00  0.00    +0.000 C 
ATOM     24  C   UNL     1       4.093   4.619  19.758  0.00  0.00    +0.000 C 
ATOM     25  C   UNL     1       3.741   6.092  19.508  0.00  0.00    +0.000 C 
BRANCH  23  26
ATOM     26  N   UNL     1       5.164   3.757  17.543  0.00  0.00    +0.000 NA
ATOM     27  C   UNL     1       4.775   4.055  16.152  0.00  0.00    +0.000 C 
ATOM     28  C   UNL     1       5.946   3.942  15.173  0.00  0.00    +0.000 C 
ATOM     29  C   UNL     1       7.083   4.867  15.579  0.00  0.00    +0.000 C 
ATOM     30  C   UNL     1       7.502   4.548  17.005  0.00  0.00    +0.000 C 
ATOM     31  C   UNL     1       6.306   4.582  17.962  0.00  0.00    +0.000 C 
ENDBRANCH  23  26
BRANCH  23  32
ATOM     32  C   UNL     1       3.909   2.241  19.072  0.00  0.00    +0.000 C 
ATOM     33  N   UNL     1       4.897   1.891  19.947  0.00  0.00    +0.000 N 
ATOM     34  O   UNL     1       3.000   1.448  18.841  0.00  0.00    +0.000 OA
ATOM     35  H   UNL     1       5.772   2.396  19.858  0.00  0.00    +0.000 HD
ATOM     36  H   UNL     1       4.924   0.919  20.213  0.00  0.00    +0.000 HD
ENDBRANCH  23  32
ENDBRANCH  19  20
ENDBRANCH   2  19
TORSDOF 9
ENDMDL
MODEL 8
REMARK VINA RESULT:      -7.7      1.126      1.329
REMARK  Name = 
REMARK  11 active torsions:
REMARK  status: ('A' for Active; 'I' for Inactive)
REMARK    1  A    between atoms: C_1  and  O_2
REMARK    2  A    between atoms: O_2  and  C_3
REMARK    3  A    between atoms: C_3  and  C_5
REMARK    4  A    between atoms: C_7  and  N_8
REMARK    5  A    between atoms: C_9  and  C_11
REMARK    6  A    between atoms: C_11  and  N_12
REMARK    7  A    between atoms: C_15  and  C_16
REMARK    8  A    between atoms: C_15  and  N_19
REMARK    9  A    between atoms: C_28  and  C_29
REMARK   10  A    between atoms: C_29  and  O_31
REMARK   11  A    between atoms: O_31  and  C_32
REMARK                            x       y       z     vdW  Elec       q    Type
REMARK                         _______ _______ _______ _____ _____    ______ ____
ROOT
ATOM      1  N   UNL     1       0.797   9.463  19.792  0.00  0.00    +0.000 N 
ATOM      2  C   UNL     1       0.854   8.407  20.684  0.00  0.00    +0.000 C 
ATOM      3  O   UNL     1      -0.043   8.074  21.458  0.00  0.00    +0.000 OA
ATOM      4  H   UNL     1       1.575   9.519  19.141  0.00  0.00    +0.000 HD
ENDROOT
BRANCH   1   7
ATOM      5  C   UNL     1      -1.358  12.439  20.557  0.00  0.00    +0.000 A 
ATOM      6  C   UNL     1      -0.360  11.459  20.675  0.00  0.00    +0.000 A 
ATOM      7  C   UNL     1      -0.217  10.447  19.724  0.00  0.00    +0.000 A 
ATOM      8  C   UNL     1      -1.088  10.427  18.631  0.00  0.00    +0.000 A 
ATOM      9  C   UNL     1      -2.104  11.395  18.503  0.00  0.00    +0.000 A 
ATOM     10  C   UNL     1      -2.241  12.398  19.471  0.00  0.00    +0.000 A 
BRANCH   5  11
ATOM     11  C   UNL     1      -1.401  13.498  21.600  0.00  0.00    +0.000 C 
ATOM     12  O   UNL     1      -0.754  13.458  22.636  0.00  0.00    +0.000 OA
BRANCH  11  14
ATOM     13  C   UNL     1      -2.726  15.272  22.330  0.00  0.00    +0.000 C 
ATOM     14  O   UNL     1      -2.220  14.515  21.227  0.00  0.00    +0.000 OA
ENDBRANCH  11  14
ENDBRANCH   5  11
BRANCH   9  15
ATOM     15  C   UNL     1      -2.995  11.312  17.312  0.00  0.00    +0.000 C 
ATOM     16  O   UNL     1      -4.178  11.615  17.346  0.00  0.00    +0.000 OA
BRANCH  15  17
ATOM     17  O   UNL     1      -2.328  10.838  16.232  0.00  0.00    +0.000 OA
ATOM     18  C   UNL     1      -3.158  10.613  15.088  0.00  0.00    +0.000 C 
ENDBRANCH  15  17
ENDBRANCH   9  15
ENDBRANCH   1   7
BRANCH   2  19
ATOM     19  C   UNL     1       2.118   7.550  20.598  0.00  0.00    +0.000 C 
BRANCH  19  20
ATOM     20  N   UNL     1       1.940   6.238  19.907  0.00  0.00    +0.000 NA
ATOM     21  C   UNL     1       2.442   6.327  18.524  0.00  0.00    +0.000 C 
ATOM     22  C   UNL     1       2.518   4.971  17.843  0.00  0.00    +0.000 C 
ATOM     23  C   UNL     1       3.458   3.977  18.567  0.00  0.00    +0.000 C 
ATOM     24  C   UNL     1       2.915   3.873  20.019  0.00  0.00    +0.000 C 
ATOM     25  C   UNL     1       2.668   5.224  20.705  0.00  0.00    +0.000 C 
BRANCH  23  26
ATOM     26  N   UNL     1       4.957   4.239  18.440  0.00  0.00    +0.000 NA
ATOM     27  C   UNL     1       5.404   4.404  17.044  0.00  0.00    +0.000 C 
ATOM     28  C   UNL     1       6.927   4.504  16.919  0.00  0.00    +0.000 C 
ATOM     29  C   UNL     1       7.464   5.657  17.753  0.00  0.00    +0.000 C 
ATOM     30  C   UNL     1       7.024   5.479  19.195  0.00  0.00    +0.000 C 
ATOM     31  C   UNL     1       5.506   5.295  19.300  0.00  0.00    +0.000 C 
ENDBRANCH  23  26
BRANCH  23  32
ATOM     32  C   UNL     1       3.181   2.567  17.925  0.00  0.00    +0.000 C 
ATOM     33  N   UNL     1       3.954   1.540  18.386  0.00  0.00    +0.000 N 
ATOM     34  O   UNL     1       2.286   2.333  17.118  0.00  0.00    +0.000 OA
ATOM     35  H   UNL     1       4.860   1.796  18.763  0.00  0.00    +0.000 HD
ATOM     36  H   UNL     1       3.865   0.666  17.891  0.00  0.00    +0.000 HD
ENDBRANCH  23  32
ENDBRANCH  19  20
ENDBRANCH   2  19
TORSDOF 9
ENDMDL
MODEL 9
REMARK VINA RESULT:      -7.7      2.945     10.340
REMARK  Name = 
REMARK  11 active torsions:
REMARK  status: ('A' for Active; 'I' for Inactive)
REMARK    1  A    between atoms: C_1  and  O_2
REMARK    2  A    between atoms: O_2  and  C_3
REMARK    3  A    between atoms: C_3  and  C_5
REMARK    4  A    between atoms: C_7  and  N_8
REMARK    5  A    between atoms: C_9  and  C_11
REMARK    6  A    between atoms: C_11  and  N_12
REMARK    7  A    between atoms: C_15  and  C_16
REMARK    8  A    between atoms: C_15  and  N_19
REMARK    9  A    between atoms: C_28  and  C_29
REMARK   10  A    between atoms: C_29  and  O_31
REMARK   11  A    between atoms: O_31  and  C_32
REMARK                            x       y       z     vdW  Elec       q    Type
REMARK                         _______ _______ _______ _____ _____    ______ ____
ROOT
ATOM      1  N   UNL     1       2.243   7.704  18.938  0.00  0.00    +0.000 N 
ATOM      2  C   UNL     1       1.827   8.918  18.421  0.00  0.00    +0.000 C 
ATOM      3  O   UNL     1       1.966   9.286  17.256  0.00  0.00    +0.000 OA
ATOM      4  H   UNL     1       1.937   7.512  19.888  0.00  0.00    +0.000 HD
ENDROOT
BRANCH   1   7
ATOM      5  C   UNL     1       5.089   6.052  17.132  0.00  0.00    +0.000 A 
ATOM      6  C   UNL     1       4.306   7.038  17.752  0.00  0.00    +0.000 A 
ATOM      7  C   UNL     1       3.046   6.744  18.278  0.00  0.00    +0.000 A 
ATOM      8  C   UNL     1       2.571   5.433  18.185  0.00  0.00    +0.000 A 
ATOM      9  C   UNL     1       3.337   4.434  17.554  0.00  0.00    +0.000 A 
ATOM     10  C   UNL     1       4.595   4.747  17.023  0.00  0.00    +0.000 A 
BRANCH   5  11
ATOM     11  C   UNL     1       6.433   6.457  16.643  0.00  0.00    +0.000 C 
ATOM     12  O   UNL     1       7.165   5.732  15.987  0.00  0.00    +0.000 OA
BRANCH  11  14
ATOM     13  C   UNL     1       7.897   7.869  17.783  0.00  0.00    +0.000 C 
ATOM     14  O   UNL     1       6.712   7.739  16.994  0.00  0.00    +0.000 OA
ENDBRANCH  11  14
ENDBRANCH   5  11
BRANCH   9  15
ATOM     15  C   UNL     1       2.768   3.059  17.492  0.00  0.00    +0.000 C 
ATOM     16  O   UNL     1       1.567   2.840  17.437  0.00  0.00    +0.000 OA
BRANCH  15  17
ATOM     17  O   UNL     1       3.744   2.121  17.533  0.00  0.00    +0.000 OA
ATOM     18  C   UNL     1       3.821   1.414  18.776  0.00  0.00    +0.000 C 
ENDBRANCH  15  17
ENDBRANCH   9  15
ENDBRANCH   1   7
BRANCH   2  19
ATOM     19  C   UNL     1       1.048   9.805  19.393  0.00  0.00    +0.000 C 
BRANCH  19  20
ATOM     20  N   UNL     1       0.929  11.235  18.978  0.00  0.00    +0.000 NA
ATOM     21  C   UNL     1      -0.481  11.558  18.691  0.00  0.00    +0.000 C 
ATOM     22  C   UNL     1      -0.711  13.048  18.501  0.00  0.00    +0.000 C 
ATOM     23  C   UNL     1      -0.334  13.886  19.746  0.00  0.00    +0.000 C 
ATOM     24  C   UNL     1       1.157  13.556  20.034  0.00  0.00    +0.000 C 
ATOM     25  C   UNL     1       1.479  12.056  20.080  0.00  0.00    +0.000 C 
BRANCH  23  26
ATOM     26  N   UNL     1      -1.275  13.790  20.944  0.00  0.00    +0.000 NA
ATOM     27  C   UNL     1      -2.310  12.750  20.792  0.00  0.00    +0.000 C 
ATOM     28  C   UNL     1      -3.342  12.772  21.923  0.00  0.00    +0.000 C 
ATOM     29  C   UNL     1      -2.667  12.608  23.276  0.00  0.00    +0.000 C 
ATOM     30  C   UNL     1      -1.615  13.691  23.445  0.00  0.00    +0.000 C 
ATOM     31  C   UNL     1      -0.637  13.713  22.265  0.00  0.00    +0.000 C 
ENDBRANCH  23  26
BRANCH  23  32
ATOM     32  C   UNL     1      -0.336  15.388  19.278  0.00  0.00    +0.000 C 
ATOM     33  N   UNL     1      -1.528  16.046  19.390  0.00  0.00    +0.000 N 
ATOM     34  O   UNL     1       0.659  16.004  18.905  0.00  0.00    +0.000 OA
ATOM     35  H   UNL     1      -2.361  15.469  19.366  0.00  0.00    +0.000 HD
ATOM     36  H   UNL     1      -1.563  16.966  18.978  0.00  0.00    +0.000 HD
ENDBRANCH  23  32
ENDBRANCH  19  20
ENDBRANCH   2  19
TORSDOF 9
ENDMDL
