MODEL 1
REMARK VINA RESULT:      -8.4      0.000      0.000
REMARK  Name = 
REMARK  7 active torsions:
REMARK  status: ('A' for Active; 'I' for Inactive)
REMARK    1  A    between atoms: C_1  and  C_2
REMARK    2  A    between atoms: C_2  and  C_4
REMARK    3  A    between atoms: C_5  and  O_6
REMARK    4  A    between atoms: C_8  and  O_9
REMARK    5  A    between atoms: C_8  and  N_10
REMARK    6  A    between atoms: N_10  and  C_11
REMARK    7  A    between atoms: C_15  and  C_16
REMARK                            x       y       z     vdW  Elec       q    Type
REMARK                         _______ _______ _______ _____ _____    ______ ____
ROOT
ATOM      1  C   UNL     1       3.090   4.159  19.744  0.00  0.00    +0.000 C 
ATOM      2  C   UNL     1       3.952   3.820  18.775  0.00  0.00    +0.000 C 
ATOM      3  C   UNL     1       4.411   4.783  17.783  0.00  0.00    +0.000 C 
ATOM      4  C   UNL     1       5.250   4.490  16.754  0.00  0.00    +0.000 C 
ATOM      5  C   UNL     1       3.864   6.172  17.888  0.00  0.00    +0.000 C 
ATOM      6  O   UNL     1       4.064   7.063  17.071  0.00  0.00    +0.000 OA
ATOM      7  O   UNL     1       3.061   6.450  18.937  0.00  0.00    +0.000 OA
ATOM      8  C   UNL     1       2.642   5.547  19.835  0.00  0.00    +0.000 C 
ATOM      9  O   UNL     1       1.885   5.900  20.735  0.00  0.00    +0.000 OA
ENDROOT
BRANCH   1  11
ATOM     10  C   UNL     1       1.164   2.682  20.693  0.00  0.00    +0.000 C 
ATOM     11  C   UNL     1       2.611   3.101  20.691  0.00  0.00    +0.000 C 
ATOM     12  O   UNL     1       3.439   2.515  21.392  0.00  0.00    +0.000 OA
ENDBRANCH   1  11
BRANCH   2  13
ATOM     13  O   UNL     1       4.467   2.534  18.626  0.00  0.00    +0.000 OA
ATOM     14  H   UNL     1       4.366   2.257  17.681  0.00  0.00    +0.000 HD
ENDBRANCH   2  13
BRANCH   4  15
ATOM     15  O   UNL     1       5.696   3.206  16.504  0.00  0.00    +0.000 OA
ATOM     16  H   UNL     1       6.555   3.093  16.959  0.00  0.00    +0.000 HD
ENDBRANCH   4  15
BRANCH   4  17
ATOM     17  N   UNL     1       5.710   5.368  15.800  0.00  0.00    +0.000 N 
ATOM     18  H   UNL     1       5.055   6.138  15.684  0.00  0.00    +0.000 HD
BRANCH  17  19
ATOM     19  C   UNL     1       6.166   4.969  14.513  0.00  0.00    +0.000 A 
ATOM     20  C   UNL     1       7.401   5.465  14.074  0.00  0.00    +0.000 A 
ATOM     21  C   UNL     1       7.958   5.045  12.865  0.00  0.00    +0.000 A 
ATOM     22  C   UNL     1       7.287   4.113  12.071  0.00  0.00    +0.000 A 
ATOM     23  C   UNL     1       6.053   3.600  12.486  0.00  0.00    +0.000 A 
ATOM     24  C   UNL     1       5.506   4.029  13.710  0.00  0.00    +0.000 A 
BRANCH  23  25
ATOM     25  C   UNL     1       5.281   2.596  11.696  0.00  0.00    +0.000 C 
ATOM     26  N   UNL     1       5.843   1.375  11.446  0.00  0.00    +0.000 N 
ATOM     27  O   UNL     1       4.157   2.844  11.274  0.00  0.00    +0.000 OA
ATOM     28  H   UNL     1       6.750   1.073  11.762  0.00  0.00    +0.000 HD
ATOM     29  H   UNL     1       5.286   0.720  10.914  0.00  0.00    +0.000 HD
ENDBRANCH  23  25
ENDBRANCH  17  19
ENDBRANCH   4  17
TORSDOF 6
ENDMDL
MODEL 2
REMARK VINA RESULT:      -7.9      1.274      1.409
REMARK  Name = 
REMARK  7 active torsions:
REMARK  status: ('A' for Active; 'I' for Inactive)
REMARK    1  A    between atoms: C_1  and  C_2
REMARK    2  A    between atoms: C_2  and  C_4
REMARK    3  A    between atoms: C_5  and  O_6
REMARK    4  A    between atoms: C_8  and  O_9
REMARK    5  A    between atoms: C_8  and  N_10
REMARK    6  A    between atoms: N_10  and  C_11
REMARK    7  A    between atoms: C_15  and  C_16
REMARK                            x       y       z     vdW  Elec       q    Type
REMARK                         _______ _______ _______ _____ _____    ______ ____
ROOT
ATOM      1  C   UNL     1       2.838   5.188  18.638  0.00  0.00    +0.000 C 
ATOM      2  C   UNL     1       3.766   4.431  18.034  0.00  0.00    +0.000 C 
ATOM      3  C   UNL     1       4.816   5.014  17.210  0.00  0.00    +0.000 C 
ATOM      4  C   UNL     1       5.757   4.297  16.539  0.00  0.00    +0.000 C 
ATOM      5  C   UNL     1       4.804   6.502  17.057  0.00  0.00    +0.000 C 
ATOM      6  O   UNL     1       5.547   7.131  16.313  0.00  0.00    +0.000 OA
ATOM      7  O   UNL     1       3.883   7.196  17.759  0.00  0.00    +0.000 OA
ATOM      8  C   UNL     1       2.918   6.640  18.505  0.00  0.00    +0.000 C 
ATOM      9  O   UNL     1       2.110   7.364  19.079  0.00  0.00    +0.000 OA
ENDROOT
BRANCH   1  11
ATOM     10  C   UNL     1       1.560   4.824  20.879  0.00  0.00    +0.000 C 
ATOM     11  C   UNL     1       1.749   4.515  19.417  0.00  0.00    +0.000 C 
ATOM     12  O   UNL     1       0.956   3.785  18.818  0.00  0.00    +0.000 OA
ENDBRANCH   1  11
BRANCH   2  13
ATOM     13  O   UNL     1       3.799   3.041  18.130  0.00  0.00    +0.000 OA
ATOM     14  H   UNL     1       4.373   2.684  17.407  0.00  0.00    +0.000 HD
ENDBRANCH   2  13
BRANCH   4  15
ATOM     15  O   UNL     1       5.760   2.915  16.516  0.00  0.00    +0.000 OA
ATOM     16  H   UNL     1       5.229   2.628  15.746  0.00  0.00    +0.000 HD
ENDBRANCH   4  15
BRANCH   4  17
ATOM     17  N   UNL     1       6.766   4.807  15.755  0.00  0.00    +0.000 N 
ATOM     18  H   UNL     1       6.930   5.785  15.983  0.00  0.00    +0.000 HD
BRANCH  17  19
ATOM     19  C   UNL     1       6.818   4.662  14.341  0.00  0.00    +0.000 A 
ATOM     20  C   UNL     1       7.723   5.465  13.634  0.00  0.00    +0.000 A 
ATOM     21  C   UNL     1       7.898   5.313  12.257  0.00  0.00    +0.000 A 
ATOM     22  C   UNL     1       7.171   4.347  11.561  0.00  0.00    +0.000 A 
ATOM     23  C   UNL     1       6.262   3.529  12.243  0.00  0.00    +0.000 A 
ATOM     24  C   UNL     1       6.099   3.691  13.632  0.00  0.00    +0.000 A 
BRANCH  23  25
ATOM     25  C   UNL     1       5.454   2.470  11.569  0.00  0.00    +0.000 C 
ATOM     26  N   UNL     1       6.008   1.234  11.379  0.00  0.00    +0.000 N 
ATOM     27  O   UNL     1       4.309   2.685  11.188  0.00  0.00    +0.000 OA
ATOM     28  H   UNL     1       6.932   0.957  11.670  0.00  0.00    +0.000 HD
ATOM     29  H   UNL     1       5.428   0.542  10.926  0.00  0.00    +0.000 HD
ENDBRANCH  23  25
ENDBRANCH  17  19
ENDBRANCH   4  17
TORSDOF 6
ENDMDL
MODEL 3
REMARK VINA RESULT:      -7.8      3.856      6.026
REMARK  Name = 
REMARK  7 active torsions:
REMARK  status: ('A' for Active; 'I' for Inactive)
REMARK    1  A    between atoms: C_1  and  C_2
REMARK    2  A    between atoms: C_2  and  C_4
REMARK    3  A    between atoms: C_5  and  O_6
REMARK    4  A    between atoms: C_8  and  O_9
REMARK    5  A    between atoms: C_8  and  N_10
REMARK    6  A    between atoms: N_10  and  C_11
REMARK    7  A    between atoms: C_15  and  C_16
REMARK                            x       y       z     vdW  Elec       q    Type
REMARK                         _______ _______ _______ _____ _____    ______ ____
ROOT
ATOM      1  C   UNL     1       0.515  10.062  21.240  0.00  0.00    +0.000 C 
ATOM      2  C   UNL     1       1.180   8.926  20.983  0.00  0.00    +0.000 C 
ATOM      3  C   UNL     1       1.682   8.614  19.651  0.00  0.00    +0.000 C 
ATOM      4  C   UNL     1       2.326   7.463  19.320  0.00  0.00    +0.000 C 
ATOM      5  C   UNL     1       1.409   9.617  18.575  0.00  0.00    +0.000 C 
ATOM      6  O   UNL     1       1.665   9.453  17.389  0.00  0.00    +0.000 OA
ATOM      7  O   UNL     1       0.799  10.768  18.933  0.00  0.00    +0.000 OA
ATOM      8  C   UNL     1       0.336  11.033  20.162  0.00  0.00    +0.000 C 
ATOM      9  O   UNL     1      -0.232  12.101  20.374  0.00  0.00    +0.000 OA
ENDROOT
BRANCH   1  11
ATOM     10  C   UNL     1      -1.340  11.003  22.809  0.00  0.00    +0.000 C 
ATOM     11  C   UNL     1      -0.029  10.287  22.617  0.00  0.00    +0.000 C 
ATOM     12  O   UNL     1       0.565   9.789  23.577  0.00  0.00    +0.000 OA
ENDBRANCH   1  11
BRANCH   2  13
ATOM     13  O   UNL     1       1.435   7.955  21.948  0.00  0.00    +0.000 OA
ATOM     14  H   UNL     1       1.753   7.132  21.498  0.00  0.00    +0.000 HD
ENDBRANCH   2  13
BRANCH   4  15
ATOM     15  O   UNL     1       2.501   6.427  20.218  0.00  0.00    +0.000 OA
ATOM     16  H   UNL     1       1.615   6.091  20.464  0.00  0.00    +0.000 HD
ENDBRANCH   4  15
BRANCH   4  17
ATOM     17  N   UNL     1       2.818   7.130  18.078  0.00  0.00    +0.000 N 
ATOM     18  H   UNL     1       2.106   7.278  17.366  0.00  0.00    +0.000 HD
BRANCH  17  19
ATOM     19  C   UNL     1       3.489   5.909  17.796  0.00  0.00    +0.000 A 
ATOM     20  C   UNL     1       2.707   4.759  17.618  0.00  0.00    +0.000 A 
ATOM     21  C   UNL     1       3.285   3.545  17.246  0.00  0.00    +0.000 A 
ATOM     22  C   UNL     1       4.663   3.459  17.040  0.00  0.00    +0.000 A 
ATOM     23  C   UNL     1       5.467   4.592  17.208  0.00  0.00    +0.000 A 
ATOM     24  C   UNL     1       4.870   5.811  17.579  0.00  0.00    +0.000 A 
BRANCH  23  25
ATOM     25  C   UNL     1       6.946   4.580  16.999  0.00  0.00    +0.000 C 
ATOM     26  N   UNL     1       7.764   4.344  18.069  0.00  0.00    +0.000 N 
ATOM     27  O   UNL     1       7.436   4.772  15.892  0.00  0.00    +0.000 OA
ATOM     28  H   UNL     1       7.457   4.161  19.010  0.00  0.00    +0.000 HD
ATOM     29  H   UNL     1       8.758   4.337  17.886  0.00  0.00    +0.000 HD
ENDBRANCH  23  25
ENDBRANCH  17  19
ENDBRANCH   4  17
TORSDOF 6
ENDMDL
MODEL 4
REMARK VINA RESULT:      -7.8      4.584      7.573
REMARK  Name = 
REMARK  7 active torsions:
REMARK  status: ('A' for Active; 'I' for Inactive)
REMARK    1  A    between atoms: C_1  and  C_2
REMARK    2  A    between atoms: C_2  and  C_4
REMARK    3  A    between atoms: C_5  and  O_6
REMARK    4  A    between atoms: C_8  and  O_9
REMARK    5  A    between atoms: C_8  and  N_10
REMARK    6  A    between atoms: N_10  and  C_11
REMARK    7  A    between atoms: C_15  and  C_16
REMARK                            x       y       z     vdW  Elec       q    Type
REMARK                         _______ _______ _______ _____ _____    ______ ____
ROOT
ATOM      1  C   UNL     1      -0.403  11.063  19.425  0.00  0.00    +0.000 C 
ATOM      2  C   UNL     1       0.403  10.114  18.926  0.00  0.00    +0.000 C 
ATOM      3  C   UNL     1       1.043   9.122  19.780  0.00  0.00    +0.000 C 
ATOM      4  C   UNL     1       1.901   8.164  19.340  0.00  0.00    +0.000 C 
ATOM      5  C   UNL     1       0.767   9.217  21.247  0.00  0.00    +0.000 C 
ATOM      6  O   UNL     1       1.312   8.532  22.104  0.00  0.00    +0.000 OA
ATOM      7  O   UNL     1      -0.115  10.153  21.659  0.00  0.00    +0.000 OA
ATOM      8  C   UNL     1      -0.685  11.065  20.858  0.00  0.00    +0.000 C 
ATOM      9  O   UNL     1      -1.452  11.893  21.341  0.00  0.00    +0.000 OA
ENDROOT
BRANCH   1  11
ATOM     10  C   UNL     1      -0.336  13.449  18.381  0.00  0.00    +0.000 C 
ATOM     11  C   UNL     1      -0.974  12.090  18.496  0.00  0.00    +0.000 C 
ATOM     12  O   UNL     1      -1.909  11.767  17.759  0.00  0.00    +0.000 OA
ENDBRANCH   1  11
BRANCH   2  13
ATOM     13  O   UNL     1       0.706  10.004  17.571  0.00  0.00    +0.000 OA
ATOM     14  H   UNL     1       0.321   9.160  17.224  0.00  0.00    +0.000 HD
ENDBRANCH   2  13
BRANCH   4  15
ATOM     15  O   UNL     1       2.315   8.087  18.023  0.00  0.00    +0.000 OA
ATOM     16  H   UNL     1       2.488   7.146  17.818  0.00  0.00    +0.000 HD
ENDBRANCH   4  15
BRANCH   4  17
ATOM     17  N   UNL     1       2.522   7.207  20.110  0.00  0.00    +0.000 N 
ATOM     18  H   UNL     1       3.518   7.405  20.182  0.00  0.00    +0.000 HD
BRANCH  17  19
ATOM     19  C   UNL     1       2.356   5.808  19.918  0.00  0.00    +0.000 A 
ATOM     20  C   UNL     1       1.276   5.184  20.557  0.00  0.00    +0.000 A 
ATOM     21  C   UNL     1       0.992   3.834  20.341  0.00  0.00    +0.000 A 
ATOM     22  C   UNL     1       1.787   3.082  19.475  0.00  0.00    +0.000 A 
ATOM     23  C   UNL     1       2.870   3.680  18.822  0.00  0.00    +0.000 A 
ATOM     24  C   UNL     1       3.142   5.043  19.046  0.00  0.00    +0.000 A 
BRANCH  23  25
ATOM     25  C   UNL     1       3.760   2.942  17.877  0.00  0.00    +0.000 C 
ATOM     26  N   UNL     1       3.913   1.592  18.028  0.00  0.00    +0.000 N 
ATOM     27  O   UNL     1       4.349   3.521  16.971  0.00  0.00    +0.000 OA
ATOM     28  H   UNL     1       3.461   1.027  18.729  0.00  0.00    +0.000 HD
ATOM     29  H   UNL     1       4.518   1.127  17.365  0.00  0.00    +0.000 HD
ENDBRANCH  23  25
ENDBRANCH  17  19
ENDBRANCH   4  17
TORSDOF 6
ENDMDL
MODEL 5
REMARK VINA RESULT:      -7.7      3.397      5.426
REMARK  Name = 
REMARK  7 active torsions:
REMARK  status: ('A' for Active; 'I' for Inactive)
REMARK    1  A    between atoms: C_1  and  C_2
REMARK    2  A    between atoms: C_2  and  C_4
REMARK    3  A    between atoms: C_5  and  O_6
REMARK    4  A    between atoms: C_8  and  O_9
REMARK    5  A    between atoms: C_8  and  N_10
REMARK    6  A    between atoms: N_10  and  C_11
REMARK    7  A    between atoms: C_15  and  C_16
REMARK                            x       y       z     vdW  Elec       q    Type
REMARK                         _______ _______ _______ _____ _____    ______ ____
ROOT
ATOM      1  C   UNL     1       0.896   9.817  19.649  0.00  0.00    +0.000 C 
ATOM      2  C   UNL     1       1.615   9.230  18.681  0.00  0.00    +0.000 C 
ATOM      3  C   UNL     1       2.153   7.885  18.832  0.00  0.00    +0.000 C 
ATOM      4  C   UNL     1       2.923   7.254  17.905  0.00  0.00    +0.000 C 
ATOM      5  C   UNL     1       1.876   7.189  20.127  0.00  0.00    +0.000 C 
ATOM      6  O   UNL     1       2.348   6.105  20.450  0.00  0.00    +0.000 OA
ATOM      7  O   UNL     1       1.080   7.819  21.018  0.00  0.00    +0.000 OA
ATOM      8  C   UNL     1       0.603   9.062  20.865  0.00  0.00    +0.000 C 
ATOM      9  O   UNL     1      -0.089   9.554  21.753  0.00  0.00    +0.000 OA
ENDROOT
BRANCH   1  11
ATOM     10  C   UNL     1      -1.011  11.511  19.118  0.00  0.00    +0.000 C 
ATOM     11  C   UNL     1       0.430  11.227  19.452  0.00  0.00    +0.000 C 
ATOM     12  O   UNL     1       1.222  12.148  19.665  0.00  0.00    +0.000 OA
ENDBRANCH   1  11
BRANCH   2  13
ATOM     13  O   UNL     1       1.918   9.851  17.471  0.00  0.00    +0.000 OA
ATOM     14  H   UNL     1       1.690  10.812  17.539  0.00  0.00    +0.000 HD
ENDBRANCH   2  13
BRANCH   4  15
ATOM     15  O   UNL     1       3.339   7.873  16.742  0.00  0.00    +0.000 OA
ATOM     16  H   UNL     1       4.231   8.243  16.902  0.00  0.00    +0.000 HD
ENDBRANCH   4  15
BRANCH   4  17
ATOM     17  N   UNL     1       3.447   5.985  18.006  0.00  0.00    +0.000 N 
ATOM     18  H   UNL     1       3.232   5.586  18.917  0.00  0.00    +0.000 HD
BRANCH  17  19
ATOM     19  C   UNL     1       4.791   5.658  17.678  0.00  0.00    +0.000 A 
ATOM     20  C   UNL     1       5.703   5.507  18.731  0.00  0.00    +0.000 A 
ATOM     21  C   UNL     1       7.016   5.095  18.495  0.00  0.00    +0.000 A 
ATOM     22  C   UNL     1       7.440   4.820  17.194  0.00  0.00    +0.000 A 
ATOM     23  C   UNL     1       6.550   4.959  16.124  0.00  0.00    +0.000 A 
ATOM     24  C   UNL     1       5.228   5.372  16.377  0.00  0.00    +0.000 A 
BRANCH  23  25
ATOM     25  C   UNL     1       6.928   4.677  14.707  0.00  0.00    +0.000 C 
ATOM     26  N   UNL     1       6.340   3.625  14.062  0.00  0.00    +0.000 N 
ATOM     27  O   UNL     1       7.748   5.370  14.115  0.00  0.00    +0.000 OA
ATOM     28  H   UNL     1       5.647   3.010  14.457  0.00  0.00    +0.000 HD
ATOM     29  H   UNL     1       6.617   3.470  13.102  0.00  0.00    +0.000 HD
ENDBRANCH  23  25
ENDBRANCH  17  19
ENDBRANCH   4  17
TORSDOF 6
ENDMDL
MODEL 6
REMARK VINA RESULT:      -7.7      3.702      5.709
REMARK  Name = 
REMARK  7 active torsions:
REMARK  status: ('A' for Active; 'I' for Inactive)
REMARK    1  A    between atoms: C_1  and  C_2
REMARK    2  A    between atoms: C_2  and  C_4
REMARK    3  A    between atoms: C_5  and  O_6
REMARK    4  A    between atoms: C_8  and  O_9
REMARK    5  A    between atoms: C_8  and  N_10
REMARK    6  A    between atoms: N_10  and  C_11
REMARK    7  A    between atoms: C_15  and  C_16
REMARK                            x       y       z     vdW  Elec       q    Type
REMARK                         _______ _______ _______ _____ _____    ______ ____
ROOT
ATOM      1  C   UNL     1       1.256   9.206  20.668  0.00  0.00    +0.000 C 
ATOM      2  C   UNL     1       1.669   7.942  20.492  0.00  0.00    +0.000 C 
ATOM      3  C   UNL     1       2.192   7.475  19.215  0.00  0.00    +0.000 C 
ATOM      4  C   UNL     1       2.585   6.198  18.962  0.00  0.00    +0.000 C 
ATOM      5  C   UNL     1       2.235   8.471  18.099  0.00  0.00    +0.000 C 
ATOM      6  O   UNL     1       2.541   8.209  16.942  0.00  0.00    +0.000 OA
ATOM      7  O   UNL     1       1.873   9.742  18.380  0.00  0.00    +0.000 OA
ATOM      8  C   UNL     1       1.385  10.150  19.560  0.00  0.00    +0.000 C 
ATOM      9  O   UNL     1       1.056  11.324  19.701  0.00  0.00    +0.000 OA
ENDROOT
BRANCH   1  11
ATOM     10  C   UNL     1      -0.803   9.884  22.112  0.00  0.00    +0.000 C 
ATOM     11  C   UNL     1       0.670   9.599  21.989  0.00  0.00    +0.000 C 
ATOM     12  O   UNL     1       1.397   9.586  22.986  0.00  0.00    +0.000 OA
ENDBRANCH   1  11
BRANCH   2  13
ATOM     13  O   UNL     1       1.623   6.976  21.495  0.00  0.00    +0.000 OA
ATOM     14  H   UNL     1       1.457   7.423  22.362  0.00  0.00    +0.000 HD
ENDBRANCH   2  13
BRANCH   4  15
ATOM     15  O   UNL     1       2.453   5.185  19.893  0.00  0.00    +0.000 OA
ATOM     16  H   UNL     1       3.345   4.821  20.068  0.00  0.00    +0.000 HD
ENDBRANCH   4  15
BRANCH   4  17
ATOM     17  N   UNL     1       3.087   5.717  17.775  0.00  0.00    +0.000 N 
ATOM     18  H   UNL     1       2.497   4.967  17.422  0.00  0.00    +0.000 HD
BRANCH  17  19
ATOM     19  C   UNL     1       4.447   5.348  17.583  0.00  0.00    +0.000 A 
ATOM     20  C   UNL     1       4.751   4.515  16.497  0.00  0.00    +0.000 A 
ATOM     21  C   UNL     1       6.073   4.187  16.189  0.00  0.00    +0.000 A 
ATOM     22  C   UNL     1       7.118   4.691  16.964  0.00  0.00    +0.000 A 
ATOM     23  C   UNL     1       6.843   5.525  18.053  0.00  0.00    +0.000 A 
ATOM     24  C   UNL     1       5.506   5.852  18.349  0.00  0.00    +0.000 A 
BRANCH  23  25
ATOM     25  C   UNL     1       7.907   6.108  18.923  0.00  0.00    +0.000 C 
ATOM     26  N   UNL     1       8.362   5.383  19.989  0.00  0.00    +0.000 N 
ATOM     27  O   UNL     1       8.382   7.216  18.697  0.00  0.00    +0.000 OA
ATOM     28  H   UNL     1       8.047   4.462  20.246  0.00  0.00    +0.000 HD
ATOM     29  H   UNL     1       9.088   5.808  20.550  0.00  0.00    +0.000 HD
ENDBRANCH  23  25
ENDBRANCH  17  19
ENDBRANCH   4  17
TORSDOF 6
ENDMDL
MODEL 7
REMARK VINA RESULT:      -7.6      3.324      5.184
REMARK  Name = 
REMARK  7 active torsions:
REMARK  status: ('A' for Active; 'I' for Inactive)
REMARK    1  A    between atoms: C_1  and  C_2
REMARK    2  A    between atoms: C_2  and  C_4
REMARK    3  A    between atoms: C_5  and  O_6
REMARK    4  A    between atoms: C_8  and  O_9
REMARK    5  A    between atoms: C_8  and  N_10
REMARK    6  A    between atoms: N_10  and  C_11
REMARK    7  A    between atoms: C_15  and  C_16
REMARK                            x       y       z     vdW  Elec       q    Type
REMARK                         _______ _______ _______ _____ _____    ______ ____
ROOT
ATOM      1  C   UNL     1       1.105   9.523  20.746  0.00  0.00    +0.000 C 
ATOM      2  C   UNL     1       1.561   8.270  20.602  0.00  0.00    +0.000 C 
ATOM      3  C   UNL     1       2.092   7.786  19.335  0.00  0.00    +0.000 C 
ATOM      4  C   UNL     1       2.528   6.518  19.115  0.00  0.00    +0.000 C 
ATOM      5  C   UNL     1       2.095   8.752  18.192  0.00  0.00    +0.000 C 
ATOM      6  O   UNL     1       2.403   8.468  17.041  0.00  0.00    +0.000 OA
ATOM      7  O   UNL     1       1.690  10.017  18.440  0.00  0.00    +0.000 OA
ATOM      8  C   UNL     1       1.195  10.440  19.612  0.00  0.00    +0.000 C 
ATOM      9  O   UNL     1       0.826  11.606  19.723  0.00  0.00    +0.000 OA
ENDROOT
BRANCH   1  11
ATOM     10  C   UNL     1      -0.892  10.470  22.125  0.00  0.00    +0.000 C 
ATOM     11  C   UNL     1       0.513   9.933  22.060  0.00  0.00    +0.000 C 
ATOM     12  O   UNL     1       1.160   9.727  23.090  0.00  0.00    +0.000 OA
ENDBRANCH   1  11
BRANCH   2  13
ATOM     13  O   UNL     1       1.554   7.332  21.631  0.00  0.00    +0.000 OA
ATOM     14  H   UNL     1       0.618   7.071  21.821  0.00  0.00    +0.000 HD
ENDBRANCH   2  13
BRANCH   4  15
ATOM     15  O   UNL     1       2.437   5.526  20.074  0.00  0.00    +0.000 OA
ATOM     16  H   UNL     1       1.629   5.005  19.889  0.00  0.00    +0.000 HD
ENDBRANCH   4  15
BRANCH   4  17
ATOM     17  N   UNL     1       3.040   6.021  17.938  0.00  0.00    +0.000 N 
ATOM     18  H   UNL     1       2.485   5.229  17.620  0.00  0.00    +0.000 HD
BRANCH  17  19
ATOM     19  C   UNL     1       4.414   5.716  17.740  0.00  0.00    +0.000 A 
ATOM     20  C   UNL     1       5.230   5.606  18.875  0.00  0.00    +0.000 A 
ATOM     21  C   UNL     1       6.566   5.217  18.768  0.00  0.00    +0.000 A 
ATOM     22  C   UNL     1       7.112   4.925  17.517  0.00  0.00    +0.000 A 
ATOM     23  C   UNL     1       6.320   5.024  16.368  0.00  0.00    +0.000 A 
ATOM     24  C   UNL     1       4.973   5.413  16.491  0.00  0.00    +0.000 A 
BRANCH  23  25
ATOM     25  C   UNL     1       6.831   4.721  14.998  0.00  0.00    +0.000 C 
ATOM     26  N   UNL     1       6.312   3.654  14.318  0.00  0.00    +0.000 N 
ATOM     27  O   UNL     1       7.698   5.410  14.473  0.00  0.00    +0.000 OA
ATOM     28  H   UNL     1       5.589   3.040  14.657  0.00  0.00    +0.000 HD
ATOM     29  H   UNL     1       6.679   3.486  13.391  0.00  0.00    +0.000 HD
ENDBRANCH  23  25
ENDBRANCH  17  19
ENDBRANCH   4  17
TORSDOF 6
ENDMDL
MODEL 8
REMARK VINA RESULT:      -7.6      1.489      2.755
REMARK  Name = 
REMARK  7 active torsions:
REMARK  status: ('A' for Active; 'I' for Inactive)
REMARK    1  A    between atoms: C_1  and  C_2
REMARK    2  A    between atoms: C_2  and  C_4
REMARK    3  A    between atoms: C_5  and  O_6
REMARK    4  A    between atoms: C_8  and  O_9
REMARK    5  A    between atoms: C_8  and  N_10
REMARK    6  A    between atoms: N_10  and  C_11
REMARK    7  A    between atoms: C_15  and  C_16
REMARK                            x       y       z     vdW  Elec       q    Type
REMARK                         _______ _______ _______ _____ _____    ______ ____
ROOT
ATOM      1  C   UNL     1       2.755   6.215  18.622  0.00  0.00    +0.000 C 
ATOM      2  C   UNL     1       3.845   6.496  17.893  0.00  0.00    +0.000 C 
ATOM      3  C   UNL     1       4.640   5.450  17.264  0.00  0.00    +0.000 C 
ATOM      4  C   UNL     1       5.776   5.669  16.549  0.00  0.00    +0.000 C 
ATOM      5  C   UNL     1       4.190   4.040  17.479  0.00  0.00    +0.000 C 
ATOM      6  O   UNL     1       4.809   3.048  17.113  0.00  0.00    +0.000 OA
ATOM      7  O   UNL     1       3.041   3.847  18.162  0.00  0.00    +0.000 OA
ATOM      8  C   UNL     1       2.328   4.823  18.742  0.00  0.00    +0.000 C 
ATOM      9  O   UNL     1       1.311   4.535  19.367  0.00  0.00    +0.000 OA
ENDROOT
BRANCH   1  11
ATOM     10  C   UNL     1       1.726   7.273  20.769  0.00  0.00    +0.000 C 
ATOM     11  C   UNL     1       2.024   7.336  19.294  0.00  0.00    +0.000 C 
ATOM     12  O   UNL     1       1.762   8.348  18.639  0.00  0.00    +0.000 OA
ENDBRANCH   1  11
BRANCH   2  13
ATOM     13  O   UNL     1       4.313   7.792  17.687  0.00  0.00    +0.000 OA
ATOM     14  H   UNL     1       3.563   8.426  17.806  0.00  0.00    +0.000 HD
ENDBRANCH   2  13
BRANCH   4  15
ATOM     15  O   UNL     1       6.336   6.925  16.414  0.00  0.00    +0.000 OA
ATOM     16  H   UNL     1       7.073   6.857  15.773  0.00  0.00    +0.000 HD
ENDBRANCH   4  15
BRANCH   4  17
ATOM     17  N   UNL     1       6.553   4.712  15.937  0.00  0.00    +0.000 N 
ATOM     18  H   UNL     1       7.485   4.700  16.346  0.00  0.00    +0.000 HD
BRANCH  17  19
ATOM     19  C   UNL     1       6.681   4.582  14.526  0.00  0.00    +0.000 A 
ATOM     20  C   UNL     1       7.651   5.363  13.883  0.00  0.00    +0.000 A 
ATOM     21  C   UNL     1       7.900   5.222  12.517  0.00  0.00    +0.000 A 
ATOM     22  C   UNL     1       7.180   4.290  11.767  0.00  0.00    +0.000 A 
ATOM     23  C   UNL     1       6.207   3.497  12.384  0.00  0.00    +0.000 A 
ATOM     24  C   UNL     1       5.970   3.646  13.763  0.00  0.00    +0.000 A 
BRANCH  23  25
ATOM     25  C   UNL     1       5.403   2.475  11.650  0.00  0.00    +0.000 C 
ATOM     26  N   UNL     1       5.925   1.223  11.473  0.00  0.00    +0.000 N 
ATOM     27  O   UNL     1       4.289   2.734  11.209  0.00  0.00    +0.000 OA
ATOM     28  H   UNL     1       6.821   0.911  11.810  0.00  0.00    +0.000 HD
ATOM     29  H   UNL     1       5.348   0.557  10.977  0.00  0.00    +0.000 HD
ENDBRANCH  23  25
ENDBRANCH  17  19
ENDBRANCH   4  17
TORSDOF 6
ENDMDL
MODEL 9
REMARK VINA RESULT:      -7.5      4.513      7.788
REMARK  Name = 
REMARK  7 active torsions:
REMARK  status: ('A' for Active; 'I' for Inactive)
REMARK    1  A    between atoms: C_1  and  C_2
REMARK    2  A    between atoms: C_2  and  C_4
REMARK    3  A    between atoms: C_5  and  O_6
REMARK    4  A    between atoms: C_8  and  O_9
REMARK    5  A    between atoms: C_8  and  N_10
REMARK    6  A    between atoms: N_10  and  C_11
REMARK    7  A    between atoms: C_15  and  C_16
REMARK                            x       y       z     vdW  Elec       q    Type
REMARK                         _______ _______ _______ _____ _____    ______ ____
ROOT
ATOM      1  C   UNL     1       3.105   4.137  19.025  0.00  0.00    +0.000 C 
ATOM      2  C   UNL     1       2.524   5.128  19.718  0.00  0.00    +0.000 C 
ATOM      3  C   UNL     1       2.529   6.505  19.241  0.00  0.00    +0.000 C 
ATOM      4  C   UNL     1       1.995   7.557  19.916  0.00  0.00    +0.000 C 
ATOM      5  C   UNL     1       3.225   6.766  17.942  0.00  0.00    +0.000 C 
ATOM      6  O   UNL     1       3.411   7.878  17.463  0.00  0.00    +0.000 OA
ATOM      7  O   UNL     1       3.716   5.702  17.271  0.00  0.00    +0.000 OA
ATOM      8  C   UNL     1       3.711   4.444  17.731  0.00  0.00    +0.000 C 
ATOM      9  O   UNL     1       4.214   3.552  17.052  0.00  0.00    +0.000 OA
ENDROOT
BRANCH   1  11
ATOM     10  C   UNL     1       4.397   2.173  20.146  0.00  0.00    +0.000 C 
ATOM     11  C   UNL     1       3.118   2.757  19.608  0.00  0.00    +0.000 C 
ATOM     12  O   UNL     1       2.048   2.155  19.728  0.00  0.00    +0.000 OA
ENDBRANCH   1  11
BRANCH   2  13
ATOM     13  O   UNL     1       1.888   4.934  20.941  0.00  0.00    +0.000 OA
ATOM     14  H   UNL     1       2.331   5.495  21.626  0.00  0.00    +0.000 HD
ENDBRANCH   2  13
BRANCH   4  15
ATOM     15  O   UNL     1       1.454   7.428  21.181  0.00  0.00    +0.000 OA
ATOM     16  H   UNL     1       2.191   7.449  21.826  0.00  0.00    +0.000 HD
ENDBRANCH   4  15
BRANCH   4  17
ATOM     17  N   UNL     1       1.974   8.869  19.501  0.00  0.00    +0.000 N 
ATOM     18  H   UNL     1       2.725   9.391  19.947  0.00  0.00    +0.000 HD
BRANCH  17  19
ATOM     19  C   UNL     1       0.805   9.678  19.497  0.00  0.00    +0.000 A 
ATOM     20  C   UNL     1       0.625  10.573  20.560  0.00  0.00    +0.000 A 
ATOM     21  C   UNL     1      -0.448  11.466  20.578  0.00  0.00    +0.000 A 
ATOM     22  C   UNL     1      -1.363  11.481  19.524  0.00  0.00    +0.000 A 
ATOM     23  C   UNL     1      -1.207  10.600  18.449  0.00  0.00    +0.000 A 
ATOM     24  C   UNL     1      -0.117   9.708  18.442  0.00  0.00    +0.000 A 
BRANCH  23  25
ATOM     25  C   UNL     1      -2.140  10.562  17.284  0.00  0.00    +0.000 C 
ATOM     26  N   UNL     1      -2.171  11.626  16.425  0.00  0.00    +0.000 N 
ATOM     27  O   UNL     1      -2.870   9.598  17.081  0.00  0.00    +0.000 OA
ATOM     28  H   UNL     1      -1.600  12.452  16.498  0.00  0.00    +0.000 HD
ATOM     29  H   UNL     1      -2.810  11.560  15.645  0.00  0.00    +0.000 HD
ENDBRANCH  23  25
ENDBRANCH  17  19
ENDBRANCH   4  17
TORSDOF 6
ENDMDL
