MODEL 1
REMARK VINA RESULT:      -7.6      0.000      0.000
REMARK  Name = 
REMARK  13 active torsions:
REMARK  status: ('A' for Active; 'I' for Inactive)
REMARK    1  A    between atoms: CD1_1  and  CG1_2
REMARK    2  A    between atoms: CG1_2  and  CB_3
REMARK    3  A    between atoms: CB_3  and  CG2_4
REMARK    4  A    between atoms: CB_3  and  CA_5
REMARK    5  A    between atoms: CA_5  and  N_6
REMARK    6  A    between atoms: CA_5  and  C_28
REMARK    7  A    between atoms: C_7  and  C_9
REMARK    8  A    between atoms: C_9  and  C_10
REMARK    9  A    between atoms: C_11  and  C_12
REMARK   10  A    between atoms: C_16  and  C_17
REMARK   11  A    between atoms: C_19  and  C_20
REMARK   12  A    between atoms: C_21  and  C_22
REMARK   13  A    between atoms: C_28  and  OXT_30
REMARK                            x       y       z     vdW  Elec       q    Type
REMARK                         _______ _______ _______ _____ _____    ______ ____
ROOT
ATOM      1  C   UNK A   0       1.650   9.176  19.302  0.00  0.00    +0.000 A 
ATOM      2  C   UNK A   0       1.813   7.960  19.879  0.00  0.00    +0.000 A 
ATOM      3  C   UNK A   0       1.274   7.608  21.239  0.00  0.00    +0.000 C 
ATOM      4  C   UNK A   0       2.537   6.924  19.120  0.00  0.00    +0.000 A 
ATOM      5  C   UNK A   0       3.112   7.236  17.892  0.00  0.00    +0.000 A 
ATOM      6  C   UNK A   0       3.796   6.312  17.104  0.00  0.00    +0.000 A 
ATOM      7  C   UNK A   0       3.931   4.972  17.506  0.00  0.00    +0.000 A 
ATOM      8  C   UNK A   0       4.658   4.022  16.596  0.00  0.00    +0.000 C 
ATOM      9  C   UNK A   0       3.360   4.599  18.751  0.00  0.00    +0.000 A 
ATOM     10  C   UNK A   0       3.265   3.376  19.503  0.00  0.00    +0.000 A 
ATOM     11  C   UNK A   0       3.778   2.022  19.169  0.00  0.00    +0.000 C 
ATOM     12  C   UNK A   0       2.572   3.694  20.656  0.00  0.00    +0.000 A 
ATOM     13  C   UNK A   0       2.149   2.899  21.830  0.00  0.00    +0.000 C 
ATOM     14  O   UNK A   0       2.225   5.009  20.661  0.00  0.00    +0.000 OA
ATOM     15  C   UNK A   0       2.694   5.577  19.506  0.00  0.00    +0.000 A 
ATOM     16  O   UNK A   0       3.010   8.531  17.359  0.00  0.00    +0.000 OA
ATOM     17  C   UNK A   0       2.252   9.503  17.978  0.00  0.00    +0.000 A 
ATOM     18  O   UNK A   0       2.094  10.609  17.467  0.00  0.00    +0.000 OA
ENDROOT
BRANCH   1  19
ATOM     19  C   UNK A   0       0.893  10.353  19.881  0.00  0.00    +0.000 C 
BRANCH  19  21
ATOM     20  N   ILE A   1      -1.124  10.860  18.576  0.00  0.00    +0.000 N 
ATOM     21  C   UNK A   0      -0.605  10.172  19.648  0.00  0.00    +0.000 C 
ATOM     22  O   UNK A   0      -1.295   9.458  20.373  0.00  0.00    +0.000 OA
ATOM     23  H   ILE A   1      -0.469  11.191  17.863  0.00  0.00    +0.000 HD
BRANCH  20  24
ATOM     24  CA  ILE A   1      -2.527  10.717  18.161  0.00  0.00    +0.000 C 
BRANCH  24  25
ATOM     25  CB  ILE A   1      -3.373  11.949  18.581  0.00  0.00    +0.000 C 
ATOM     26  CG2 ILE A   1      -4.883  11.692  18.461  0.00  0.00    +0.000 C 
BRANCH  25  28
ATOM     27  CD1 ILE A   1      -4.157  13.160  20.735  0.00  0.00    +0.000 C 
ATOM     28  CG1 ILE A   1      -3.026  12.444  20.004  0.00  0.00    +0.000 C 
ENDBRANCH  25  28
ENDBRANCH  24  25
BRANCH  24  29
ATOM     29  C   ILE A   1      -2.512  10.548  16.633  0.00  0.00    +0.000 C 
ATOM     30  O   ILE A   1      -2.768   9.495  16.064  0.00  0.00    +0.000 OA
BRANCH  29  31
ATOM     31  OXT ILE A   1      -2.214  11.676  15.951  0.00  0.00    +0.000 OA
ATOM     32  HXT ILE A   1      -1.464  11.587  15.332  0.00  0.00    +0.000 HD
ENDBRANCH  29  31
ENDBRANCH  24  29
ENDBRANCH  20  24
ENDBRANCH  19  21
ENDBRANCH   1  19
TORSDOF 7
ENDMDL
MODEL 2
REMARK VINA RESULT:      -7.5      3.163      8.671
REMARK  Name = 
REMARK  13 active torsions:
REMARK  status: ('A' for Active; 'I' for Inactive)
REMARK    1  A    between atoms: CD1_1  and  CG1_2
REMARK    2  A    between atoms: CG1_2  and  CB_3
REMARK    3  A    between atoms: CB_3  and  CG2_4
REMARK    4  A    between atoms: CB_3  and  CA_5
REMARK    5  A    between atoms: CA_5  and  N_6
REMARK    6  A    between atoms: CA_5  and  C_28
REMARK    7  A    between atoms: C_7  and  C_9
REMARK    8  A    between atoms: C_9  and  C_10
REMARK    9  A    between atoms: C_11  and  C_12
REMARK   10  A    between atoms: C_16  and  C_17
REMARK   11  A    between atoms: C_19  and  C_20
REMARK   12  A    between atoms: C_21  and  C_22
REMARK   13  A    between atoms: C_28  and  OXT_30
REMARK                            x       y       z     vdW  Elec       q    Type
REMARK                         _______ _______ _______ _____ _____    ______ ____
ROOT
ATOM      1  C   UNK A   0       2.159   6.565  19.018  0.00  0.00    +0.000 A 
ATOM      2  C   UNK A   0       2.043   7.908  18.867  0.00  0.00    +0.000 A 
ATOM      3  C   UNK A   0       2.550   8.656  17.664  0.00  0.00    +0.000 C 
ATOM      4  C   UNK A   0       1.360   8.668  19.930  0.00  0.00    +0.000 A 
ATOM      5  C   UNK A   0       0.943   8.020  21.089  0.00  0.00    +0.000 A 
ATOM      6  C   UNK A   0       0.276   8.660  22.133  0.00  0.00    +0.000 A 
ATOM      7  C   UNK A   0      -0.040  10.028  22.063  0.00  0.00    +0.000 A 
ATOM      8  C   UNK A   0      -0.785  10.650  23.211  0.00  0.00    +0.000 C 
ATOM      9  C   UNK A   0       0.360  10.737  20.899  0.00  0.00    +0.000 A 
ATOM     10  C   UNK A   0       0.232  12.094  20.438  0.00  0.00    +0.000 A 
ATOM     11  C   UNK A   0      -0.417  13.255  21.097  0.00  0.00    +0.000 C 
ATOM     12  C   UNK A   0       0.849  12.132  19.201  0.00  0.00    +0.000 A 
ATOM     13  C   UNK A   0       1.065  13.214  18.216  0.00  0.00    +0.000 C 
ATOM     14  O   UNK A   0       1.331  10.905  18.867  0.00  0.00    +0.000 OA
ATOM     15  C   UNK A   0       1.040  10.040  19.888  0.00  0.00    +0.000 A 
ATOM     16  O   UNK A   0       1.162   6.644  21.263  0.00  0.00    +0.000 OA
ATOM     17  C   UNK A   0       1.696   5.871  20.253  0.00  0.00    +0.000 A 
ATOM     18  O   UNK A   0       1.808   4.653  20.374  0.00  0.00    +0.000 OA
ENDROOT
BRANCH   1  19
ATOM     19  C   UNK A   0       2.769   5.598  18.024  0.00  0.00    +0.000 C 
BRANCH  19  21
ATOM     20  N   ILE A   1       4.889   5.837  16.808  0.00  0.00    +0.000 N 
ATOM     21  C   UNK A   0       4.289   5.724  18.042  0.00  0.00    +0.000 C 
ATOM     22  O   UNK A   0       4.930   5.725  19.091  0.00  0.00    +0.000 OA
ATOM     23  H   ILE A   1       4.300   6.115  16.020  0.00  0.00    +0.000 HD
BRANCH  20  24
ATOM     24  CA  ILE A   1       6.335   6.061  16.660  0.00  0.00    +0.000 C 
BRANCH  24  25
ATOM     25  CB  ILE A   1       7.091   5.795  17.989  0.00  0.00    +0.000 C 
ATOM     26  CG2 ILE A   1       7.915   4.499  17.946  0.00  0.00    +0.000 C 
BRANCH  25  28
ATOM     27  CD1 ILE A   1       7.785   8.262  17.594  0.00  0.00    +0.000 C 
ATOM     28  CG1 ILE A   1       7.988   6.985  18.403  0.00  0.00    +0.000 C 
ENDBRANCH  25  28
ENDBRANCH  24  25
BRANCH  24  29
ATOM     29  C   ILE A   1       6.808   5.108  15.551  0.00  0.00    +0.000 C 
ATOM     30  O   ILE A   1       6.302   4.014  15.333  0.00  0.00    +0.000 OA
BRANCH  29  31
ATOM     31  OXT ILE A   1       7.828   5.586  14.802  0.00  0.00    +0.000 OA
ATOM     32  HXT ILE A   1       7.566   6.269  14.155  0.00  0.00    +0.000 HD
ENDBRANCH  29  31
ENDBRANCH  24  29
ENDBRANCH  20  24
ENDBRANCH  19  21
ENDBRANCH   1  19
TORSDOF 7
ENDMDL
MODEL 3
REMARK VINA RESULT:      -7.5      3.226      8.678
REMARK  Name = 
REMARK  13 active torsions:
REMARK  status: ('A' for Active; 'I' for Inactive)
REMARK    1  A    between atoms: CD1_1  and  CG1_2
REMARK    2  A    between atoms: CG1_2  and  CB_3
REMARK    3  A    between atoms: CB_3  and  CG2_4
REMARK    4  A    between atoms: CB_3  and  CA_5
REMARK    5  A    between atoms: CA_5  and  N_6
REMARK    6  A    between atoms: CA_5  and  C_28
REMARK    7  A    between atoms: C_7  and  C_9
REMARK    8  A    between atoms: C_9  and  C_10
REMARK    9  A    between atoms: C_11  and  C_12
REMARK   10  A    between atoms: C_16  and  C_17
REMARK   11  A    between atoms: C_19  and  C_20
REMARK   12  A    between atoms: C_21  and  C_22
REMARK   13  A    between atoms: C_28  and  OXT_30
REMARK                            x       y       z     vdW  Elec       q    Type
REMARK                         _______ _______ _______ _____ _____    ______ ____
ROOT
ATOM      1  C   UNK A   0       2.283   6.544  19.064  0.00  0.00    +0.000 A 
ATOM      2  C   UNK A   0       2.147   7.884  18.906  0.00  0.00    +0.000 A 
ATOM      3  C   UNK A   0       2.670   8.637  17.713  0.00  0.00    +0.000 C 
ATOM      4  C   UNK A   0       1.424   8.635  19.950  0.00  0.00    +0.000 A 
ATOM      5  C   UNK A   0       0.991   7.983  21.101  0.00  0.00    +0.000 A 
ATOM      6  C   UNK A   0       0.287   8.615  22.125  0.00  0.00    +0.000 A 
ATOM      7  C   UNK A   0      -0.051   9.977  22.043  0.00  0.00    +0.000 A 
ATOM      8  C   UNK A   0      -0.835  10.588  23.171  0.00  0.00    +0.000 C 
ATOM      9  C   UNK A   0       0.365  10.689  20.887  0.00  0.00    +0.000 A 
ATOM     10  C   UNK A   0       0.224  12.042  20.418  0.00  0.00    +0.000 A 
ATOM     11  C   UNK A   0      -0.461  13.194  21.058  0.00  0.00    +0.000 C 
ATOM     12  C   UNK A   0       0.871  12.088  19.197  0.00  0.00    +0.000 A 
ATOM     13  C   UNK A   0       1.092  13.170  18.213  0.00  0.00    +0.000 C 
ATOM     14  O   UNK A   0       1.383  10.868  18.878  0.00  0.00    +0.000 OA
ATOM     15  C   UNK A   0       1.082  10.001  19.895  0.00  0.00    +0.000 A 
ATOM     16  O   UNK A   0       1.229   6.612  21.284  0.00  0.00    +0.000 OA
ATOM     17  C   UNK A   0       1.802   5.845  20.290  0.00  0.00    +0.000 A 
ATOM     18  O   UNK A   0       1.932   4.630  20.418  0.00  0.00    +0.000 OA
ENDROOT
BRANCH   1  19
ATOM     19  C   UNK A   0       2.934   5.585  18.089  0.00  0.00    +0.000 C 
BRANCH  19  21
ATOM     20  N   ILE A   1       5.105   5.880  16.982  0.00  0.00    +0.000 N 
ATOM     21  C   UNK A   0       4.452   5.702  18.180  0.00  0.00    +0.000 C 
ATOM     22  O   UNK A   0       5.047   5.642  19.254  0.00  0.00    +0.000 OA
ATOM     23  H   ILE A   1       4.552   6.204  16.184  0.00  0.00    +0.000 HD
BRANCH  20  24
ATOM     24  CA  ILE A   1       6.557   6.105  16.909  0.00  0.00    +0.000 C 
BRANCH  24  25
ATOM     25  CB  ILE A   1       7.046   7.038  18.048  0.00  0.00    +0.000 C 
ATOM     26  CG2 ILE A   1       8.152   6.396  18.898  0.00  0.00    +0.000 C 
BRANCH  25  28
ATOM     27  CD1 ILE A   1       8.543   9.127  18.387  0.00  0.00    +0.000 C 
ATOM     28  CG1 ILE A   1       7.510   8.416  17.520  0.00  0.00    +0.000 C 
ENDBRANCH  25  28
ENDBRANCH  24  25
BRANCH  24  29
ATOM     29  C   ILE A   1       7.214   4.718  17.006  0.00  0.00    +0.000 C 
ATOM     30  O   ILE A   1       8.002   4.281  16.177  0.00  0.00    +0.000 OA
BRANCH  29  31
ATOM     31  OXT ILE A   1       6.871   4.014  18.108  0.00  0.00    +0.000 OA
ATOM     32  HXT ILE A   1       7.096   3.065  18.068  0.00  0.00    +0.000 HD
ENDBRANCH  29  31
ENDBRANCH  24  29
ENDBRANCH  20  24
ENDBRANCH  19  21
ENDBRANCH   1  19
TORSDOF 7
ENDMDL
MODEL 4
REMARK VINA RESULT:      -7.4      2.744      4.139
REMARK  Name = 
REMARK  13 active torsions:
REMARK  status: ('A' for Active; 'I' for Inactive)
REMARK    1  A    between atoms: CD1_1  and  CG1_2
REMARK    2  A    between atoms: CG1_2  and  CB_3
REMARK    3  A    between atoms: CB_3  and  CG2_4
REMARK    4  A    between atoms: CB_3  and  CA_5
REMARK    5  A    between atoms: CA_5  and  N_6
REMARK    6  A    between atoms: CA_5  and  C_28
REMARK    7  A    between atoms: C_7  and  C_9
REMARK    8  A    between atoms: C_9  and  C_10
REMARK    9  A    between atoms: C_11  and  C_12
REMARK   10  A    between atoms: C_16  and  C_17
REMARK   11  A    between atoms: C_19  and  C_20
REMARK   12  A    between atoms: C_21  and  C_22
REMARK   13  A    between atoms: C_28  and  OXT_30
REMARK                            x       y       z     vdW  Elec       q    Type
REMARK                         _______ _______ _______ _____ _____    ______ ____
ROOT
ATOM      1  C   UNK A   0       1.293   9.260  19.198  0.00  0.00    +0.000 A 
ATOM      2  C   UNK A   0       1.487   8.068  19.814  0.00  0.00    +0.000 A 
ATOM      3  C   UNK A   0       0.780   7.661  21.078  0.00  0.00    +0.000 C 
ATOM      4  C   UNK A   0       2.426   7.113  19.195  0.00  0.00    +0.000 A 
ATOM      5  C   UNK A   0       3.152   7.485  18.068  0.00  0.00    +0.000 A 
ATOM      6  C   UNK A   0       4.045   6.637  17.412  0.00  0.00    +0.000 A 
ATOM      7  C   UNK A   0       4.252   5.319  17.853  0.00  0.00    +0.000 A 
ATOM      8  C   UNK A   0       5.209   4.450  17.084  0.00  0.00    +0.000 C 
ATOM      9  C   UNK A   0       3.533   4.888  18.999  0.00  0.00    +0.000 A 
ATOM     10  C   UNK A   0       3.448   3.661  19.747  0.00  0.00    +0.000 A 
ATOM     11  C   UNK A   0       4.145   2.369  19.519  0.00  0.00    +0.000 C 
ATOM     12  C   UNK A   0       2.552   3.905  20.771  0.00  0.00    +0.000 A 
ATOM     13  C   UNK A   0       2.034   3.070  21.876  0.00  0.00    +0.000 C 
ATOM     14  O   UNK A   0       2.074   5.176  20.699  0.00  0.00    +0.000 OA
ATOM     15  C   UNK A   0       2.659   5.790  19.623  0.00  0.00    +0.000 A 
ATOM     16  O   UNK A   0       3.003   8.762  17.504  0.00  0.00    +0.000 OA
ATOM     17  C   UNK A   0       2.060   9.649  17.980  0.00  0.00    +0.000 A 
ATOM     18  O   UNK A   0       1.871  10.732  17.432  0.00  0.00    +0.000 OA
ENDROOT
BRANCH   1  19
ATOM     19  C   UNK A   0       0.336  10.351  19.632  0.00  0.00    +0.000 C 
BRANCH  19  21
ATOM     20  N   ILE A   1       1.422  12.506  20.085  0.00  0.00    +0.000 N 
ATOM     21  C   UNK A   0       1.031  11.294  20.609  0.00  0.00    +0.000 C 
ATOM     22  O   UNK A   0       1.226  10.989  21.783  0.00  0.00    +0.000 OA
ATOM     23  H   ILE A   1       0.986  12.806  19.210  0.00  0.00    +0.000 HD
BRANCH  20  24
ATOM     24  CA  ILE A   1       2.018  13.561  20.917  0.00  0.00    +0.000 C 
BRANCH  24  25
ATOM     25  CB  ILE A   1       3.005  14.439  20.104  0.00  0.00    +0.000 C 
ATOM     26  CG2 ILE A   1       4.353  14.622  20.817  0.00  0.00    +0.000 C 
BRANCH  25  28
ATOM     27  CD1 ILE A   1       4.307  14.620  17.869  0.00  0.00    +0.000 C 
ATOM     28  CG1 ILE A   1       3.227  13.901  18.671  0.00  0.00    +0.000 C 
ENDBRANCH  25  28
ENDBRANCH  24  25
BRANCH  24  29
ATOM     29  C   ILE A   1       0.847  14.397  21.459  0.00  0.00    +0.000 C 
ATOM     30  O   ILE A   1       0.394  15.381  20.889  0.00  0.00    +0.000 OA
BRANCH  29  31
ATOM     31  OXT ILE A   1       0.328  13.941  22.622  0.00  0.00    +0.000 OA
ATOM     32  HXT ILE A   1      -0.113  14.625  23.162  0.00  0.00    +0.000 HD
ENDBRANCH  29  31
ENDBRANCH  24  29
ENDBRANCH  20  24
ENDBRANCH  19  21
ENDBRANCH   1  19
TORSDOF 7
ENDMDL
MODEL 5
REMARK VINA RESULT:      -7.4      1.790      3.924
REMARK  Name = 
REMARK  13 active torsions:
REMARK  status: ('A' for Active; 'I' for Inactive)
REMARK    1  A    between atoms: CD1_1  and  CG1_2
REMARK    2  A    between atoms: CG1_2  and  CB_3
REMARK    3  A    between atoms: CB_3  and  CG2_4
REMARK    4  A    between atoms: CB_3  and  CA_5
REMARK    5  A    between atoms: CA_5  and  N_6
REMARK    6  A    between atoms: CA_5  and  C_28
REMARK    7  A    between atoms: C_7  and  C_9
REMARK    8  A    between atoms: C_9  and  C_10
REMARK    9  A    between atoms: C_11  and  C_12
REMARK   10  A    between atoms: C_16  and  C_17
REMARK   11  A    between atoms: C_19  and  C_20
REMARK   12  A    between atoms: C_21  and  C_22
REMARK   13  A    between atoms: C_28  and  OXT_30
REMARK                            x       y       z     vdW  Elec       q    Type
REMARK                         _______ _______ _______ _____ _____    ______ ____
ROOT
ATOM      1  C   UNK A   0       0.527  10.683  20.201  0.00  0.00    +0.000 A 
ATOM      2  C   UNK A   0       1.288   9.954  19.348  0.00  0.00    +0.000 A 
ATOM      3  C   UNK A   0       1.924  10.523  18.109  0.00  0.00    +0.000 C 
ATOM      4  C   UNK A   0       1.520   8.533  19.667  0.00  0.00    +0.000 A 
ATOM      5  C   UNK A   0       0.888   7.955  20.764  0.00  0.00    +0.000 A 
ATOM      6  C   UNK A   0       1.067   6.626  21.145  0.00  0.00    +0.000 A 
ATOM      7  C   UNK A   0       1.935   5.777  20.436  0.00  0.00    +0.000 A 
ATOM      8  C   UNK A   0       2.103   4.363  20.917  0.00  0.00    +0.000 C 
ATOM      9  C   UNK A   0       2.608   6.318  19.309  0.00  0.00    +0.000 A 
ATOM     10  C   UNK A   0       3.555   5.815  18.349  0.00  0.00    +0.000 A 
ATOM     11  C   UNK A   0       4.164   4.464  18.246  0.00  0.00    +0.000 C 
ATOM     12  C   UNK A   0       3.818   6.866  17.491  0.00  0.00    +0.000 A 
ATOM     13  C   UNK A   0       4.689   7.004  16.304  0.00  0.00    +0.000 C 
ATOM     14  O   UNK A   0       3.118   7.973  17.859  0.00  0.00    +0.000 OA
ATOM     15  C   UNK A   0       2.377   7.659  18.968  0.00  0.00    +0.000 A 
ATOM     16  O   UNK A   0       0.028   8.709  21.579  0.00  0.00    +0.000 OA
ATOM     17  C   UNK A   0      -0.135  10.065  21.386  0.00  0.00    +0.000 A 
ATOM     18  O   UNK A   0      -0.820  10.740  22.151  0.00  0.00    +0.000 OA
ENDROOT
BRANCH   1  19
ATOM     19  C   UNK A   0       0.217  12.161  20.090  0.00  0.00    +0.000 C 
BRANCH  19  21
ATOM     20  N   ILE A   1      -2.150  11.875  19.502  0.00  0.00    +0.000 N 
ATOM     21  C   UNK A   0      -0.931  12.379  19.109  0.00  0.00    +0.000 C 
ATOM     22  O   UNK A   0      -0.772  12.966  18.040  0.00  0.00    +0.000 OA
ATOM     23  H   ILE A   1      -2.277  11.665  20.495  0.00  0.00    +0.000 HD
BRANCH  20  24
ATOM     24  CA  ILE A   1      -3.373  12.086  18.714  0.00  0.00    +0.000 C 
BRANCH  24  25
ATOM     25  CB  ILE A   1      -3.774  10.807  17.932  0.00  0.00    +0.000 C 
ATOM     26  CG2 ILE A   1      -4.451  11.127  16.591  0.00  0.00    +0.000 C 
BRANCH  25  28
ATOM     27  CD1 ILE A   1      -2.147   9.676  16.259  0.00  0.00    +0.000 C 
ATOM     28  CG1 ILE A   1      -2.576   9.853  17.712  0.00  0.00    +0.000 C 
ENDBRANCH  25  28
ENDBRANCH  24  25
BRANCH  24  29
ATOM     29  C   ILE A   1      -4.468  12.491  19.714  0.00  0.00    +0.000 C 
ATOM     30  O   ILE A   1      -5.625  12.731  19.394  0.00  0.00    +0.000 OA
BRANCH  29  31
ATOM     31  OXT ILE A   1      -4.057  12.539  21.002  0.00  0.00    +0.000 OA
ATOM     32  HXT ILE A   1      -3.558  13.345  21.236  0.00  0.00    +0.000 HD
ENDBRANCH  29  31
ENDBRANCH  24  29
ENDBRANCH  20  24
ENDBRANCH  19  21
ENDBRANCH   1  19
TORSDOF 7
ENDMDL
MODEL 6
REMARK VINA RESULT:      -7.3      1.690      3.733
REMARK  Name = 
REMARK  13 active torsions:
REMARK  status: ('A' for Active; 'I' for Inactive)
REMARK    1  A    between atoms: CD1_1  and  CG1_2
REMARK    2  A    between atoms: CG1_2  and  CB_3
REMARK    3  A    between atoms: CB_3  and  CG2_4
REMARK    4  A    between atoms: CB_3  and  CA_5
REMARK    5  A    between atoms: CA_5  and  N_6
REMARK    6  A    between atoms: CA_5  and  C_28
REMARK    7  A    between atoms: C_7  and  C_9
REMARK    8  A    between atoms: C_9  and  C_10
REMARK    9  A    between atoms: C_11  and  C_12
REMARK   10  A    between atoms: C_16  and  C_17
REMARK   11  A    between atoms: C_19  and  C_20
REMARK   12  A    between atoms: C_21  and  C_22
REMARK   13  A    between atoms: C_28  and  OXT_30
REMARK                            x       y       z     vdW  Elec       q    Type
REMARK                         _______ _______ _______ _____ _____    ______ ____
ROOT
ATOM      1  C   UNK A   0       0.920  10.165  20.257  0.00  0.00    +0.000 A 
ATOM      2  C   UNK A   0       1.645   9.487  19.334  0.00  0.00    +0.000 A 
ATOM      3  C   UNK A   0       2.263  10.133  18.124  0.00  0.00    +0.000 C 
ATOM      4  C   UNK A   0       1.856   8.042  19.543  0.00  0.00    +0.000 A 
ATOM      5  C   UNK A   0       1.238   7.398  20.611  0.00  0.00    +0.000 A 
ATOM      6  C   UNK A   0       1.400   6.042  20.891  0.00  0.00    +0.000 A 
ATOM      7  C   UNK A   0       2.233   5.230  20.100  0.00  0.00    +0.000 A 
ATOM      8  C   UNK A   0       2.383   3.782  20.473  0.00  0.00    +0.000 C 
ATOM      9  C   UNK A   0       2.890   5.839  18.999  0.00  0.00    +0.000 A 
ATOM     10  C   UNK A   0       3.802   5.390  17.981  0.00  0.00    +0.000 A 
ATOM     11  C   UNK A   0       4.381   4.039  17.765  0.00  0.00    +0.000 C 
ATOM     12  C   UNK A   0       4.066   6.496  17.195  0.00  0.00    +0.000 A 
ATOM     13  C   UNK A   0       4.911   6.704  15.999  0.00  0.00    +0.000 C 
ATOM     14  O   UNK A   0       3.398   7.586  17.660  0.00  0.00    +0.000 OA
ATOM     15  C   UNK A   0       2.678   7.206  18.761  0.00  0.00    +0.000 A 
ATOM     16  O   UNK A   0       0.414   8.106  21.500  0.00  0.00    +0.000 OA
ATOM     17  C   UNK A   0       0.274   9.476  21.410  0.00  0.00    +0.000 A 
ATOM     18  O   UNK A   0      -0.378  10.105  22.239  0.00  0.00    +0.000 OA
ENDROOT
BRANCH   1  19
ATOM     19  C   UNK A   0       0.638  11.653  20.261  0.00  0.00    +0.000 C 
BRANCH  19  21
ATOM     20  N   ILE A   1      -1.419  11.384  18.947  0.00  0.00    +0.000 N 
ATOM     21  C   UNK A   0      -0.205  12.026  19.045  0.00  0.00    +0.000 C 
ATOM     22  O   UNK A   0       0.179  12.845  18.212  0.00  0.00    +0.000 OA
ATOM     23  H   ILE A   1      -1.795  10.950  19.794  0.00  0.00    +0.000 HD
BRANCH  20  24
ATOM     24  CA  ILE A   1      -2.387  11.702  17.887  0.00  0.00    +0.000 C 
BRANCH  24  25
ATOM     25  CB  ILE A   1      -2.526  10.535  16.874  0.00  0.00    +0.000 C 
ATOM     26  CG2 ILE A   1      -3.450   9.420  17.387  0.00  0.00    +0.000 C 
BRANCH  25  28
ATOM     27  CD1 ILE A   1      -3.342   9.909  14.494  0.00  0.00    +0.000 C 
ATOM     28  CG1 ILE A   1      -2.994  11.018  15.481  0.00  0.00    +0.000 C 
ENDBRANCH  25  28
ENDBRANCH  24  25
BRANCH  24  29
ATOM     29  C   ILE A   1      -3.723  11.988  18.593  0.00  0.00    +0.000 C 
ATOM     30  O   ILE A   1      -3.883  11.900  19.803  0.00  0.00    +0.000 OA
BRANCH  29  31
ATOM     31  OXT ILE A   1      -4.719  12.375  17.765  0.00  0.00    +0.000 OA
ATOM     32  HXT ILE A   1      -5.152  13.213  18.020  0.00  0.00    +0.000 HD
ENDBRANCH  29  31
ENDBRANCH  24  29
ENDBRANCH  20  24
ENDBRANCH  19  21
ENDBRANCH   1  19
TORSDOF 7
ENDMDL
MODEL 7
REMARK VINA RESULT:      -7.3      2.852      4.039
REMARK  Name = 
REMARK  13 active torsions:
REMARK  status: ('A' for Active; 'I' for Inactive)
REMARK    1  A    between atoms: CD1_1  and  CG1_2
REMARK    2  A    between atoms: CG1_2  and  CB_3
REMARK    3  A    between atoms: CB_3  and  CG2_4
REMARK    4  A    between atoms: CB_3  and  CA_5
REMARK    5  A    between atoms: CA_5  and  N_6
REMARK    6  A    between atoms: CA_5  and  C_28
REMARK    7  A    between atoms: C_7  and  C_9
REMARK    8  A    between atoms: C_9  and  C_10
REMARK    9  A    between atoms: C_11  and  C_12
REMARK   10  A    between atoms: C_16  and  C_17
REMARK   11  A    between atoms: C_19  and  C_20
REMARK   12  A    between atoms: C_21  and  C_22
REMARK   13  A    between atoms: C_28  and  OXT_30
REMARK                            x       y       z     vdW  Elec       q    Type
REMARK                         _______ _______ _______ _____ _____    ______ ____
ROOT
ATOM      1  C   UNK A   0       1.325   9.114  19.188  0.00  0.00    +0.000 A 
ATOM      2  C   UNK A   0       1.530   7.930  19.817  0.00  0.00    +0.000 A 
ATOM      3  C   UNK A   0       0.868   7.552  21.113  0.00  0.00    +0.000 C 
ATOM      4  C   UNK A   0       2.434   6.955  19.179  0.00  0.00    +0.000 A 
ATOM      5  C   UNK A   0       3.120   7.298  18.018  0.00  0.00    +0.000 A 
ATOM      6  C   UNK A   0       3.977   6.430  17.344  0.00  0.00    +0.000 A 
ATOM      7  C   UNK A   0       4.188   5.117  17.799  0.00  0.00    +0.000 A 
ATOM      8  C   UNK A   0       5.105   4.224  17.009  0.00  0.00    +0.000 C 
ATOM      9  C   UNK A   0       3.509   4.713  18.979  0.00  0.00    +0.000 A 
ATOM     10  C   UNK A   0       3.440   3.501  19.751  0.00  0.00    +0.000 A 
ATOM     11  C   UNK A   0       4.114   2.197  19.520  0.00  0.00    +0.000 C 
ATOM     12  C   UNK A   0       2.587   3.772  20.804  0.00  0.00    +0.000 A 
ATOM     13  C   UNK A   0       2.103   2.962  21.944  0.00  0.00    +0.000 C 
ATOM     14  O   UNK A   0       2.120   5.048  20.729  0.00  0.00    +0.000 OA
ATOM     15  C   UNK A   0       2.669   5.637  19.621  0.00  0.00    +0.000 A 
ATOM     16  O   UNK A   0       2.963   8.567  17.438  0.00  0.00    +0.000 OA
ATOM     17  C   UNK A   0       2.048   9.473  17.934  0.00  0.00    +0.000 A 
ATOM     18  O   UNK A   0       1.850  10.549  17.375  0.00  0.00    +0.000 OA
ENDROOT
BRANCH   1  19
ATOM     19  C   UNK A   0       0.397  10.222  19.639  0.00  0.00    +0.000 C 
BRANCH  19  21
ATOM     20  N   ILE A   1       1.614  12.337  19.909  0.00  0.00    +0.000 N 
ATOM     21  C   UNK A   0       1.152  11.201  20.533  0.00  0.00    +0.000 C 
ATOM     22  O   UNK A   0       1.332  10.984  21.730  0.00  0.00    +0.000 OA
ATOM     23  H   ILE A   1       1.194  12.588  19.011  0.00  0.00    +0.000 HD
BRANCH  20  24
ATOM     24  CA  ILE A   1       2.277  13.421  20.650  0.00  0.00    +0.000 C 
BRANCH  24  25
ATOM     25  CB  ILE A   1       3.301  14.176  19.761  0.00  0.00    +0.000 C 
ATOM     26  CG2 ILE A   1       2.861  14.248  18.291  0.00  0.00    +0.000 C 
BRANCH  25  28
ATOM     27  CD1 ILE A   1       4.660  15.653  21.401  0.00  0.00    +0.000 C 
ATOM     28  CG1 ILE A   1       3.611  15.593  20.296  0.00  0.00    +0.000 C 
ENDBRANCH  25  28
ENDBRANCH  24  25
BRANCH  24  29
ATOM     29  C   ILE A   1       1.160  14.361  21.132  0.00  0.00    +0.000 C 
ATOM     30  O   ILE A   1       0.290  14.812  20.399  0.00  0.00    +0.000 OA
BRANCH  29  31
ATOM     31  OXT ILE A   1       1.196  14.636  22.456  0.00  0.00    +0.000 OA
ATOM     32  HXT ILE A   1       0.827  15.507  22.696  0.00  0.00    +0.000 HD
ENDBRANCH  29  31
ENDBRANCH  24  29
ENDBRANCH  20  24
ENDBRANCH  19  21
ENDBRANCH   1  19
TORSDOF 7
ENDMDL
MODEL 8
REMARK VINA RESULT:      -7.2      1.755      3.280
REMARK  Name = 
REMARK  13 active torsions:
REMARK  status: ('A' for Active; 'I' for Inactive)
REMARK    1  A    between atoms: CD1_1  and  CG1_2
REMARK    2  A    between atoms: CG1_2  and  CB_3
REMARK    3  A    between atoms: CB_3  and  CG2_4
REMARK    4  A    between atoms: CB_3  and  CA_5
REMARK    5  A    between atoms: CA_5  and  N_6
REMARK    6  A    between atoms: CA_5  and  C_28
REMARK    7  A    between atoms: C_7  and  C_9
REMARK    8  A    between atoms: C_9  and  C_10
REMARK    9  A    between atoms: C_11  and  C_12
REMARK   10  A    between atoms: C_16  and  C_17
REMARK   11  A    between atoms: C_19  and  C_20
REMARK   12  A    between atoms: C_21  and  C_22
REMARK   13  A    between atoms: C_28  and  OXT_30
REMARK                            x       y       z     vdW  Elec       q    Type
REMARK                         _______ _______ _______ _____ _____    ______ ____
ROOT
ATOM      1  C   UNK A   0       1.848   8.513  19.796  0.00  0.00    +0.000 A 
ATOM      2  C   UNK A   0       2.386   7.598  18.952  0.00  0.00    +0.000 A 
ATOM      3  C   UNK A   0       3.061   7.957  17.657  0.00  0.00    +0.000 C 
ATOM      4  C   UNK A   0       2.325   6.176  19.342  0.00  0.00    +0.000 A 
ATOM      5  C   UNK A   0       1.645   5.801  20.497  0.00  0.00    +0.000 A 
ATOM      6  C   UNK A   0       1.557   4.484  20.945  0.00  0.00    +0.000 A 
ATOM      7  C   UNK A   0       2.182   3.435  20.248  0.00  0.00    +0.000 A 
ATOM      8  C   UNK A   0       2.068   2.041  20.802  0.00  0.00    +0.000 C 
ATOM      9  C   UNK A   0       2.892   3.764  19.064  0.00  0.00    +0.000 A 
ATOM     10  C   UNK A   0       3.654   3.023  18.094  0.00  0.00    +0.000 A 
ATOM     11  C   UNK A   0       3.953   1.569  18.041  0.00  0.00    +0.000 C 
ATOM     12  C   UNK A   0       4.089   3.952  17.166  0.00  0.00    +0.000 A 
ATOM     13  C   UNK A   0       4.902   3.842  15.936  0.00  0.00    +0.000 C 
ATOM     14  O   UNK A   0       3.664   5.200  17.500  0.00  0.00    +0.000 OA
ATOM     15  C   UNK A   0       2.935   5.106  18.656  0.00  0.00    +0.000 A 
ATOM     16  O   UNK A   0       1.014   6.760  21.304  0.00  0.00    +0.000 OA
ATOM     17  C   UNK A   0       1.135   8.109  21.041  0.00  0.00    +0.000 A 
ATOM     18  O   UNK A   0       0.654   8.951  21.796  0.00  0.00    +0.000 OA
ENDROOT
BRANCH   1  19
ATOM     19  C   UNK A   0       1.856  10.017  19.614  0.00  0.00    +0.000 C 
BRANCH  19  21
ATOM     20  N   ILE A   1      -0.131  11.428  19.914  0.00  0.00    +0.000 N 
ATOM     21  C   UNK A   0       0.490  10.488  19.123  0.00  0.00    +0.000 C 
ATOM     22  O   UNK A   0      -0.016  10.055  18.090  0.00  0.00    +0.000 OA
ATOM     23  H   ILE A   1       0.450  11.945  20.579  0.00  0.00    +0.000 HD
BRANCH  20  24
ATOM     24  CA  ILE A   1      -1.405  12.052  19.530  0.00  0.00    +0.000 C 
BRANCH  24  25
ATOM     25  CB  ILE A   1      -1.986  12.915  20.682  0.00  0.00    +0.000 C 
ATOM     26  CG2 ILE A   1      -3.515  12.807  20.781  0.00  0.00    +0.000 C 
BRANCH  25  28
ATOM     27  CD1 ILE A   1      -2.262  11.921  23.060  0.00  0.00    +0.000 C 
ATOM     28  CG1 ILE A   1      -1.337  12.588  22.047  0.00  0.00    +0.000 C 
ENDBRANCH  25  28
ENDBRANCH  24  25
BRANCH  24  29
ATOM     29  C   ILE A   1      -1.110  12.910  18.289  0.00  0.00    +0.000 C 
ATOM     30  O   ILE A   1      -0.450  13.941  18.316  0.00  0.00    +0.000 OA
BRANCH  29  31
ATOM     31  OXT ILE A   1      -1.620  12.417  17.137  0.00  0.00    +0.000 OA
ATOM     32  HXT ILE A   1      -1.874  11.475  17.179  0.00  0.00    +0.000 HD
ENDBRANCH  29  31
ENDBRANCH  24  29
ENDBRANCH  20  24
ENDBRANCH  19  21
ENDBRANCH   1  19
TORSDOF 7
ENDMDL
MODEL 9
REMARK VINA RESULT:      -7.1      2.163      8.412
REMARK  Name = 
REMARK  13 active torsions:
REMARK  status: ('A' for Active; 'I' for Inactive)
REMARK    1  A    between atoms: CD1_1  and  CG1_2
REMARK    2  A    between atoms: CG1_2  and  CB_3
REMARK    3  A    between atoms: CB_3  and  CG2_4
REMARK    4  A    between atoms: CB_3  and  CA_5
REMARK    5  A    between atoms: CA_5  and  N_6
REMARK    6  A    between atoms: CA_5  and  C_28
REMARK    7  A    between atoms: C_7  and  C_9
REMARK    8  A    between atoms: C_9  and  C_10
REMARK    9  A    between atoms: C_11  and  C_12
REMARK   10  A    between atoms: C_16  and  C_17
REMARK   11  A    between atoms: C_19  and  C_20
REMARK   12  A    between atoms: C_21  and  C_22
REMARK   13  A    between atoms: C_28  and  OXT_30
REMARK                            x       y       z     vdW  Elec       q    Type
REMARK                         _______ _______ _______ _____ _____    ______ ____
ROOT
ATOM      1  C   UNK A   0       1.099   9.546  20.122  0.00  0.00    +0.000 A 
ATOM      2  C   UNK A   0       0.314   9.759  19.037  0.00  0.00    +0.000 A 
ATOM      3  C   UNK A   0       0.615   9.204  17.671  0.00  0.00    +0.000 C 
ATOM      4  C   UNK A   0      -0.913  10.557  19.215  0.00  0.00    +0.000 A 
ATOM      5  C   UNK A   0      -1.186  11.147  20.446  0.00  0.00    +0.000 A 
ATOM      6  C   UNK A   0      -2.331  11.900  20.703  0.00  0.00    +0.000 A 
ATOM      7  C   UNK A   0      -3.309  12.097  19.713  0.00  0.00    +0.000 A 
ATOM      8  C   UNK A   0      -4.532  12.898  20.066  0.00  0.00    +0.000 C 
ATOM      9  C   UNK A   0      -3.081  11.514  18.439  0.00  0.00    +0.000 A 
ATOM     10  C   UNK A   0      -3.806  11.465  17.196  0.00  0.00    +0.000 A 
ATOM     11  C   UNK A   0      -5.123  12.059  16.850  0.00  0.00    +0.000 C 
ATOM     12  C   UNK A   0      -3.022  10.726  16.331  0.00  0.00    +0.000 A 
ATOM     13  C   UNK A   0      -3.189  10.316  14.919  0.00  0.00    +0.000 C 
ATOM     14  O   UNK A   0      -1.885  10.308  16.950  0.00  0.00    +0.000 OA
ATOM     15  C   UNK A   0      -1.905  10.777  18.237  0.00  0.00    +0.000 A 
ATOM     16  O   UNK A   0      -0.307  10.990  21.530  0.00  0.00    +0.000 OA
ATOM     17  C   UNK A   0       0.795  10.164  21.444  0.00  0.00    +0.000 A 
ATOM     18  O   UNK A   0       1.515   9.960  22.418  0.00  0.00    +0.000 OA
ENDROOT
BRANCH   1  19
ATOM     19  C   UNK A   0       2.361   8.711  20.168  0.00  0.00    +0.000 C 
BRANCH  19  21
ATOM     20  N   ILE A   1       2.880   6.345  19.769  0.00  0.00    +0.000 N 
ATOM     21  C   UNK A   0       2.004   7.238  20.343  0.00  0.00    +0.000 C 
ATOM     22  O   UNK A   0       1.001   6.879  20.956  0.00  0.00    +0.000 OA
ATOM     23  H   ILE A   1       3.816   6.683  19.534  0.00  0.00    +0.000 HD
BRANCH  20  24
ATOM     24  CA  ILE A   1       2.729   4.891  19.929  0.00  0.00    +0.000 C 
BRANCH  24  25
ATOM     25  CB  ILE A   1       1.453   4.369  19.218  0.00  0.00    +0.000 C 
ATOM     26  CG2 ILE A   1       1.667   4.151  17.713  0.00  0.00    +0.000 C 
BRANCH  25  28
ATOM     27  CD1 ILE A   1       1.262   2.893  21.341  0.00  0.00    +0.000 C 
ATOM     28  CG1 ILE A   1       0.900   3.081  19.871  0.00  0.00    +0.000 C 
ENDBRANCH  25  28
ENDBRANCH  24  25
BRANCH  24  29
ATOM     29  C   ILE A   1       3.996   4.256  19.333  0.00  0.00    +0.000 C 
ATOM     30  O   ILE A   1       4.731   4.827  18.538  0.00  0.00    +0.000 OA
BRANCH  29  31
ATOM     31  OXT ILE A   1       4.257   3.007  19.780  0.00  0.00    +0.000 OA
ATOM     32  HXT ILE A   1       4.222   2.911  20.751  0.00  0.00    +0.000 HD
ENDBRANCH  29  31
ENDBRANCH  24  29
ENDBRANCH  20  24
ENDBRANCH  19  21
ENDBRANCH   1  19
TORSDOF 7
ENDMDL
