MODEL 1
REMARK VINA RESULT:      -7.0      0.000      0.000
REMARK  Name = 
REMARK  2 active torsions:
REMARK  status: ('A' for Active; 'I' for Inactive)
REMARK    1  A    between atoms: C_6  and  C_7
REMARK    2  A    between atoms: C_8  and  C_9
REMARK                            x       y       z     vdW  Elec       q    Type
REMARK                         _______ _______ _______ _____ _____    ______ ____
ROOT
ATOM      1  C   UNL     1       8.458   8.158  18.566  0.00  0.00    +0.000 C 
ATOM      2  C   UNL     1       8.410   9.457  18.217  0.00  0.00    +0.000 C 
ENDROOT
BRANCH   1   8
ATOM      3  F   UNL     1       4.926   6.595  15.588  0.00  0.00    +0.000 F 
ATOM      4  C   UNL     1       5.839   6.332  16.534  0.00  0.00    +0.000 A 
ATOM      5  C   UNL     1       5.987   5.031  16.993  0.00  0.00    +0.000 A 
ATOM      6  C   UNL     1       6.942   4.759  17.971  0.00  0.00    +0.000 A 
ATOM      7  C   UNL     1       7.734   5.793  18.478  0.00  0.00    +0.000 A 
ATOM      8  C   UNL     1       7.572   7.114  18.027  0.00  0.00    +0.000 A 
ATOM      9  C   UNL     1       6.621   7.369  17.033  0.00  0.00    +0.000 A 
ENDBRANCH   1   8
BRANCH   2  10
ATOM     10  C   UNL     1       9.358  10.471  18.708  0.00  0.00    +0.000 A 
ATOM     11  C   UNL     1       9.420  10.722  20.086  0.00  0.00    +0.000 A 
ATOM     12  C   UNL     1      10.265  11.713  20.590  0.00  0.00    +0.000 A 
ATOM     13  C   UNL     1      11.073  12.448  19.726  0.00  0.00    +0.000 A 
ATOM     14  C   UNL     1      11.045  12.186  18.357  0.00  0.00    +0.000 A 
ATOM     15  C   UNL     1      10.196  11.200  17.854  0.00  0.00    +0.000 A 
ENDBRANCH   2  10
TORSDOF 2
ENDMDL
MODEL 2
REMARK VINA RESULT:      -6.8      2.429      6.714
REMARK  Name = 
REMARK  2 active torsions:
REMARK  status: ('A' for Active; 'I' for Inactive)
REMARK    1  A    between atoms: C_6  and  C_7
REMARK    2  A    between atoms: C_8  and  C_9
REMARK                            x       y       z     vdW  Elec       q    Type
REMARK                         _______ _______ _______ _____ _____    ______ ____
ROOT
ATOM      1  C   UNL     1       8.371   9.307  18.115  0.00  0.00    +0.000 C 
ATOM      2  C   UNL     1       8.355   8.031  18.544  0.00  0.00    +0.000 C 
ENDROOT
BRANCH   1   8
ATOM      3  F   UNL     1      11.509  12.992  17.516  0.00  0.00    +0.000 F 
ATOM      4  C   UNL     1      10.807  12.194  18.334  0.00  0.00    +0.000 A 
ATOM      5  C   UNL     1      10.897  12.380  19.706  0.00  0.00    +0.000 A 
ATOM      6  C   UNL     1      10.160  11.555  20.554  0.00  0.00    +0.000 A 
ATOM      7  C   UNL     1       9.348  10.553  20.018  0.00  0.00    +0.000 A 
ATOM      8  C   UNL     1       9.272  10.351  18.629  0.00  0.00    +0.000 A 
ATOM      9  C   UNL     1      10.003  11.198  17.789  0.00  0.00    +0.000 A 
ENDBRANCH   1   8
BRANCH   2  10
ATOM     10  C   UNL     1       7.501   6.983  17.961  0.00  0.00    +0.000 A 
ATOM     11  C   UNL     1       7.737   5.647  18.320  0.00  0.00    +0.000 A 
ATOM     12  C   UNL     1       6.987   4.617  17.751  0.00  0.00    +0.000 A 
ATOM     13  C   UNL     1       5.978   4.909  16.835  0.00  0.00    +0.000 A 
ATOM     14  C   UNL     1       5.713   6.235  16.495  0.00  0.00    +0.000 A 
ATOM     15  C   UNL     1       6.467   7.264  17.059  0.00  0.00    +0.000 A 
ENDBRANCH   2  10
TORSDOF 2
ENDMDL
MODEL 3
REMARK VINA RESULT:      -6.7      0.977      1.145
REMARK  Name = 
REMARK  2 active torsions:
REMARK  status: ('A' for Active; 'I' for Inactive)
REMARK    1  A    between atoms: C_6  and  C_7
REMARK    2  A    between atoms: C_8  and  C_9
REMARK                            x       y       z     vdW  Elec       q    Type
REMARK                         _______ _______ _______ _____ _____    ______ ____
ROOT
ATOM      1  C   UNL     1       8.183   8.960  17.812  0.00  0.00    +0.000 C 
ATOM      2  C   UNL     1       8.887   9.518  18.814  0.00  0.00    +0.000 C 
ENDROOT
BRANCH   1   8
ATOM      3  F   UNL     1       4.978   5.607  16.306  0.00  0.00    +0.000 F 
ATOM      4  C   UNL     1       6.003   5.950  17.099  0.00  0.00    +0.000 A 
ATOM      5  C   UNL     1       6.537   5.007  17.966  0.00  0.00    +0.000 A 
ATOM      6  C   UNL     1       7.608   5.364  18.783  0.00  0.00    +0.000 A 
ATOM      7  C   UNL     1       8.127   6.660  18.726  0.00  0.00    +0.000 A 
ATOM      8  C   UNL     1       7.574   7.621  17.862  0.00  0.00    +0.000 A 
ATOM      9  C   UNL     1       6.511   7.244  17.035  0.00  0.00    +0.000 A 
ENDBRANCH   1   8
BRANCH   2  10
ATOM     10  C   UNL     1       9.421  10.889  18.775  0.00  0.00    +0.000 A 
ATOM     11  C   UNL     1      10.460  11.232  19.653  0.00  0.00    +0.000 A 
ATOM     12  C   UNL     1      10.959  12.536  19.687  0.00  0.00    +0.000 A 
ATOM     13  C   UNL     1      10.443  13.505  18.829  0.00  0.00    +0.000 A 
ATOM     14  C   UNL     1       9.433  13.168  17.929  0.00  0.00    +0.000 A 
ATOM     15  C   UNL     1       8.930  11.867  17.899  0.00  0.00    +0.000 A 
ENDBRANCH   2  10
TORSDOF 2
ENDMDL
MODEL 4
REMARK VINA RESULT:      -6.7      2.451      6.610
REMARK  Name = 
REMARK  2 active torsions:
REMARK  status: ('A' for Active; 'I' for Inactive)
REMARK    1  A    between atoms: C_6  and  C_7
REMARK    2  A    between atoms: C_8  and  C_9
REMARK                            x       y       z     vdW  Elec       q    Type
REMARK                         _______ _______ _______ _____ _____    ______ ____
ROOT
ATOM      1  C   UNL     1       8.961   9.239  18.890  0.00  0.00    +0.000 C 
ATOM      2  C   UNL     1       8.110   8.835  17.929  0.00  0.00    +0.000 C 
ENDROOT
BRANCH   1   8
ATOM      3  F   UNL     1       9.985  13.754  17.355  0.00  0.00    +0.000 F 
ATOM      4  C   UNL     1       9.843  12.881  18.363  0.00  0.00    +0.000 A 
ATOM      5  C   UNL     1      10.036  13.313  19.668  0.00  0.00    +0.000 A 
ATOM      6  C   UNL     1       9.879  12.407  20.714  0.00  0.00    +0.000 A 
ATOM      7  C   UNL     1       9.536  11.080  20.442  0.00  0.00    +0.000 A 
ATOM      8  C   UNL     1       9.360  10.637  19.119  0.00  0.00    +0.000 A 
ATOM      9  C   UNL     1       9.503  11.562  18.080  0.00  0.00    +0.000 A 
ENDBRANCH   1   8
BRANCH   2  10
ATOM     10  C   UNL     1       7.662   7.441  17.766  0.00  0.00    +0.000 A 
ATOM     11  C   UNL     1       8.012   6.503  18.749  0.00  0.00    +0.000 A 
ATOM     12  C   UNL     1       7.654   5.161  18.609  0.00  0.00    +0.000 A 
ATOM     13  C   UNL     1       6.924   4.745  17.497  0.00  0.00    +0.000 A 
ATOM     14  C   UNL     1       6.542   5.673  16.530  0.00  0.00    +0.000 A 
ATOM     15  C   UNL     1       6.905   7.013  16.668  0.00  0.00    +0.000 A 
ENDBRANCH   2  10
TORSDOF 2
ENDMDL
MODEL 5
REMARK VINA RESULT:      -6.7      2.773      6.856
REMARK  Name = 
REMARK  2 active torsions:
REMARK  status: ('A' for Active; 'I' for Inactive)
REMARK    1  A    between atoms: C_6  and  C_7
REMARK    2  A    between atoms: C_8  and  C_9
REMARK                            x       y       z     vdW  Elec       q    Type
REMARK                         _______ _______ _______ _____ _____    ______ ____
ROOT
ATOM      1  C   UNL     1       8.950   9.342  18.957  0.00  0.00    +0.000 C 
ATOM      2  C   UNL     1       8.203   8.910  17.924  0.00  0.00    +0.000 C 
ENDROOT
BRANCH   1   8
ATOM      3  F   UNL     1      10.344  13.244  21.531  0.00  0.00    +0.000 F 
ATOM      4  C   UNL     1      10.228  12.621  20.349  0.00  0.00    +0.000 A 
ATOM      5  C   UNL     1      10.690  13.251  19.201  0.00  0.00    +0.000 A 
ATOM      6  C   UNL     1      10.576  12.598  17.976  0.00  0.00    +0.000 A 
ATOM      7  C   UNL     1       9.999  11.327  17.913  0.00  0.00    +0.000 A 
ATOM      8  C   UNL     1       9.513  10.697  19.072  0.00  0.00    +0.000 A 
ATOM      9  C   UNL     1       9.650  11.356  20.298  0.00  0.00    +0.000 A 
ENDBRANCH   1   8
BRANCH   2  10
ATOM     10  C   UNL     1       7.583   7.576  17.865  0.00  0.00    +0.000 A 
ATOM     11  C   UNL     1       8.085   6.564  18.696  0.00  0.00    +0.000 A 
ATOM     12  C   UNL     1       7.562   5.271  18.635  0.00  0.00    +0.000 A 
ATOM     13  C   UNL     1       6.517   4.980  17.759  0.00  0.00    +0.000 A 
ATOM     14  C   UNL     1       5.988   5.985  16.952  0.00  0.00    +0.000 A 
ATOM     15  C   UNL     1       6.515   7.276  17.009  0.00  0.00    +0.000 A 
ENDBRANCH   2  10
TORSDOF 2
ENDMDL
MODEL 6
REMARK VINA RESULT:      -6.6      0.574      1.225
REMARK  Name = 
REMARK  2 active torsions:
REMARK  status: ('A' for Active; 'I' for Inactive)
REMARK    1  A    between atoms: C_6  and  C_7
REMARK    2  A    between atoms: C_8  and  C_9
REMARK                            x       y       z     vdW  Elec       q    Type
REMARK                         _______ _______ _______ _____ _____    ______ ____
ROOT
ATOM      1  C   UNL     1       8.487   8.387  18.531  0.00  0.00    +0.000 C 
ATOM      2  C   UNL     1       8.322   9.667  18.152  0.00  0.00    +0.000 C 
ENDROOT
BRANCH   1   8
ATOM      3  F   UNL     1       5.123   6.427  15.592  0.00  0.00    +0.000 F 
ATOM      4  C   UNL     1       6.024   6.282  16.574  0.00  0.00    +0.000 A 
ATOM      5  C   UNL     1       6.230   5.026  17.127  0.00  0.00    +0.000 A 
ATOM      6  C   UNL     1       7.172   4.876  18.142  0.00  0.00    +0.000 A 
ATOM      7  C   UNL     1       7.894   5.984  18.593  0.00  0.00    +0.000 A 
ATOM      8  C   UNL     1       7.673   7.260  18.047  0.00  0.00    +0.000 A 
ATOM      9  C   UNL     1       6.736   7.393  17.017  0.00  0.00    +0.000 A 
ENDBRANCH   1   8
BRANCH   2  10
ATOM     10  C   UNL     1       9.198  10.768  18.587  0.00  0.00    +0.000 A 
ATOM     11  C   UNL     1       9.264  11.927  17.799  0.00  0.00    +0.000 A 
ATOM     12  C   UNL     1      10.121  12.973  18.144  0.00  0.00    +0.000 A 
ATOM     13  C   UNL     1      10.907  12.883  19.292  0.00  0.00    +0.000 A 
ATOM     14  C   UNL     1      10.826  11.751  20.101  0.00  0.00    +0.000 A 
ATOM     15  C   UNL     1       9.973  10.703  19.752  0.00  0.00    +0.000 A 
ENDBRANCH   2  10
TORSDOF 2
ENDMDL
MODEL 7
REMARK VINA RESULT:      -6.6      2.413      6.714
REMARK  Name = 
REMARK  2 active torsions:
REMARK  status: ('A' for Active; 'I' for Inactive)
REMARK    1  A    between atoms: C_6  and  C_7
REMARK    2  A    between atoms: C_8  and  C_9
REMARK                            x       y       z     vdW  Elec       q    Type
REMARK                         _______ _______ _______ _____ _____    ______ ____
ROOT
ATOM      1  C   UNL     1       8.951   9.277  18.961  0.00  0.00    +0.000 C 
ATOM      2  C   UNL     1       8.208   8.835  17.930  0.00  0.00    +0.000 C 
ENDROOT
BRANCH   1   8
ATOM      3  F   UNL     1      10.439  13.501  17.031  0.00  0.00    +0.000 F 
ATOM      4  C   UNL     1      10.232  12.735  18.111  0.00  0.00    +0.000 A 
ATOM      5  C   UNL     1      10.521  13.243  19.370  0.00  0.00    +0.000 A 
ATOM      6  C   UNL     1      10.298  12.447  20.492  0.00  0.00    +0.000 A 
ATOM      7  C   UNL     1       9.792  11.153  20.339  0.00  0.00    +0.000 A 
ATOM      8  C   UNL     1       9.518  10.631  19.063  0.00  0.00    +0.000 A 
ATOM      9  C   UNL     1       9.731  11.447  17.947  0.00  0.00    +0.000 A 
ENDBRANCH   1   8
BRANCH   2  10
ATOM     10  C   UNL     1       7.583   7.503  17.884  0.00  0.00    +0.000 A 
ATOM     11  C   UNL     1       6.542   7.279  16.970  0.00  0.00    +0.000 A 
ATOM     12  C   UNL     1       5.886   6.048  16.929  0.00  0.00    +0.000 A 
ATOM     13  C   UNL     1       6.276   5.019  17.784  0.00  0.00    +0.000 A 
ATOM     14  C   UNL     1       7.330   5.218  18.674  0.00  0.00    +0.000 A 
ATOM     15  C   UNL     1       7.982   6.451  18.719  0.00  0.00    +0.000 A 
ENDBRANCH   2  10
TORSDOF 2
ENDMDL
MODEL 8
REMARK VINA RESULT:      -6.6      2.652      6.877
REMARK  Name = 
REMARK  2 active torsions:
REMARK  status: ('A' for Active; 'I' for Inactive)
REMARK    1  A    between atoms: C_6  and  C_7
REMARK    2  A    between atoms: C_8  and  C_9
REMARK                            x       y       z     vdW  Elec       q    Type
REMARK                         _______ _______ _______ _____ _____    ______ ____
ROOT
ATOM      1  C   UNL     1       8.627   8.860  18.793  0.00  0.00    +0.000 C 
ATOM      2  C   UNL     1       7.872   8.507  17.737  0.00  0.00    +0.000 C 
ENDROOT
BRANCH   1   8
ATOM      3  F   UNL     1      10.281  12.462  21.635  0.00  0.00    +0.000 F 
ATOM      4  C   UNL     1      10.040  11.977  20.409  0.00  0.00    +0.000 A 
ATOM      5  C   UNL     1      10.374  12.740  19.299  0.00  0.00    +0.000 A 
ATOM      6  C   UNL     1      10.131  12.230  18.025  0.00  0.00    +0.000 A 
ATOM      7  C   UNL     1       9.553  10.966  17.879  0.00  0.00    +0.000 A 
ATOM      8  C   UNL     1       9.196  10.201  19.003  0.00  0.00    +0.000 A 
ATOM      9  C   UNL     1       9.463  10.718  20.275  0.00  0.00    +0.000 A 
ENDBRANCH   1   8
BRANCH   2  10
ATOM     10  C   UNL     1       7.246   7.183  17.586  0.00  0.00    +0.000 A 
ATOM     11  C   UNL     1       6.086   7.073  16.804  0.00  0.00    +0.000 A 
ATOM     12  C   UNL     1       5.429   5.847  16.677  0.00  0.00    +0.000 A 
ATOM     13  C   UNL     1       5.935   4.714  17.310  0.00  0.00    +0.000 A 
ATOM     14  C   UNL     1       7.105   4.803  18.063  0.00  0.00    +0.000 A 
ATOM     15  C   UNL     1       7.757   6.029  18.195  0.00  0.00    +0.000 A 
ENDBRANCH   2  10
TORSDOF 2
ENDMDL
MODEL 9
REMARK VINA RESULT:      -6.6      5.624      8.100
REMARK  Name = 
REMARK  2 active torsions:
REMARK  status: ('A' for Active; 'I' for Inactive)
REMARK    1  A    between atoms: C_6  and  C_7
REMARK    2  A    between atoms: C_8  and  C_9
REMARK                            x       y       z     vdW  Elec       q    Type
REMARK                         _______ _______ _______ _____ _____    ______ ____
ROOT
ATOM      1  C   UNL     1       4.321   3.746  16.755  0.00  0.00    +0.000 C 
ATOM      2  C   UNL     1       3.675   4.627  17.539  0.00  0.00    +0.000 C 
ENDROOT
BRANCH   1   8
ATOM      3  F   UNL     1       6.251   3.723  12.276  0.00  0.00    +0.000 F 
ATOM      4  C   UNL     1       6.312   4.112  13.557  0.00  0.00    +0.000 A 
ATOM      5  C   UNL     1       7.369   4.909  13.977  0.00  0.00    +0.000 A 
ATOM      6  C   UNL     1       7.425   5.318  15.307  0.00  0.00    +0.000 A 
ATOM      7  C   UNL     1       6.427   4.923  16.202  0.00  0.00    +0.000 A 
ATOM      8  C   UNL     1       5.367   4.101  15.782  0.00  0.00    +0.000 A 
ATOM      9  C   UNL     1       5.313   3.711  14.440  0.00  0.00    +0.000 A 
ENDBRANCH   1   8
BRANCH   2  10
ATOM     10  C   UNL     1       2.688   4.243  18.562  0.00  0.00    +0.000 A 
ATOM     11  C   UNL     1       2.719   4.894  19.804  0.00  0.00    +0.000 A 
ATOM     12  C   UNL     1       1.837   4.524  20.821  0.00  0.00    +0.000 A 
ATOM     13  C   UNL     1       0.900   3.516  20.603  0.00  0.00    +0.000 A 
ATOM     14  C   UNL     1       0.839   2.884  19.362  0.00  0.00    +0.000 A 
ATOM     15  C   UNL     1       1.724   3.250  18.348  0.00  0.00    +0.000 A 
ENDBRANCH   2  10
TORSDOF 2
ENDMDL
