MODEL 1
REMARK VINA RESULT:      -9.1      0.000      0.000
REMARK  Name = 
REMARK  7 active torsions:
REMARK  status: ('A' for Active; 'I' for Inactive)
REMARK    1  A    between atoms: C_1  and  C_2
REMARK    2  A    between atoms: C_5  and  C_6
REMARK    3  A    between atoms: C_8  and  C_9
REMARK    4  A    between atoms: C_12  and  C_13
REMARK    5  A    between atoms: C_16  and  C_17
REMARK    6  A    between atoms: N_19  and  O_20
REMARK    7  A    between atoms: C_21  and  C_22
REMARK                            x       y       z     vdW  Elec       q    Type
REMARK                         _______ _______ _______ _____ _____    ______ ____
ROOT
ATOM      1  C   UNL     1       3.413   6.314  18.861  0.00  0.00    +0.000 C 
ATOM      2  N   UNL     1       4.055   6.260  17.515  0.00  0.00    +0.000 NA
ATOM      3  C   UNL     1       4.648   4.933  17.271  0.00  0.00    +0.000 C 
ATOM      4  C   UNL     1       5.286   4.322  18.537  0.00  0.00    +0.000 C 
ATOM      5  C   UNL     1       6.161   5.180  19.462  0.00  0.00    +0.000 C 
ATOM      6  C   UNL     1       4.043   3.893  19.305  0.00  0.00    +0.000 C 
ATOM      7  N   UNL     1       3.916   2.714  19.843  0.00  0.00    +0.000 NA
ATOM      8  C   UNL     1       2.881   4.925  19.355  0.00  0.00    +0.000 C 
ATOM      9  C   UNL     1       2.288   4.965  20.760  0.00  0.00    +0.000 C 
ATOM     10  H   UNL     1       4.762   6.985  17.479  0.00  0.00    +0.000 HD
ENDROOT
BRANCH   1  15
ATOM     11  C   UNL     1      -0.084  10.994  19.085  0.00  0.00    +0.000 C 
ATOM     12  C   UNL     1       0.738   9.739  19.049  0.00  0.00    +0.000 A 
ATOM     13  C   UNL     1       1.006   9.002  20.209  0.00  0.00    +0.000 A 
ATOM     14  C   UNL     1       1.857   7.887  20.172  0.00  0.00    +0.000 A 
ATOM     15  C   UNL     1       2.451   7.488  18.970  0.00  0.00    +0.000 A 
ATOM     16  C   UNL     1       2.137   8.209  17.802  0.00  0.00    +0.000 A 
ATOM     17  C   UNL     1       1.295   9.321  17.840  0.00  0.00    +0.000 A 
ENDBRANCH   1  15
BRANCH   3  18
ATOM     18  C   UNL     1       5.439   4.706  15.993  0.00  0.00    +0.000 A 
ATOM     19  C   UNL     1       6.716   5.212  15.755  0.00  0.00    +0.000 A 
ATOM     20  C   UNL     1       7.320   5.055  14.495  0.00  0.00    +0.000 A 
ATOM     21  C   UNL     1       6.658   4.390  13.456  0.00  0.00    +0.000 A 
ATOM     22  C   UNL     1       7.284   4.231  12.104  0.00  0.00    +0.000 C 
ATOM     23  C   UNL     1       5.380   3.875  13.684  0.00  0.00    +0.000 A 
ATOM     24  C   UNL     1       4.784   4.041  14.933  0.00  0.00    +0.000 A 
ENDBRANCH   3  18
BRANCH   7  25
ATOM     25  O   UNL     1       5.060   1.933  19.613  0.00  0.00    +0.000 OA
ATOM     26  H   UNL     1       5.027   1.759  18.656  0.00  0.00    +0.000 HD
ENDBRANCH   7  25
TORSDOF 3
ENDMDL
MODEL 2
REMARK VINA RESULT:      -8.7      0.976      1.406
REMARK  Name = 
REMARK  7 active torsions:
REMARK  status: ('A' for Active; 'I' for Inactive)
REMARK    1  A    between atoms: C_1  and  C_2
REMARK    2  A    between atoms: C_5  and  C_6
REMARK    3  A    between atoms: C_8  and  C_9
REMARK    4  A    between atoms: C_12  and  C_13
REMARK    5  A    between atoms: C_16  and  C_17
REMARK    6  A    between atoms: N_19  and  O_20
REMARK    7  A    between atoms: C_21  and  C_22
REMARK                            x       y       z     vdW  Elec       q    Type
REMARK                         _______ _______ _______ _____ _____    ______ ____
ROOT
ATOM      1  C   UNL     1       2.948   5.837  18.764  0.00  0.00    +0.000 C 
ATOM      2  N   UNL     1       3.859   5.974  17.590  0.00  0.00    +0.000 NA
ATOM      3  C   UNL     1       4.192   4.653  17.029  0.00  0.00    +0.000 C 
ATOM      4  C   UNL     1       4.370   3.570  18.114  0.00  0.00    +0.000 C 
ATOM      5  C   UNL     1       5.168   3.868  19.391  0.00  0.00    +0.000 C 
ATOM      6  C   UNL     1       2.920   3.310  18.498  0.00  0.00    +0.000 C 
ATOM      7  N   UNL     1       2.419   2.112  18.602  0.00  0.00    +0.000 NA
ATOM      8  C   UNL     1       2.029   4.569  18.695  0.00  0.00    +0.000 C 
ATOM      9  C   UNL     1       1.146   4.389  19.927  0.00  0.00    +0.000 C 
ATOM     10  H   UNL     1       4.694   6.458  17.900  0.00  0.00    +0.000 HD
ENDROOT
BRANCH   1  15
ATOM     11  C   UNL     1       0.106  10.739  20.203  0.00  0.00    +0.000 C 
ATOM     12  C   UNL     1       0.912   9.534  19.818  0.00  0.00    +0.000 A 
ATOM     13  C   UNL     1       1.353   9.333  18.504  0.00  0.00    +0.000 A 
ATOM     14  C   UNL     1       2.021   8.153  18.142  0.00  0.00    +0.000 A 
ATOM     15  C   UNL     1       2.264   7.156  19.092  0.00  0.00    +0.000 A 
ATOM     16  C   UNL     1       1.858   7.390  20.420  0.00  0.00    +0.000 A 
ATOM     17  C   UNL     1       1.189   8.561  20.779  0.00  0.00    +0.000 A 
ENDBRANCH   1  15
BRANCH   3  18
ATOM     18  C   UNL     1       5.192   4.572  15.886  0.00  0.00    +0.000 A 
ATOM     19  C   UNL     1       6.463   5.144  15.908  0.00  0.00    +0.000 A 
ATOM     20  C   UNL     1       7.272   5.124  14.757  0.00  0.00    +0.000 A 
ATOM     21  C   UNL     1       6.823   4.531  13.571  0.00  0.00    +0.000 A 
ATOM     22  C   UNL     1       7.669   4.519  12.334  0.00  0.00    +0.000 C 
ATOM     23  C   UNL     1       5.553   3.951  13.539  0.00  0.00    +0.000 A 
ATOM     24  C   UNL     1       4.754   3.982  14.681  0.00  0.00    +0.000 A 
ENDBRANCH   3  18
BRANCH   7  25
ATOM     25  O   UNL     1       3.388   1.138  18.315  0.00  0.00    +0.000 OA
ATOM     26  H   UNL     1       2.975   0.607  17.612  0.00  0.00    +0.000 HD
ENDBRANCH   7  25
TORSDOF 3
ENDMDL
MODEL 3
REMARK VINA RESULT:      -8.6      0.260      1.013
REMARK  Name = 
REMARK  7 active torsions:
REMARK  status: ('A' for Active; 'I' for Inactive)
REMARK    1  A    between atoms: C_1  and  C_2
REMARK    2  A    between atoms: C_5  and  C_6
REMARK    3  A    between atoms: C_8  and  C_9
REMARK    4  A    between atoms: C_12  and  C_13
REMARK    5  A    between atoms: C_16  and  C_17
REMARK    6  A    between atoms: N_19  and  O_20
REMARK    7  A    between atoms: C_21  and  C_22
REMARK                            x       y       z     vdW  Elec       q    Type
REMARK                         _______ _______ _______ _____ _____    ______ ____
ROOT
ATOM      1  C   UNL     1       3.278   6.390  18.936  0.00  0.00    +0.000 C 
ATOM      2  N   UNL     1       3.844   6.378  17.554  0.00  0.00    +0.000 NA
ATOM      3  C   UNL     1       4.425   5.062  17.238  0.00  0.00    +0.000 C 
ATOM      4  C   UNL     1       5.134   4.415  18.446  0.00  0.00    +0.000 C 
ATOM      5  C   UNL     1       6.058   5.248  19.347  0.00  0.00    +0.000 C 
ATOM      6  C   UNL     1       3.938   3.958  19.269  0.00  0.00    +0.000 C 
ATOM      7  N   UNL     1       3.843   2.763  19.778  0.00  0.00    +0.000 NA
ATOM      8  C   UNL     1       2.778   4.984  19.416  0.00  0.00    +0.000 C 
ATOM      9  C   UNL     1       2.264   4.979  20.853  0.00  0.00    +0.000 C 
ATOM     10  H   UNL     1       4.546   7.107  17.501  0.00  0.00    +0.000 HD
ENDROOT
BRANCH   1  15
ATOM     11  C   UNL     1      -0.205  11.050  19.506  0.00  0.00    +0.000 C 
ATOM     12  C   UNL     1       0.614   9.799  19.380  0.00  0.00    +0.000 A 
ATOM     13  C   UNL     1       0.921   9.007  20.494  0.00  0.00    +0.000 A 
ATOM     14  C   UNL     1       1.770   7.896  20.374  0.00  0.00    +0.000 A 
ATOM     15  C   UNL     1       2.322   7.556  19.134  0.00  0.00    +0.000 A 
ATOM     16  C   UNL     1       1.968   8.332  18.014  0.00  0.00    +0.000 A 
ATOM     17  C   UNL     1       1.129   9.440  18.134  0.00  0.00    +0.000 A 
ENDBRANCH   1  15
BRANCH   3  18
ATOM     18  C   UNL     1       5.143   4.877  15.911  0.00  0.00    +0.000 A 
ATOM     19  C   UNL     1       4.674   4.087  14.863  0.00  0.00    +0.000 A 
ATOM     20  C   UNL     1       5.466   3.876  13.720  0.00  0.00    +0.000 A 
ATOM     21  C   UNL     1       6.737   4.453  13.608  0.00  0.00    +0.000 A 
ATOM     22  C   UNL     1       7.598   4.222  12.403  0.00  0.00    +0.000 C 
ATOM     23  C   UNL     1       7.217   5.249  14.650  0.00  0.00    +0.000 A 
ATOM     24  C   UNL     1       6.428   5.447  15.783  0.00  0.00    +0.000 A 
ENDBRANCH   3  18
BRANCH   7  25
ATOM     25  O   UNL     1       4.974   1.994  19.460  0.00  0.00    +0.000 OA
ATOM     26  H   UNL     1       5.249   1.630  20.321  0.00  0.00    +0.000 HD
ENDBRANCH   7  25
TORSDOF 3
ENDMDL
MODEL 4
REMARK VINA RESULT:      -8.4      1.142      1.542
REMARK  Name = 
REMARK  7 active torsions:
REMARK  status: ('A' for Active; 'I' for Inactive)
REMARK    1  A    between atoms: C_1  and  C_2
REMARK    2  A    between atoms: C_5  and  C_6
REMARK    3  A    between atoms: C_8  and  C_9
REMARK    4  A    between atoms: C_12  and  C_13
REMARK    5  A    between atoms: C_16  and  C_17
REMARK    6  A    between atoms: N_19  and  O_20
REMARK    7  A    between atoms: C_21  and  C_22
REMARK                            x       y       z     vdW  Elec       q    Type
REMARK                         _______ _______ _______ _____ _____    ______ ____
ROOT
ATOM      1  C   UNL     1       2.825   5.830  19.096  0.00  0.00    +0.000 C 
ATOM      2  N   UNL     1       3.690   6.091  17.908  0.00  0.00    +0.000 NA
ATOM      3  C   UNL     1       4.030   4.833  17.221  0.00  0.00    +0.000 C 
ATOM      4  C   UNL     1       4.269   3.664  18.199  0.00  0.00    +0.000 C 
ATOM      5  C   UNL     1       5.107   3.868  19.470  0.00  0.00    +0.000 C 
ATOM      6  C   UNL     1       2.839   3.336  18.609  0.00  0.00    +0.000 C 
ATOM      7  N   UNL     1       2.368   2.122  18.623  0.00  0.00    +0.000 NA
ATOM      8  C   UNL     1       1.930   4.551  18.947  0.00  0.00    +0.000 C 
ATOM      9  C   UNL     1       1.097   4.243  20.187  0.00  0.00    +0.000 C 
ATOM     10  H   UNL     1       4.526   6.565  18.231  0.00  0.00    +0.000 HD
ENDROOT
BRANCH   1  15
ATOM     11  C   UNL     1       0.362  10.875  20.726  0.00  0.00    +0.000 C 
ATOM     12  C   UNL     1       0.910   9.538  20.322  0.00  0.00    +0.000 A 
ATOM     13  C   UNL     1       1.064   8.497  21.246  0.00  0.00    +0.000 A 
ATOM     14  C   UNL     1       1.669   7.287  20.872  0.00  0.00    +0.000 A 
ATOM     15  C   UNL     1       2.126   7.099  19.563  0.00  0.00    +0.000 A 
ATOM     16  C   UNL     1       1.923   8.135  18.632  0.00  0.00    +0.000 A 
ATOM     17  C   UNL     1       1.326   9.339  19.005  0.00  0.00    +0.000 A 
ENDBRANCH   1  15
BRANCH   3  18
ATOM     18  C   UNL     1       4.988   4.876  16.042  0.00  0.00    +0.000 A 
ATOM     19  C   UNL     1       4.938   4.009  14.952  0.00  0.00    +0.000 A 
ATOM     20  C   UNL     1       5.942   4.044  13.968  0.00  0.00    +0.000 A 
ATOM     21  C   UNL     1       7.009   4.946  14.059  0.00  0.00    +0.000 A 
ATOM     22  C   UNL     1       8.094   4.980  13.026  0.00  0.00    +0.000 C 
ATOM     23  C   UNL     1       7.068   5.822  15.145  0.00  0.00    +0.000 A 
ATOM     24  C   UNL     1       6.073   5.776  16.120  0.00  0.00    +0.000 A 
ENDBRANCH   3  18
BRANCH   7  25
ATOM     25  O   UNL     1       3.346   1.200  18.218  0.00  0.00    +0.000 OA
ATOM     26  H   UNL     1       3.686   1.581  17.389  0.00  0.00    +0.000 HD
ENDBRANCH   7  25
TORSDOF 3
ENDMDL
MODEL 5
REMARK VINA RESULT:      -8.3      1.474      6.909
REMARK  Name = 
REMARK  7 active torsions:
REMARK  status: ('A' for Active; 'I' for Inactive)
REMARK    1  A    between atoms: C_1  and  C_2
REMARK    2  A    between atoms: C_5  and  C_6
REMARK    3  A    between atoms: C_8  and  C_9
REMARK    4  A    between atoms: C_12  and  C_13
REMARK    5  A    between atoms: C_16  and  C_17
REMARK    6  A    between atoms: N_19  and  O_20
REMARK    7  A    between atoms: C_21  and  C_22
REMARK                            x       y       z     vdW  Elec       q    Type
REMARK                         _______ _______ _______ _____ _____    ______ ____
ROOT
ATOM      1  C   UNL     1       3.823   4.628  18.034  0.00  0.00    +0.000 C 
ATOM      2  N   UNL     1       3.255   5.982  18.299  0.00  0.00    +0.000 NA
ATOM      3  C   UNL     1       2.612   6.031  19.624  0.00  0.00    +0.000 C 
ATOM      4  C   UNL     1       1.877   4.722  19.980  0.00  0.00    +0.000 C 
ATOM      5  C   UNL     1       0.994   4.015  18.941  0.00  0.00    +0.000 C 
ATOM      6  C   UNL     1       3.053   3.815  20.315  0.00  0.00    +0.000 C 
ATOM      7  N   UNL     1       3.092   3.075  21.386  0.00  0.00    +0.000 NA
ATOM      8  C   UNL     1       4.259   3.870  19.336  0.00  0.00    +0.000 C 
ATOM      9  C   UNL     1       4.775   2.458  19.074  0.00  0.00    +0.000 C 
ATOM     10  H   UNL     1       2.587   6.187  17.564  0.00  0.00    +0.000 HD
ENDROOT
BRANCH   1  15
ATOM     11  C   UNL     1       7.729   5.082  13.708  0.00  0.00    +0.000 C 
ATOM     12  C   UNL     1       6.752   4.874  14.828  0.00  0.00    +0.000 A 
ATOM     13  C   UNL     1       5.620   4.063  14.675  0.00  0.00    +0.000 A 
ATOM     14  C   UNL     1       4.666   3.959  15.699  0.00  0.00    +0.000 A 
ATOM     15  C   UNL     1       4.833   4.663  16.897  0.00  0.00    +0.000 A 
ATOM     16  C   UNL     1       5.998   5.437  17.056  0.00  0.00    +0.000 A 
ATOM     17  C   UNL     1       6.944   5.545  16.037  0.00  0.00    +0.000 A 
ENDBRANCH   1  15
BRANCH   3  18
ATOM     18  C   UNL     1       1.883   7.298  20.040  0.00  0.00    +0.000 A 
ATOM     19  C   UNL     1       1.166   7.443  21.227  0.00  0.00    +0.000 A 
ATOM     20  C   UNL     1       0.421   8.610  21.470  0.00  0.00    +0.000 A 
ATOM     21  C   UNL     1       0.382   9.649  20.533  0.00  0.00    +0.000 A 
ATOM     22  C   UNL     1      -0.423  10.890  20.773  0.00  0.00    +0.000 C 
ATOM     23  C   UNL     1       1.100   9.517  19.342  0.00  0.00    +0.000 A 
ATOM     24  C   UNL     1       1.830   8.354  19.105  0.00  0.00    +0.000 A 
ENDBRANCH   3  18
BRANCH   7  25
ATOM     25  O   UNL     1       1.927   3.238  22.151  0.00  0.00    +0.000 OA
ATOM     26  H   UNL     1       2.048   4.111  22.565  0.00  0.00    +0.000 HD
ENDBRANCH   7  25
TORSDOF 3
ENDMDL
MODEL 6
REMARK VINA RESULT:      -8.1      1.441      6.931
REMARK  Name = 
REMARK  7 active torsions:
REMARK  status: ('A' for Active; 'I' for Inactive)
REMARK    1  A    between atoms: C_1  and  C_2
REMARK    2  A    between atoms: C_5  and  C_6
REMARK    3  A    between atoms: C_8  and  C_9
REMARK    4  A    between atoms: C_12  and  C_13
REMARK    5  A    between atoms: C_16  and  C_17
REMARK    6  A    between atoms: N_19  and  O_20
REMARK    7  A    between atoms: C_21  and  C_22
REMARK                            x       y       z     vdW  Elec       q    Type
REMARK                         _______ _______ _______ _____ _____    ______ ____
ROOT
ATOM      1  C   UNL     1       3.867   4.656  17.870  0.00  0.00    +0.000 C 
ATOM      2  N   UNL     1       3.283   6.011  18.097  0.00  0.00    +0.000 NA
ATOM      3  C   UNL     1       2.624   6.083  19.412  0.00  0.00    +0.000 C 
ATOM      4  C   UNL     1       1.895   4.776  19.789  0.00  0.00    +0.000 C 
ATOM      5  C   UNL     1       1.033   4.037  18.755  0.00  0.00    +0.000 C 
ATOM      6  C   UNL     1       3.075   3.888  20.159  0.00  0.00    +0.000 C 
ATOM      7  N   UNL     1       3.108   3.172  21.247  0.00  0.00    +0.000 NA
ATOM      8  C   UNL     1       4.293   3.931  19.194  0.00  0.00    +0.000 C 
ATOM      9  C   UNL     1       4.825   2.519  18.970  0.00  0.00    +0.000 C 
ATOM     10  H   UNL     1       2.623   6.193  17.349  0.00  0.00    +0.000 HD
ENDROOT
BRANCH   1  15
ATOM     11  C   UNL     1       7.827   5.047  13.587  0.00  0.00    +0.000 C 
ATOM     12  C   UNL     1       6.835   4.856  14.697  0.00  0.00    +0.000 A 
ATOM     13  C   UNL     1       5.704   4.045  14.540  0.00  0.00    +0.000 A 
ATOM     14  C   UNL     1       4.737   3.957  15.554  0.00  0.00    +0.000 A 
ATOM     15  C   UNL     1       4.891   4.674  16.745  0.00  0.00    +0.000 A 
ATOM     16  C   UNL     1       6.056   5.447  16.909  0.00  0.00    +0.000 A 
ATOM     17  C   UNL     1       7.014   5.540  15.900  0.00  0.00    +0.000 A 
ENDBRANCH   1  15
BRANCH   3  18
ATOM     18  C   UNL     1       1.878   7.353  19.790  0.00  0.00    +0.000 A 
ATOM     19  C   UNL     1       1.752   8.469  18.965  0.00  0.00    +0.000 A 
ATOM     20  C   UNL     1       1.150   9.646  19.447  0.00  0.00    +0.000 A 
ATOM     21  C   UNL     1       0.665   9.722  20.758  0.00  0.00    +0.000 A 
ATOM     22  C   UNL     1       0.038  10.976  21.288  0.00  0.00    +0.000 C 
ATOM     23  C   UNL     1       0.782   8.609  21.592  0.00  0.00    +0.000 A 
ATOM     24  C   UNL     1       1.386   7.449  21.110  0.00  0.00    +0.000 A 
ENDBRANCH   3  18
BRANCH   7  25
ATOM     25  O   UNL     1       1.931   3.342  21.994  0.00  0.00    +0.000 OA
ATOM     26  H   UNL     1       1.710   4.280  21.856  0.00  0.00    +0.000 HD
ENDBRANCH   7  25
TORSDOF 3
ENDMDL
MODEL 7
REMARK VINA RESULT:      -7.3      5.134      8.748
REMARK  Name = 
REMARK  7 active torsions:
REMARK  status: ('A' for Active; 'I' for Inactive)
REMARK    1  A    between atoms: C_1  and  C_2
REMARK    2  A    between atoms: C_5  and  C_6
REMARK    3  A    between atoms: C_8  and  C_9
REMARK    4  A    between atoms: C_12  and  C_13
REMARK    5  A    between atoms: C_16  and  C_17
REMARK    6  A    between atoms: N_19  and  O_20
REMARK    7  A    between atoms: C_21  and  C_22
REMARK                            x       y       z     vdW  Elec       q    Type
REMARK                         _______ _______ _______ _____ _____    ______ ____
ROOT
ATOM      1  C   UNL     1      -1.354  12.620  21.365  0.00  0.00    +0.000 C 
ATOM      2  N   UNL     1      -1.005  11.244  20.903  0.00  0.00    +0.000 NA
ATOM      3  C   UNL     1       0.429  11.147  20.582  0.00  0.00    +0.000 C 
ATOM      4  C   UNL     1       0.981  12.426  19.917  0.00  0.00    +0.000 C 
ATOM      5  C   UNL     1       0.190  13.131  18.805  0.00  0.00    +0.000 C 
ATOM      6  C   UNL     1       1.065  13.358  21.117  0.00  0.00    +0.000 C 
ATOM      7  N   UNL     1       2.119  14.075  21.384  0.00  0.00    +0.000 NA
ATOM      8  C   UNL     1      -0.165  13.360  22.069  0.00  0.00    +0.000 C 
ATOM      9  C   UNL     1      -0.497  14.792  22.479  0.00  0.00    +0.000 C 
ATOM     10  H   UNL     1      -1.574  11.036  20.090  0.00  0.00    +0.000 HD
ENDROOT
BRANCH   1  15
ATOM     11  C   UNL     1      -6.556  12.981  24.008  0.00  0.00    +0.000 C 
ATOM     12  C   UNL     1      -5.225  12.794  23.340  0.00  0.00    +0.000 A 
ATOM     13  C   UNL     1      -4.102  12.349  24.049  0.00  0.00    +0.000 A 
ATOM     14  C   UNL     1      -2.845  12.275  23.431  0.00  0.00    +0.000 A 
ATOM     15  C   UNL     1      -2.692  12.639  22.089  0.00  0.00    +0.000 A 
ATOM     16  C   UNL     1      -3.837  13.039  21.375  0.00  0.00    +0.000 A 
ATOM     17  C   UNL     1      -5.086  13.119  21.990  0.00  0.00    +0.000 A 
ENDBRANCH   1  15
BRANCH   3  18
ATOM     18  C   UNL     1       0.964   9.850  19.996  0.00  0.00    +0.000 A 
ATOM     19  C   UNL     1       1.239   8.703  20.738  0.00  0.00    +0.000 A 
ATOM     20  C   UNL     1       1.848   7.591  20.131  0.00  0.00    +0.000 A 
ATOM     21  C   UNL     1       2.191   7.609  18.773  0.00  0.00    +0.000 A 
ATOM     22  C   UNL     1       2.856   6.436  18.119  0.00  0.00    +0.000 C 
ATOM     23  C   UNL     1       1.917   8.751  18.018  0.00  0.00    +0.000 A 
ATOM     24  C   UNL     1       1.319   9.852  18.629  0.00  0.00    +0.000 A 
ENDBRANCH   3  18
BRANCH   7  25
ATOM     25  O   UNL     1       3.125  13.861  20.428  0.00  0.00    +0.000 OA
ATOM     26  H   UNL     1       3.357  12.923  20.549  0.00  0.00    +0.000 HD
ENDBRANCH   7  25
TORSDOF 3
ENDMDL
MODEL 8
REMARK VINA RESULT:      -7.1      4.667      8.012
REMARK  Name = 
REMARK  7 active torsions:
REMARK  status: ('A' for Active; 'I' for Inactive)
REMARK    1  A    between atoms: C_1  and  C_2
REMARK    2  A    between atoms: C_5  and  C_6
REMARK    3  A    between atoms: C_8  and  C_9
REMARK    4  A    between atoms: C_12  and  C_13
REMARK    5  A    between atoms: C_16  and  C_17
REMARK    6  A    between atoms: N_19  and  O_20
REMARK    7  A    between atoms: C_21  and  C_22
REMARK                            x       y       z     vdW  Elec       q    Type
REMARK                         _______ _______ _______ _____ _____    ______ ____
ROOT
ATOM      1  C   UNL     1      -1.438  12.003  19.202  0.00  0.00    +0.000 C 
ATOM      2  N   UNL     1      -0.819  10.674  18.920  0.00  0.00    +0.000 NA
ATOM      3  C   UNL     1       0.500  10.562  19.567  0.00  0.00    +0.000 C 
ATOM      4  C   UNL     1       1.293  11.885  19.539  0.00  0.00    +0.000 C 
ATOM      5  C   UNL     1       1.352  12.734  18.261  0.00  0.00    +0.000 C 
ATOM      6  C   UNL     1       0.564  12.679  20.615  0.00  0.00    +0.000 C 
ATOM      7  N   UNL     1       1.184  13.325  21.561  0.00  0.00    +0.000 NA
ATOM      8  C   UNL     1      -0.989  12.621  20.571  0.00  0.00    +0.000 C 
ATOM      9  C   UNL     1      -1.565  14.010  20.829  0.00  0.00    +0.000 C 
ATOM     10  H   UNL     1      -0.739  10.576  17.914  0.00  0.00    +0.000 HD
ENDROOT
BRANCH   1  15
ATOM     11  C   UNL     1      -7.117  12.085  17.816  0.00  0.00    +0.000 C 
ATOM     12  C   UNL     1      -5.678  11.995  18.234  0.00  0.00    +0.000 A 
ATOM     13  C   UNL     1      -5.257  12.387  19.511  0.00  0.00    +0.000 A 
ATOM     14  C   UNL     1      -3.895  12.389  19.850  0.00  0.00    +0.000 A 
ATOM     15  C   UNL     1      -2.932  11.991  18.917  0.00  0.00    +0.000 A 
ATOM     16  C   UNL     1      -3.372  11.554  17.653  0.00  0.00    +0.000 A 
ATOM     17  C   UNL     1      -4.725  11.557  17.314  0.00  0.00    +0.000 A 
ENDBRANCH   1  15
BRANCH   3  18
ATOM     18  C   UNL     1       1.337   9.319  19.316  0.00  0.00    +0.000 A 
ATOM     19  C   UNL     1       1.936   9.003  18.097  0.00  0.00    +0.000 A 
ATOM     20  C   UNL     1       2.589   7.770  17.923  0.00  0.00    +0.000 A 
ATOM     21  C   UNL     1       2.654   6.835  18.964  0.00  0.00    +0.000 A 
ATOM     22  C   UNL     1       3.332   5.511  18.785  0.00  0.00    +0.000 C 
ATOM     23  C   UNL     1       2.061   7.142  20.191  0.00  0.00    +0.000 A 
ATOM     24  C   UNL     1       1.409   8.363  20.353  0.00  0.00    +0.000 A 
ENDBRANCH   3  18
BRANCH   7  25
ATOM     25  O   UNL     1       2.574  13.180  21.437  0.00  0.00    +0.000 OA
ATOM     26  H   UNL     1       2.784  13.685  20.631  0.00  0.00    +0.000 HD
ENDBRANCH   7  25
TORSDOF 3
ENDMDL
MODEL 9
REMARK VINA RESULT:      -7.1      5.100     10.484
REMARK  Name = 
REMARK  7 active torsions:
REMARK  status: ('A' for Active; 'I' for Inactive)
REMARK    1  A    between atoms: C_1  and  C_2
REMARK    2  A    between atoms: C_5  and  C_6
REMARK    3  A    between atoms: C_8  and  C_9
REMARK    4  A    between atoms: C_12  and  C_13
REMARK    5  A    between atoms: C_16  and  C_17
REMARK    6  A    between atoms: N_19  and  O_20
REMARK    7  A    between atoms: C_21  and  C_22
REMARK                            x       y       z     vdW  Elec       q    Type
REMARK                         _______ _______ _______ _____ _____    ______ ____
ROOT
ATOM      1  C   UNL     1       0.283  10.919  19.346  0.00  0.00    +0.000 C 
ATOM      2  N   UNL     1      -1.188  10.680  19.262  0.00  0.00    +0.000 NA
ATOM      3  C   UNL     1      -1.912  11.945  19.047  0.00  0.00    +0.000 C 
ATOM      4  C   UNL     1      -1.291  13.129  19.819  0.00  0.00    +0.000 C 
ATOM      5  C   UNL     1      -0.850  12.962  21.280  0.00  0.00    +0.000 C 
ATOM      6  C   UNL     1      -0.060  13.409  18.970  0.00  0.00    +0.000 C 
ATOM      7  N   UNL     1       0.273  14.606  18.578  0.00  0.00    +0.000 NA
ATOM      8  C   UNL     1       0.760  12.166  18.523  0.00  0.00    +0.000 C 
ATOM      9  C   UNL     1       2.252  12.454  18.663  0.00  0.00    +0.000 C 
ATOM     10  H   UNL     1      -1.479  10.238  20.126  0.00  0.00    +0.000 HD
ENDROOT
BRANCH   1  15
ATOM     11  C   UNL     1       3.442   6.024  18.856  0.00  0.00    +0.000 C 
ATOM     12  C   UNL     1       2.567   7.242  18.924  0.00  0.00    +0.000 A 
ATOM     13  C   UNL     1       2.381   8.076  17.814  0.00  0.00    +0.000 A 
ATOM     14  C   UNL     1       1.640   9.263  17.923  0.00  0.00    +0.000 A 
ATOM     15  C   UNL     1       1.067   9.631  19.145  0.00  0.00    +0.000 A 
ATOM     16  C   UNL     1       1.221   8.760  20.240  0.00  0.00    +0.000 A 
ATOM     17  C   UNL     1       1.962   7.584  20.134  0.00  0.00    +0.000 A 
ENDBRANCH   1  15
BRANCH   3  18
ATOM     18  C   UNL     1      -3.432  11.927  19.035  0.00  0.00    +0.000 A 
ATOM     19  C   UNL     1      -4.207  11.373  18.017  0.00  0.00    +0.000 A 
ATOM     20  C   UNL     1      -5.606  11.513  18.031  0.00  0.00    +0.000 A 
ATOM     21  C   UNL     1      -6.251  12.206  19.062  0.00  0.00    +0.000 A 
ATOM     22  C   UNL     1      -7.740  12.376  19.079  0.00  0.00    +0.000 C 
ATOM     23  C   UNL     1      -5.486  12.762  20.089  0.00  0.00    +0.000 A 
ATOM     24  C   UNL     1      -4.099  12.626  20.065  0.00  0.00    +0.000 A 
ENDBRANCH   3  18
BRANCH   7  25
ATOM     25  O   UNL     1      -0.647  15.558  19.045  0.00  0.00    +0.000 OA
ATOM     26  H   UNL     1      -1.505  15.211  18.743  0.00  0.00    +0.000 HD
ENDBRANCH   7  25
TORSDOF 3
ENDMDL
