MODEL 1
REMARK VINA RESULT:      -6.0      0.000      0.000
REMARK  Name = 
REMARK  7 active torsions:
REMARK  status: ('A' for Active; 'I' for Inactive)
REMARK    1  A    between atoms: C_1  and  C_2
REMARK    2  A    between atoms: C_2  and  O_3
REMARK    3  A    between atoms: O_3  and  C_4
REMARK    4  A    between atoms: C_4  and  C_6
REMARK    5  A    between atoms: C_7  and  N_8
REMARK    6  A    between atoms: C_9  and  C_10
REMARK    7  A    between atoms: C_13  and  C_14
REMARK                            x       y       z     vdW  Elec       q    Type
REMARK                         _______ _______ _______ _____ _____    ______ ____
ROOT
ATOM      1  C   UNL     1       5.629   5.105  17.536  0.00  0.00    +0.000 A 
ATOM      2  C   UNL     1       4.344   4.624  17.774  0.00  0.00    +0.000 A 
ATOM      3  S   UNL     1       3.662   3.901  16.386  0.00  0.00    +0.000 S 
ATOM      4  C   UNL     1       5.054   4.163  15.463  0.00  0.00    +0.000 A 
ATOM      5  C   UNL     1       6.005   4.892  16.147  0.00  0.00    +0.000 A 
ATOM      6  C   UNL     1       7.315   5.261  15.500  0.00  0.00    +0.000 C 
ATOM      7  C   UNL     1       7.247   5.138  13.971  0.00  0.00    +0.000 C 
ATOM      8  C   UNL     1       6.625   3.803  13.548  0.00  0.00    +0.000 C 
ATOM      9  C   UNL     1       5.181   3.658  14.058  0.00  0.00    +0.000 C 
ENDROOT
BRANCH   2  10
ATOM     10  N   UNL     1       3.543   4.691  18.945  0.00  0.00    +0.000 N 
ATOM     11  C   UNL     1       2.723   5.759  19.351  0.00  0.00    +0.000 A 
ATOM     12  C   UNL     1       2.460   7.014  18.591  0.00  0.00    +0.000 C 
ATOM     13  C   UNL     1       2.121   5.434  20.553  0.00  0.00    +0.000 A 
ATOM     14  C   UNL     1       2.526   4.144  20.905  0.00  0.00    +0.000 A 
ATOM     15  C   UNL     1       3.400   3.696  19.934  0.00  0.00    +0.000 A 
ATOM     16  C   UNL     1       4.151   2.407  19.988  0.00  0.00    +0.000 C 
ENDBRANCH   2  10
BRANCH   1  17
ATOM     17  C   UNL     1       6.571   5.609  18.537  0.00  0.00    +0.000 C 
ATOM     18  O   UNL     1       7.001   4.930  19.467  0.00  0.00    +0.000 OA
BRANCH  17  19
ATOM     19  O   UNL     1       6.772   6.944  18.407  0.00  0.00    +0.000 OA
BRANCH  19  21
ATOM     20  C   UNL     1       8.286   8.812  18.010  0.00  0.00    +0.000 C 
ATOM     21  C   UNL     1       8.138   7.360  18.410  0.00  0.00    +0.000 C 
ENDBRANCH  19  21
ENDBRANCH  17  19
ENDBRANCH   1  17
TORSDOF 4
ENDMDL
MODEL 2
REMARK VINA RESULT:      -6.0      0.459      1.831
REMARK  Name = 
REMARK  7 active torsions:
REMARK  status: ('A' for Active; 'I' for Inactive)
REMARK    1  A    between atoms: C_1  and  C_2
REMARK    2  A    between atoms: C_2  and  O_3
REMARK    3  A    between atoms: O_3  and  C_4
REMARK    4  A    between atoms: C_4  and  C_6
REMARK    5  A    between atoms: C_7  and  N_8
REMARK    6  A    between atoms: C_9  and  C_10
REMARK    7  A    between atoms: C_13  and  C_14
REMARK                            x       y       z     vdW  Elec       q    Type
REMARK                         _______ _______ _______ _____ _____    ______ ____
ROOT
ATOM      1  C   UNL     1       5.680   4.929  17.663  0.00  0.00    +0.000 A 
ATOM      2  C   UNL     1       4.357   4.550  17.878  0.00  0.00    +0.000 A 
ATOM      3  S   UNL     1       3.603   4.009  16.444  0.00  0.00    +0.000 S 
ATOM      4  C   UNL     1       5.009   4.217  15.528  0.00  0.00    +0.000 A 
ATOM      5  C   UNL     1       6.026   4.797  16.257  0.00  0.00    +0.000 A 
ATOM      6  C   UNL     1       7.362   5.095  15.625  0.00  0.00    +0.000 C 
ATOM      7  C   UNL     1       7.274   5.105  14.091  0.00  0.00    +0.000 C 
ATOM      8  C   UNL     1       6.529   3.871  13.570  0.00  0.00    +0.000 C 
ATOM      9  C   UNL     1       5.081   3.819  14.085  0.00  0.00    +0.000 C 
ENDROOT
BRANCH   2  10
ATOM     10  N   UNL     1       3.572   4.595  19.061  0.00  0.00    +0.000 N 
ATOM     11  C   UNL     1       3.414   3.571  20.012  0.00  0.00    +0.000 A 
ATOM     12  C   UNL     1       4.104   2.250  20.017  0.00  0.00    +0.000 C 
ATOM     13  C   UNL     1       2.559   4.008  21.007  0.00  0.00    +0.000 A 
ATOM     14  C   UNL     1       2.194   5.325  20.717  0.00  0.00    +0.000 A 
ATOM     15  C   UNL     1       2.800   5.679  19.527  0.00  0.00    +0.000 A 
ATOM     16  C   UNL     1       2.580   6.967  18.804  0.00  0.00    +0.000 C 
ENDBRANCH   2  10
BRANCH   1  17
ATOM     17  C   UNL     1       6.670   5.261  18.689  0.00  0.00    +0.000 C 
ATOM     18  O   UNL     1       6.450   5.179  19.896  0.00  0.00    +0.000 OA
BRANCH  17  19
ATOM     19  O   UNL     1       7.780   5.822  18.150  0.00  0.00    +0.000 OA
BRANCH  19  21
ATOM     20  C   UNL     1       7.774   8.199  17.613  0.00  0.00    +0.000 C 
ATOM     21  C   UNL     1       8.101   7.128  18.630  0.00  0.00    +0.000 C 
ENDBRANCH  19  21
ENDBRANCH  17  19
ENDBRANCH   1  17
TORSDOF 4
ENDMDL
MODEL 3
REMARK VINA RESULT:      -6.0      2.513      5.307
REMARK  Name = 
REMARK  7 active torsions:
REMARK  status: ('A' for Active; 'I' for Inactive)
REMARK    1  A    between atoms: C_1  and  C_2
REMARK    2  A    between atoms: C_2  and  O_3
REMARK    3  A    between atoms: O_3  and  C_4
REMARK    4  A    between atoms: C_4  and  C_6
REMARK    5  A    between atoms: C_7  and  N_8
REMARK    6  A    between atoms: C_9  and  C_10
REMARK    7  A    between atoms: C_13  and  C_14
REMARK                            x       y       z     vdW  Elec       q    Type
REMARK                         _______ _______ _______ _____ _____    ______ ____
ROOT
ATOM      1  C   UNL     1       3.366   5.517  18.790  0.00  0.00    +0.000 A 
ATOM      2  C   UNL     1       4.566   5.148  18.189  0.00  0.00    +0.000 A 
ATOM      3  S   UNL     1       4.649   3.466  17.900  0.00  0.00    +0.000 S 
ATOM      4  C   UNL     1       3.096   3.201  18.513  0.00  0.00    +0.000 A 
ATOM      5  C   UNL     1       2.540   4.347  19.043  0.00  0.00    +0.000 A 
ATOM      6  C   UNL     1       1.168   4.328  19.666  0.00  0.00    +0.000 C 
ATOM      7  C   UNL     1       0.727   2.901  20.024  0.00  0.00    +0.000 C 
ATOM      8  C   UNL     1       0.963   1.937  18.857  0.00  0.00    +0.000 C 
ATOM      9  C   UNL     1       2.452   1.848  18.481  0.00  0.00    +0.000 C 
ENDROOT
BRANCH   2  10
ATOM     10  N   UNL     1       5.697   5.934  17.843  0.00  0.00    +0.000 N 
ATOM     11  C   UNL     1       5.871   6.701  16.677  0.00  0.00    +0.000 A 
ATOM     12  C   UNL     1       4.867   6.913  15.596  0.00  0.00    +0.000 C 
ATOM     13  C   UNL     1       7.115   7.305  16.716  0.00  0.00    +0.000 A 
ATOM     14  C   UNL     1       7.727   6.957  17.922  0.00  0.00    +0.000 A 
ATOM     15  C   UNL     1       6.871   6.114  18.603  0.00  0.00    +0.000 A 
ATOM     16  C   UNL     1       7.193   5.422  19.886  0.00  0.00    +0.000 C 
ENDBRANCH   2  10
BRANCH   1  17
ATOM     17  C   UNL     1       2.882   6.882  19.006  0.00  0.00    +0.000 C 
ATOM     18  O   UNL     1       2.644   7.350  20.118  0.00  0.00    +0.000 OA
BRANCH  17  19
ATOM     19  O   UNL     1       2.574   7.495  17.836  0.00  0.00    +0.000 OA
BRANCH  19  21
ATOM     20  C   UNL     1       1.036   9.383  17.908  0.00  0.00    +0.000 C 
ATOM     21  C   UNL     1       2.476   8.918  17.899  0.00  0.00    +0.000 C 
ENDBRANCH  19  21
ENDBRANCH  17  19
ENDBRANCH   1  17
TORSDOF 4
ENDMDL
MODEL 4
REMARK VINA RESULT:      -6.0      2.524      5.481
REMARK  Name = 
REMARK  7 active torsions:
REMARK  status: ('A' for Active; 'I' for Inactive)
REMARK    1  A    between atoms: C_1  and  C_2
REMARK    2  A    between atoms: C_2  and  O_3
REMARK    3  A    between atoms: O_3  and  C_4
REMARK    4  A    between atoms: C_4  and  C_6
REMARK    5  A    between atoms: C_7  and  N_8
REMARK    6  A    between atoms: C_9  and  C_10
REMARK    7  A    between atoms: C_13  and  C_14
REMARK                            x       y       z     vdW  Elec       q    Type
REMARK                         _______ _______ _______ _____ _____    ______ ____
ROOT
ATOM      1  C   UNL     1       3.359   5.487  18.797  0.00  0.00    +0.000 A 
ATOM      2  C   UNL     1       4.565   5.132  18.197  0.00  0.00    +0.000 A 
ATOM      3  S   UNL     1       4.660   3.455  17.892  0.00  0.00    +0.000 S 
ATOM      4  C   UNL     1       3.106   3.172  18.496  0.00  0.00    +0.000 A 
ATOM      5  C   UNL     1       2.540   4.309  19.035  0.00  0.00    +0.000 A 
ATOM      6  C   UNL     1       1.166   4.274  19.652  0.00  0.00    +0.000 C 
ATOM      7  C   UNL     1       0.733   2.840  19.993  0.00  0.00    +0.000 C 
ATOM      8  C   UNL     1       0.981   1.890  18.817  0.00  0.00    +0.000 C 
ATOM      9  C   UNL     1       2.472   1.815  18.447  0.00  0.00    +0.000 C 
ENDROOT
BRANCH   2  10
ATOM     10  N   UNL     1       5.692   5.929  17.864  0.00  0.00    +0.000 N 
ATOM     11  C   UNL     1       6.864   6.098  18.622  0.00  0.00    +0.000 A 
ATOM     12  C   UNL     1       7.202   5.409  19.899  0.00  0.00    +0.000 C 
ATOM     13  C   UNL     1       7.712   6.964  17.955  0.00  0.00    +0.000 A 
ATOM     14  C   UNL     1       7.102   7.325  16.751  0.00  0.00    +0.000 A 
ATOM     15  C   UNL     1       5.868   6.706  16.700  0.00  0.00    +0.000 A 
ATOM     16  C   UNL     1       4.848   6.918  15.631  0.00  0.00    +0.000 C 
ENDBRANCH   2  10
BRANCH   1  17
ATOM     17  C   UNL     1       2.865   6.846  19.025  0.00  0.00    +0.000 C 
ATOM     18  O   UNL     1       2.695   7.327  20.144  0.00  0.00    +0.000 OA
BRANCH  17  19
ATOM     19  O   UNL     1       2.466   7.434  17.870  0.00  0.00    +0.000 OA
BRANCH  19  21
ATOM     20  C   UNL     1       1.083   9.439  17.925  0.00  0.00    +0.000 C 
ATOM     21  C   UNL     1       2.480   8.862  17.874  0.00  0.00    +0.000 C 
ENDBRANCH  19  21
ENDBRANCH  17  19
ENDBRANCH   1  17
TORSDOF 4
ENDMDL
MODEL 5
REMARK VINA RESULT:      -6.0      2.426      5.617
REMARK  Name = 
REMARK  7 active torsions:
REMARK  status: ('A' for Active; 'I' for Inactive)
REMARK    1  A    between atoms: C_1  and  C_2
REMARK    2  A    between atoms: C_2  and  O_3
REMARK    3  A    between atoms: O_3  and  C_4
REMARK    4  A    between atoms: C_4  and  C_6
REMARK    5  A    between atoms: C_7  and  N_8
REMARK    6  A    between atoms: C_9  and  C_10
REMARK    7  A    between atoms: C_13  and  C_14
REMARK                            x       y       z     vdW  Elec       q    Type
REMARK                         _______ _______ _______ _____ _____    ______ ____
ROOT
ATOM      1  C   UNL     1       3.416   5.564  18.684  0.00  0.00    +0.000 A 
ATOM      2  C   UNL     1       4.640   5.145  18.168  0.00  0.00    +0.000 A 
ATOM      3  S   UNL     1       4.725   3.446  18.016  0.00  0.00    +0.000 S 
ATOM      4  C   UNL     1       3.144   3.234  18.578  0.00  0.00    +0.000 A 
ATOM      5  C   UNL     1       2.573   4.419  18.991  0.00  0.00    +0.000 A 
ATOM      6  C   UNL     1       1.175   4.454  19.552  0.00  0.00    +0.000 C 
ATOM      7  C   UNL     1       0.709   3.060  20.001  0.00  0.00    +0.000 C 
ATOM      8  C   UNL     1       0.990   2.007  18.924  0.00  0.00    +0.000 C 
ATOM      9  C   UNL     1       2.494   1.884  18.623  0.00  0.00    +0.000 C 
ENDROOT
BRANCH   2  10
ATOM     10  N   UNL     1       5.790   5.898  17.812  0.00  0.00    +0.000 N 
ATOM     11  C   UNL     1       6.945   6.100  18.589  0.00  0.00    +0.000 A 
ATOM     12  C   UNL     1       7.236   5.494  19.919  0.00  0.00    +0.000 C 
ATOM     13  C   UNL     1       7.826   6.902  17.887  0.00  0.00    +0.000 A 
ATOM     14  C   UNL     1       7.255   7.189  16.645  0.00  0.00    +0.000 A 
ATOM     15  C   UNL     1       6.012   6.589  16.603  0.00  0.00    +0.000 A 
ATOM     16  C   UNL     1       5.024   6.743  15.494  0.00  0.00    +0.000 C 
ENDBRANCH   2  10
BRANCH   1  17
ATOM     17  C   UNL     1       2.932   6.943  18.771  0.00  0.00    +0.000 C 
ATOM     18  O   UNL     1       2.992   7.743  17.840  0.00  0.00    +0.000 OA
BRANCH  17  19
ATOM     19  O   UNL     1       2.574   7.268  20.038  0.00  0.00    +0.000 OA
BRANCH  19  21
ATOM     20  C   UNL     1       1.115   8.467  21.578  0.00  0.00    +0.000 C 
ATOM     21  C   UNL     1       1.578   8.285  20.149  0.00  0.00    +0.000 C 
ENDBRANCH  19  21
ENDBRANCH  17  19
ENDBRANCH   1  17
TORSDOF 4
ENDMDL
MODEL 6
REMARK VINA RESULT:      -5.9      5.250      7.757
REMARK  Name = 
REMARK  7 active torsions:
REMARK  status: ('A' for Active; 'I' for Inactive)
REMARK    1  A    between atoms: C_1  and  C_2
REMARK    2  A    between atoms: C_2  and  O_3
REMARK    3  A    between atoms: O_3  and  C_4
REMARK    4  A    between atoms: C_4  and  C_6
REMARK    5  A    between atoms: C_7  and  N_8
REMARK    6  A    between atoms: C_9  and  C_10
REMARK    7  A    between atoms: C_13  and  C_14
REMARK                            x       y       z     vdW  Elec       q    Type
REMARK                         _______ _______ _______ _____ _____    ______ ____
ROOT
ATOM      1  C   UNL     1       0.980   8.869  20.216  0.00  0.00    +0.000 A 
ATOM      2  C   UNL     1       0.891   9.916  19.302  0.00  0.00    +0.000 A 
ATOM      3  S   UNL     1       1.814   9.621  17.896  0.00  0.00    +0.000 S 
ATOM      4  C   UNL     1       2.307   8.097  18.439  0.00  0.00    +0.000 A 
ATOM      5  C   UNL     1       1.879   7.837  19.724  0.00  0.00    +0.000 A 
ATOM      6  C   UNL     1       2.229   6.543  20.412  0.00  0.00    +0.000 C 
ATOM      7  C   UNL     1       3.412   5.839  19.729  0.00  0.00    +0.000 C 
ATOM      8  C   UNL     1       3.220   5.778  18.210  0.00  0.00    +0.000 C 
ATOM      9  C   UNL     1       3.134   7.182  17.588  0.00  0.00    +0.000 C 
ENDROOT
BRANCH   2  10
ATOM     10  N   UNL     1       0.209  11.158  19.396  0.00  0.00    +0.000 N 
ATOM     11  C   UNL     1       0.692  12.351  19.964  0.00  0.00    +0.000 A 
ATOM     12  C   UNL     1       2.058  12.581  20.514  0.00  0.00    +0.000 C 
ATOM     13  C   UNL     1      -0.284  13.325  19.866  0.00  0.00    +0.000 A 
ATOM     14  C   UNL     1      -1.383  12.772  19.205  0.00  0.00    +0.000 A 
ATOM     15  C   UNL     1      -1.089  11.451  18.928  0.00  0.00    +0.000 A 
ATOM     16  C   UNL     1      -2.041  10.469  18.329  0.00  0.00    +0.000 C 
ENDBRANCH   2  10
BRANCH   1  17
ATOM     17  C   UNL     1       0.181   8.702  21.431  0.00  0.00    +0.000 C 
ATOM     18  O   UNL     1      -0.799   7.962  21.503  0.00  0.00    +0.000 OA
BRANCH  17  19
ATOM     19  O   UNL     1       0.549   9.579  22.397  0.00  0.00    +0.000 OA
BRANCH  19  21
ATOM     20  C   UNL     1      -1.191  11.217  22.870  0.00  0.00    +0.000 C 
ATOM     21  C   UNL     1      -0.484   9.954  23.309  0.00  0.00    +0.000 C 
ENDBRANCH  19  21
ENDBRANCH  17  19
ENDBRANCH   1  17
TORSDOF 4
ENDMDL
MODEL 7
REMARK VINA RESULT:      -5.9      2.430      5.450
REMARK  Name = 
REMARK  7 active torsions:
REMARK  status: ('A' for Active; 'I' for Inactive)
REMARK    1  A    between atoms: C_1  and  C_2
REMARK    2  A    between atoms: C_2  and  O_3
REMARK    3  A    between atoms: O_3  and  C_4
REMARK    4  A    between atoms: C_4  and  C_6
REMARK    5  A    between atoms: C_7  and  N_8
REMARK    6  A    between atoms: C_9  and  C_10
REMARK    7  A    between atoms: C_13  and  C_14
REMARK                            x       y       z     vdW  Elec       q    Type
REMARK                         _______ _______ _______ _____ _____    ______ ____
ROOT
ATOM      1  C   UNL     1       3.406   5.568  18.720  0.00  0.00    +0.000 A 
ATOM      2  C   UNL     1       4.616   5.149  18.173  0.00  0.00    +0.000 A 
ATOM      3  S   UNL     1       4.683   3.452  17.986  0.00  0.00    +0.000 S 
ATOM      4  C   UNL     1       3.111   3.242  18.573  0.00  0.00    +0.000 A 
ATOM      5  C   UNL     1       2.558   4.425  19.020  0.00  0.00    +0.000 A 
ATOM      6  C   UNL     1       1.170   4.460  19.608  0.00  0.00    +0.000 C 
ATOM      7  C   UNL     1       0.701   3.061  20.037  0.00  0.00    +0.000 C 
ATOM      8  C   UNL     1       0.953   2.027  18.935  0.00  0.00    +0.000 C 
ATOM      9  C   UNL     1       2.450   1.898  18.604  0.00  0.00    +0.000 C 
ENDROOT
BRANCH   2  10
ATOM     10  N   UNL     1       5.766   5.899  17.811  0.00  0.00    +0.000 N 
ATOM     11  C   UNL     1       5.977   6.599  16.609  0.00  0.00    +0.000 A 
ATOM     12  C   UNL     1       5.000   6.766  15.496  0.00  0.00    +0.000 C 
ATOM     13  C   UNL     1       7.228   7.188  16.644  0.00  0.00    +0.000 A 
ATOM     14  C   UNL     1       7.809   6.897  17.881  0.00  0.00    +0.000 A 
ATOM     15  C   UNL     1       6.926   6.104  18.587  0.00  0.00    +0.000 A 
ATOM     16  C   UNL     1       7.208   5.478  19.912  0.00  0.00    +0.000 C 
ENDBRANCH   2  10
BRANCH   1  17
ATOM     17  C   UNL     1       2.936   6.949  18.843  0.00  0.00    +0.000 C 
ATOM     18  O   UNL     1       3.055   7.788  17.953  0.00  0.00    +0.000 OA
BRANCH  17  19
ATOM     19  O   UNL     1       2.515   7.224  20.103  0.00  0.00    +0.000 OA
BRANCH  19  21
ATOM     20  C   UNL     1       1.217   8.585  21.652  0.00  0.00    +0.000 C 
ATOM     21  C   UNL     1       1.542   8.263  20.209  0.00  0.00    +0.000 C 
ENDBRANCH  19  21
ENDBRANCH  17  19
ENDBRANCH   1  17
TORSDOF 4
ENDMDL
MODEL 8
REMARK VINA RESULT:      -5.9      5.347      7.865
REMARK  Name = 
REMARK  7 active torsions:
REMARK  status: ('A' for Active; 'I' for Inactive)
REMARK    1  A    between atoms: C_1  and  C_2
REMARK    2  A    between atoms: C_2  and  O_3
REMARK    3  A    between atoms: O_3  and  C_4
REMARK    4  A    between atoms: C_4  and  C_6
REMARK    5  A    between atoms: C_7  and  N_8
REMARK    6  A    between atoms: C_9  and  C_10
REMARK    7  A    between atoms: C_13  and  C_14
REMARK                            x       y       z     vdW  Elec       q    Type
REMARK                         _______ _______ _______ _____ _____    ______ ____
ROOT
ATOM      1  C   UNL     1       0.922   8.966  20.238  0.00  0.00    +0.000 A 
ATOM      2  C   UNL     1       0.861  10.012  19.320  0.00  0.00    +0.000 A 
ATOM      3  S   UNL     1       1.791   9.694  17.923  0.00  0.00    +0.000 S 
ATOM      4  C   UNL     1       2.250   8.164  18.475  0.00  0.00    +0.000 A 
ATOM      5  C   UNL     1       1.805   7.916  19.757  0.00  0.00    +0.000 A 
ATOM      6  C   UNL     1       2.125   6.617  20.452  0.00  0.00    +0.000 C 
ATOM      7  C   UNL     1       3.299   5.889  19.782  0.00  0.00    +0.000 C 
ATOM      8  C   UNL     1       3.120   5.826  18.261  0.00  0.00    +0.000 C 
ATOM      9  C   UNL     1       3.067   7.230  17.634  0.00  0.00    +0.000 C 
ENDROOT
BRANCH   2  10
ATOM     10  N   UNL     1       0.202  11.267  19.403  0.00  0.00    +0.000 N 
ATOM     11  C   UNL     1      -1.095  11.575  18.953  0.00  0.00    +0.000 A 
ATOM     12  C   UNL     1      -2.080  10.622  18.367  0.00  0.00    +0.000 C 
ATOM     13  C   UNL     1      -1.357  12.908  19.210  0.00  0.00    +0.000 A 
ATOM     14  C   UNL     1      -0.244  13.451  19.856  0.00  0.00    +0.000 A 
ATOM     15  C   UNL     1       0.709  12.457  19.964  0.00  0.00    +0.000 A 
ATOM     16  C   UNL     1       2.092  12.651  20.492  0.00  0.00    +0.000 C 
ENDBRANCH   2  10
BRANCH   1  17
ATOM     17  C   UNL     1       0.109   8.818  21.446  0.00  0.00    +0.000 C 
ATOM     18  O   UNL     1      -0.798   7.996  21.557  0.00  0.00    +0.000 OA
BRANCH  17  19
ATOM     19  O   UNL     1       0.367   9.799  22.346  0.00  0.00    +0.000 OA
BRANCH  19  21
ATOM     20  C   UNL     1      -1.268  11.516  22.909  0.00  0.00    +0.000 C 
ATOM     21  C   UNL     1      -0.719  10.139  23.209  0.00  0.00    +0.000 C 
ENDBRANCH  19  21
ENDBRANCH  17  19
ENDBRANCH   1  17
TORSDOF 4
ENDMDL
MODEL 9
REMARK VINA RESULT:      -5.8      2.808      4.202
REMARK  Name = 
REMARK  7 active torsions:
REMARK  status: ('A' for Active; 'I' for Inactive)
REMARK    1  A    between atoms: C_1  and  C_2
REMARK    2  A    between atoms: C_2  and  O_3
REMARK    3  A    between atoms: O_3  and  C_4
REMARK    4  A    between atoms: C_4  and  C_6
REMARK    5  A    between atoms: C_7  and  N_8
REMARK    6  A    between atoms: C_9  and  C_10
REMARK    7  A    between atoms: C_13  and  C_14
REMARK                            x       y       z     vdW  Elec       q    Type
REMARK                         _______ _______ _______ _____ _____    ______ ____
ROOT
ATOM      1  C   UNL     1       3.938   6.005  18.401  0.00  0.00    +0.000 A 
ATOM      2  C   UNL     1       3.824   4.687  18.836  0.00  0.00    +0.000 A 
ATOM      3  S   UNL     1       5.348   3.945  19.045  0.00  0.00    +0.000 S 
ATOM      4  C   UNL     1       6.184   5.351  18.616  0.00  0.00    +0.000 A 
ATOM      5  C   UNL     1       5.335   6.358  18.205  0.00  0.00    +0.000 A 
ATOM      6  C   UNL     1       5.874   7.692  17.755  0.00  0.00    +0.000 C 
ATOM      7  C   UNL     1       7.366   7.609  17.397  0.00  0.00    +0.000 C 
ATOM      8  C   UNL     1       8.160   6.882  18.487  0.00  0.00    +0.000 C 
ATOM      9  C   UNL     1       7.679   5.433  18.674  0.00  0.00    +0.000 C 
ENDROOT
BRANCH   2  10
ATOM     10  N   UNL     1       2.667   3.897  19.072  0.00  0.00    +0.000 N 
ATOM     11  C   UNL     1       2.017   3.050  18.155  0.00  0.00    +0.000 A 
ATOM     12  C   UNL     1       2.458   2.742  16.765  0.00  0.00    +0.000 C 
ATOM     13  C   UNL     1       0.923   2.472  18.773  0.00  0.00    +0.000 A 
ATOM     14  C   UNL     1       0.888   2.919  20.096  0.00  0.00    +0.000 A 
ATOM     15  C   UNL     1       1.941   3.794  20.276  0.00  0.00    +0.000 A 
ATOM     16  C   UNL     1       2.195   4.583  21.517  0.00  0.00    +0.000 C 
ENDBRANCH   2  10
BRANCH   1  17
ATOM     17  C   UNL     1       2.857   6.987  18.301  0.00  0.00    +0.000 C 
ATOM     18  O   UNL     1       2.585   7.593  17.266  0.00  0.00    +0.000 OA
BRANCH  17  19
ATOM     19  O   UNL     1       2.317   7.262  19.514  0.00  0.00    +0.000 OA
BRANCH  19  21
ATOM     20  C   UNL     1       1.070   8.742  20.995  0.00  0.00    +0.000 C 
ATOM     21  C   UNL     1       1.655   8.523  19.616  0.00  0.00    +0.000 C 
ENDBRANCH  19  21
ENDBRANCH  17  19
ENDBRANCH   1  17
TORSDOF 4
ENDMDL
