MODEL 1
REMARK VINA RESULT:      -8.0      0.000      0.000
REMARK  Name = 
REMARK  10 active torsions:
REMARK  status: ('A' for Active; 'I' for Inactive)
REMARK    1  A    between atoms: C_2  and  O_3
REMARK    2  A    between atoms: C_2  and  C_4
REMARK    3  A    between atoms: C_4  and  C_5
REMARK    4  A    between atoms: C_5  and  C_6
REMARK    5  A    between atoms: C_9  and  C_10
REMARK    6  A    between atoms: C_10  and  N_11
REMARK    7  A    between atoms: C_12  and  C_14
REMARK    8  A    between atoms: C_17  and  C_18
REMARK    9  A    between atoms: C_18  and  N_19
REMARK   10  A    between atoms: C_20  and  C_22
REMARK                            x       y       z     vdW  Elec       q    Type
REMARK                         _______ _______ _______ _____ _____    ______ ____
ROOT
ATOM      1  N   UNL     1       9.491   9.924  19.461  0.00  0.00    +0.000 N 
ATOM      2  C   UNL     1       8.661   9.713  18.380  0.00  0.00    +0.000 C 
ATOM      3  O   UNL     1       8.367  10.585  17.571  0.00  0.00    +0.000 OA
ATOM      4  H   UNL     1       9.894   9.125  19.930  0.00  0.00    +0.000 HD
ENDROOT
BRANCH   2   5
ATOM      5  C   UNL     1       8.141   8.323  18.215  0.00  0.00    +0.000 A 
ATOM      6  C   UNL     1       7.316   7.977  17.138  0.00  0.00    +0.000 A 
ATOM      7  C   UNL     1       6.823   6.673  17.017  0.00  0.00    +0.000 A 
ATOM      8  C   UNL     1       7.143   5.694  17.968  0.00  0.00    +0.000 A 
ATOM      9  C   UNL     1       8.010   6.031  19.017  0.00  0.00    +0.000 A 
ATOM     10  C   UNL     1       8.506   7.337  19.140  0.00  0.00    +0.000 A 
BRANCH   8  11
ATOM     11  C   UNL     1       6.579   4.300  17.836  0.00  0.00    +0.000 C 
BRANCH  11  12
ATOM     12  N   UNL     1       5.486   4.077  18.749  0.00  0.00    +0.000 N 
ATOM     13  C   UNL     1       4.222   3.782  18.278  0.00  0.00    +0.000 C 
ATOM     14  O   UNL     1       3.949   3.697  17.084  0.00  0.00    +0.000 OA
ATOM     15  H   UNL     1       5.702   3.920  19.724  0.00  0.00    +0.000 HD
BRANCH  13  16
ATOM     16  C   UNL     1       3.184   3.523  19.315  0.00  0.00    +0.000 A 
ATOM     17  C   UNL     1       1.878   4.007  19.167  0.00  0.00    +0.000 A 
ATOM     18  C   UNL     1       0.927   3.772  20.162  0.00  0.00    +0.000 A 
ATOM     19  C   UNL     1       1.273   3.046  21.301  0.00  0.00    +0.000 A 
ATOM     20  C   UNL     1       2.565   2.537  21.440  0.00  0.00    +0.000 A 
ATOM     21  C   UNL     1       3.519   2.770  20.445  0.00  0.00    +0.000 A 
ENDBRANCH  13  16
ENDBRANCH  11  12
ENDBRANCH   8  11
ENDBRANCH   2   5
BRANCH   1  22
ATOM     22  C   UNL     1      10.105  11.209  19.715  0.00  0.00    +0.000 C 
BRANCH  22  26
ATOM     23  C   UNL     1       8.438  13.028  23.287  0.00  0.00    +0.000 A 
ATOM     24  C   UNL     1       9.293  13.755  22.447  0.00  0.00    +0.000 A 
ATOM     25  C   UNL     1       9.820  13.176  21.286  0.00  0.00    +0.000 A 
ATOM     26  C   UNL     1       9.509  11.855  20.942  0.00  0.00    +0.000 A 
ATOM     27  C   UNL     1       8.665  11.123  21.789  0.00  0.00    +0.000 A 
ATOM     28  C   UNL     1       8.132  11.705  22.945  0.00  0.00    +0.000 A 
BRANCH  23  29
ATOM     29  C   UNL     1       7.888  13.641  24.555  0.00  0.00    +0.000 C 
BRANCH  29  30
ATOM     30  C   UNL     1       7.210  12.615  25.464  0.00  0.00    +0.000 C 
BRANCH  30  32
ATOM     31  O   UNL     1       5.109  13.757  25.036  0.00  0.00    +0.000 OA
ATOM     32  C   UNL     1       5.712  12.794  25.481  0.00  0.00    +0.000 C 
BRANCH  32  33
ATOM     33  O   UNL     1       5.075  11.743  26.048  0.00  0.00    +0.000 OA
ATOM     34  H   UNL     1       4.118  11.707  25.852  0.00  0.00    +0.000 HD
ENDBRANCH  32  33
ENDBRANCH  30  32
ENDBRANCH  29  30
ENDBRANCH  23  29
ENDBRANCH  22  26
ENDBRANCH   1  22
TORSDOF 10
ENDMDL
MODEL 2
REMARK VINA RESULT:      -7.8      0.757      1.294
REMARK  Name = 
REMARK  10 active torsions:
REMARK  status: ('A' for Active; 'I' for Inactive)
REMARK    1  A    between atoms: C_2  and  O_3
REMARK    2  A    between atoms: C_2  and  C_4
REMARK    3  A    between atoms: C_4  and  C_5
REMARK    4  A    between atoms: C_5  and  C_6
REMARK    5  A    between atoms: C_9  and  C_10
REMARK    6  A    between atoms: C_10  and  N_11
REMARK    7  A    between atoms: C_12  and  C_14
REMARK    8  A    between atoms: C_17  and  C_18
REMARK    9  A    between atoms: C_18  and  N_19
REMARK   10  A    between atoms: C_20  and  C_22
REMARK                            x       y       z     vdW  Elec       q    Type
REMARK                         _______ _______ _______ _____ _____    ______ ____
ROOT
ATOM      1  N   UNL     1       9.545   9.933  19.519  0.00  0.00    +0.000 N 
ATOM      2  C   UNL     1       8.696   9.736  18.451  0.00  0.00    +0.000 C 
ATOM      3  O   UNL     1       8.391  10.617  17.656  0.00  0.00    +0.000 OA
ATOM      4  H   UNL     1       9.954   9.128  19.973  0.00  0.00    +0.000 HD
ENDROOT
BRANCH   2   5
ATOM      5  C   UNL     1       8.169   8.349  18.280  0.00  0.00    +0.000 A 
ATOM      6  C   UNL     1       8.488   7.331  19.188  0.00  0.00    +0.000 A 
ATOM      7  C   UNL     1       8.001   6.035  18.994  0.00  0.00    +0.000 A 
ATOM      8  C   UNL     1       7.189   5.730  17.892  0.00  0.00    +0.000 A 
ATOM      9  C   UNL     1       6.832   6.762  17.012  0.00  0.00    +0.000 A 
ATOM     10  C   UNL     1       7.318   8.063  17.205  0.00  0.00    +0.000 A 
BRANCH   8  11
ATOM     11  C   UNL     1       6.697   4.319  17.684  0.00  0.00    +0.000 C 
BRANCH  11  12
ATOM     12  N   UNL     1       5.460   4.075  18.383  0.00  0.00    +0.000 N 
ATOM     13  C   UNL     1       4.265   3.994  17.696  0.00  0.00    +0.000 C 
ATOM     14  O   UNL     1       4.175   4.125  16.479  0.00  0.00    +0.000 OA
ATOM     15  H   UNL     1       5.507   3.747  19.338  0.00  0.00    +0.000 HD
BRANCH  13  16
ATOM     16  C   UNL     1       3.060   3.690  18.518  0.00  0.00    +0.000 A 
ATOM     17  C   UNL     1       2.080   2.799  18.061  0.00  0.00    +0.000 A 
ATOM     18  C   UNL     1       0.948   2.546  18.839  0.00  0.00    +0.000 A 
ATOM     19  C   UNL     1       0.794   3.173  20.075  0.00  0.00    +0.000 A 
ATOM     20  C   UNL     1       1.781   4.040  20.546  0.00  0.00    +0.000 A 
ATOM     21  C   UNL     1       2.917   4.294  19.772  0.00  0.00    +0.000 A 
ENDBRANCH  13  16
ENDBRANCH  11  12
ENDBRANCH   8  11
ENDBRANCH   2   5
BRANCH   1  22
ATOM     22  C   UNL     1      10.168  11.214  19.776  0.00  0.00    +0.000 C 
BRANCH  22  26
ATOM     23  C   UNL     1       8.406  13.108  23.262  0.00  0.00    +0.000 A 
ATOM     24  C   UNL     1       9.263  13.825  22.416  0.00  0.00    +0.000 A 
ATOM     25  C   UNL     1       9.821  13.221  21.282  0.00  0.00    +0.000 A 
ATOM     26  C   UNL     1       9.538  11.885  20.972  0.00  0.00    +0.000 A 
ATOM     27  C   UNL     1       8.692  11.164  21.825  0.00  0.00    +0.000 A 
ATOM     28  C   UNL     1       8.128  11.770  22.954  0.00  0.00    +0.000 A 
BRANCH  23  29
ATOM     29  C   UNL     1       7.822  13.748  24.502  0.00  0.00    +0.000 C 
BRANCH  29  30
ATOM     30  C   UNL     1       6.317  13.990  24.392  0.00  0.00    +0.000 C 
BRANCH  30  32
ATOM     31  O   UNL     1       5.378  11.939  25.295  0.00  0.00    +0.000 OA
ATOM     32  C   UNL     1       5.547  13.144  25.377  0.00  0.00    +0.000 C 
BRANCH  32  33
ATOM     33  O   UNL     1       5.051  13.874  26.404  0.00  0.00    +0.000 OA
ATOM     34  H   UNL     1       4.384  13.402  26.940  0.00  0.00    +0.000 HD
ENDBRANCH  32  33
ENDBRANCH  30  32
ENDBRANCH  29  30
ENDBRANCH  23  29
ENDBRANCH  22  26
ENDBRANCH   1  22
TORSDOF 10
ENDMDL
MODEL 3
REMARK VINA RESULT:      -7.8      7.192     11.368
REMARK  Name = 
REMARK  10 active torsions:
REMARK  status: ('A' for Active; 'I' for Inactive)
REMARK    1  A    between atoms: C_2  and  O_3
REMARK    2  A    between atoms: C_2  and  C_4
REMARK    3  A    between atoms: C_4  and  C_5
REMARK    4  A    between atoms: C_5  and  C_6
REMARK    5  A    between atoms: C_9  and  C_10
REMARK    6  A    between atoms: C_10  and  N_11
REMARK    7  A    between atoms: C_12  and  C_14
REMARK    8  A    between atoms: C_17  and  C_18
REMARK    9  A    between atoms: C_18  and  N_19
REMARK   10  A    between atoms: C_20  and  C_22
REMARK                            x       y       z     vdW  Elec       q    Type
REMARK                         _______ _______ _______ _____ _____    ______ ____
ROOT
ATOM      1  N   UNL     1       2.663   7.142  19.252  0.00  0.00    +0.000 N 
ATOM      2  C   UNL     1       1.731   7.499  20.203  0.00  0.00    +0.000 C 
ATOM      3  O   UNL     1       1.481   6.824  21.195  0.00  0.00    +0.000 OA
ATOM      4  H   UNL     1       3.003   7.846  18.613  0.00  0.00    +0.000 HD
ENDROOT
BRANCH   2   5
ATOM      5  C   UNL     1       1.037   8.802  19.982  0.00  0.00    +0.000 A 
ATOM      6  C   UNL     1       0.214   9.366  20.966  0.00  0.00    +0.000 A 
ATOM      7  C   UNL     1      -0.444  10.576  20.726  0.00  0.00    +0.000 A 
ATOM      8  C   UNL     1      -0.294  11.245  19.503  0.00  0.00    +0.000 A 
ATOM      9  C   UNL     1       0.569  10.703  18.540  0.00  0.00    +0.000 A 
ATOM     10  C   UNL     1       1.230   9.490  18.778  0.00  0.00    +0.000 A 
BRANCH   8  11
ATOM     11  C   UNL     1      -1.035  12.536  19.252  0.00  0.00    +0.000 C 
BRANCH  11  12
ATOM     12  N   UNL     1      -2.452  12.320  19.103  0.00  0.00    +0.000 N 
ATOM     13  C   UNL     1      -3.330  12.667  20.110  0.00  0.00    +0.000 C 
ATOM     14  O   UNL     1      -2.973  13.166  21.174  0.00  0.00    +0.000 OA
ATOM     15  H   UNL     1      -2.811  12.122  18.179  0.00  0.00    +0.000 HD
BRANCH  13  16
ATOM     16  C   UNL     1      -4.774  12.443  19.823  0.00  0.00    +0.000 A 
ATOM     17  C   UNL     1      -5.224  12.216  18.516  0.00  0.00    +0.000 A 
ATOM     18  C   UNL     1      -6.586  12.030  18.267  0.00  0.00    +0.000 A 
ATOM     19  C   UNL     1      -7.499  12.060  19.320  0.00  0.00    +0.000 A 
ATOM     20  C   UNL     1      -7.053  12.258  20.627  0.00  0.00    +0.000 A 
ATOM     21  C   UNL     1      -5.690  12.443  20.881  0.00  0.00    +0.000 A 
ENDBRANCH  13  16
ENDBRANCH  11  12
ENDBRANCH   8  11
ENDBRANCH   2   5
BRANCH   1  22
ATOM     22  C   UNL     1       3.446   5.930  19.365  0.00  0.00    +0.000 C 
BRANCH  22  26
ATOM     23  C   UNL     1       5.546   5.083  15.661  0.00  0.00    +0.000 A 
ATOM     24  C   UNL     1       5.203   4.047  16.541  0.00  0.00    +0.000 A 
ATOM     25  C   UNL     1       4.512   4.315  17.729  0.00  0.00    +0.000 A 
ATOM     26  C   UNL     1       4.154   5.626  18.067  0.00  0.00    +0.000 A 
ATOM     27  C   UNL     1       4.509   6.664  17.194  0.00  0.00    +0.000 A 
ATOM     28  C   UNL     1       5.192   6.394  16.002  0.00  0.00    +0.000 A 
BRANCH  23  29
ATOM     29  C   UNL     1       6.315   4.800  14.389  0.00  0.00    +0.000 C 
BRANCH  29  30
ATOM     30  C   UNL     1       5.621   3.777  13.491  0.00  0.00    +0.000 C 
BRANCH  30  32
ATOM     31  O   UNL     1       7.252   4.198  11.740  0.00  0.00    +0.000 OA
ATOM     32  C   UNL     1       6.460   3.444  12.281  0.00  0.00    +0.000 C 
BRANCH  32  33
ATOM     33  O   UNL     1       6.249   2.182  11.841  0.00  0.00    +0.000 OA
ATOM     34  H   UNL     1       6.613   2.006  10.951  0.00  0.00    +0.000 HD
ENDBRANCH  32  33
ENDBRANCH  30  32
ENDBRANCH  29  30
ENDBRANCH  23  29
ENDBRANCH  22  26
ENDBRANCH   1  22
TORSDOF 10
ENDMDL
MODEL 4
REMARK VINA RESULT:      -7.8      5.614     11.387
REMARK  Name = 
REMARK  10 active torsions:
REMARK  status: ('A' for Active; 'I' for Inactive)
REMARK    1  A    between atoms: C_2  and  O_3
REMARK    2  A    between atoms: C_2  and  C_4
REMARK    3  A    between atoms: C_4  and  C_5
REMARK    4  A    between atoms: C_5  and  C_6
REMARK    5  A    between atoms: C_9  and  C_10
REMARK    6  A    between atoms: C_10  and  N_11
REMARK    7  A    between atoms: C_12  and  C_14
REMARK    8  A    between atoms: C_17  and  C_18
REMARK    9  A    between atoms: C_18  and  N_19
REMARK   10  A    between atoms: C_20  and  C_22
REMARK                            x       y       z     vdW  Elec       q    Type
REMARK                         _______ _______ _______ _____ _____    ______ ____
ROOT
ATOM      1  N   UNL     1       5.074   6.093  18.045  0.00  0.00    +0.000 N 
ATOM      2  C   UNL     1       3.815   5.819  18.537  0.00  0.00    +0.000 C 
ATOM      3  O   UNL     1       3.406   4.685  18.760  0.00  0.00    +0.000 OA
ATOM      4  H   UNL     1       5.437   7.031  18.128  0.00  0.00    +0.000 HD
ENDROOT
BRANCH   2   5
ATOM      5  C   UNL     1       2.952   7.003  18.824  0.00  0.00    +0.000 A 
ATOM      6  C   UNL     1       2.267   7.129  20.039  0.00  0.00    +0.000 A 
ATOM      7  C   UNL     1       1.447   8.237  20.276  0.00  0.00    +0.000 A 
ATOM      8  C   UNL     1       1.295   9.237  19.305  0.00  0.00    +0.000 A 
ATOM      9  C   UNL     1       2.021   9.133  18.110  0.00  0.00    +0.000 A 
ATOM     10  C   UNL     1       2.845   8.023  17.871  0.00  0.00    +0.000 A 
BRANCH   8  11
ATOM     11  C   UNL     1       0.383  10.411  19.568  0.00  0.00    +0.000 C 
BRANCH  11  12
ATOM     12  N   UNL     1       0.908  11.632  19.010  0.00  0.00    +0.000 N 
ATOM     13  C   UNL     1       1.445  12.608  19.826  0.00  0.00    +0.000 C 
ATOM     14  O   UNL     1       1.506  12.508  21.047  0.00  0.00    +0.000 OA
ATOM     15  H   UNL     1       1.080  11.668  18.014  0.00  0.00    +0.000 HD
BRANCH  13  16
ATOM     16  C   UNL     1       2.001  13.804  19.133  0.00  0.00    +0.000 A 
ATOM     17  C   UNL     1       3.171  13.717  18.368  0.00  0.00    +0.000 A 
ATOM     18  C   UNL     1       3.687  14.856  17.746  0.00  0.00    +0.000 A 
ATOM     19  C   UNL     1       3.033  16.080  17.876  0.00  0.00    +0.000 A 
ATOM     20  C   UNL     1       1.852  16.166  18.614  0.00  0.00    +0.000 A 
ATOM     21  C   UNL     1       1.331  15.028  19.237  0.00  0.00    +0.000 A 
ENDBRANCH  13  16
ENDBRANCH  11  12
ENDBRANCH   8  11
ENDBRANCH   2   5
BRANCH   1  22
ATOM     22  C   UNL     1       6.033   5.044  17.770  0.00  0.00    +0.000 C 
BRANCH  22  26
ATOM     23  C   UNL     1       6.262   4.148  13.528  0.00  0.00    +0.000 A 
ATOM     24  C   UNL     1       5.114   3.828  14.265  0.00  0.00    +0.000 A 
ATOM     25  C   UNL     1       5.031   4.130  15.629  0.00  0.00    +0.000 A 
ATOM     26  C   UNL     1       6.097   4.753  16.290  0.00  0.00    +0.000 A 
ATOM     27  C   UNL     1       7.251   5.060  15.557  0.00  0.00    +0.000 A 
ATOM     28  C   UNL     1       7.331   4.766  14.190  0.00  0.00    +0.000 A 
BRANCH  23  29
ATOM     29  C   UNL     1       6.366   3.801  12.060  0.00  0.00    +0.000 C 
BRANCH  29  30
ATOM     30  C   UNL     1       5.661   2.491  11.708  0.00  0.00    +0.000 C 
BRANCH  30  32
ATOM     31  O   UNL     1       7.820   1.618  11.016  0.00  0.00    +0.000 OA
ATOM     32  C   UNL     1       6.647   1.427  11.287  0.00  0.00    +0.000 C 
BRANCH  32  33
ATOM     33  O   UNL     1       6.088   0.195  11.247  0.00  0.00    +0.000 OA
ATOM     34  H   UNL     1       6.198  -0.262  10.391  0.00  0.00    +0.000 HD
ENDBRANCH  32  33
ENDBRANCH  30  32
ENDBRANCH  29  30
ENDBRANCH  23  29
ENDBRANCH  22  26
ENDBRANCH   1  22
TORSDOF 10
ENDMDL
MODEL 5
REMARK VINA RESULT:      -7.7      7.209     11.743
REMARK  Name = 
REMARK  10 active torsions:
REMARK  status: ('A' for Active; 'I' for Inactive)
REMARK    1  A    between atoms: C_2  and  O_3
REMARK    2  A    between atoms: C_2  and  C_4
REMARK    3  A    between atoms: C_4  and  C_5
REMARK    4  A    between atoms: C_5  and  C_6
REMARK    5  A    between atoms: C_9  and  C_10
REMARK    6  A    between atoms: C_10  and  N_11
REMARK    7  A    between atoms: C_12  and  C_14
REMARK    8  A    between atoms: C_17  and  C_18
REMARK    9  A    between atoms: C_18  and  N_19
REMARK   10  A    between atoms: C_20  and  C_22
REMARK                            x       y       z     vdW  Elec       q    Type
REMARK                         _______ _______ _______ _____ _____    ______ ____
ROOT
ATOM      1  N   UNL     1       0.996   8.517  20.754  0.00  0.00    +0.000 N 
ATOM      2  C   UNL     1       1.053   9.467  21.752  0.00  0.00    +0.000 C 
ATOM      3  O   UNL     1       1.664   9.309  22.803  0.00  0.00    +0.000 OA
ATOM      4  H   UNL     1       0.705   8.798  19.829  0.00  0.00    +0.000 HD
ENDROOT
BRANCH   2   5
ATOM      5  C   UNL     1       0.341  10.749  21.477  0.00  0.00    +0.000 A 
ATOM      6  C   UNL     1      -0.793  11.125  22.208  0.00  0.00    +0.000 A 
ATOM      7  C   UNL     1      -1.457  12.321  21.917  0.00  0.00    +0.000 A 
ATOM      8  C   UNL     1      -1.002  13.162  20.891  0.00  0.00    +0.000 A 
ATOM      9  C   UNL     1       0.162  12.807  20.194  0.00  0.00    +0.000 A 
ATOM     10  C   UNL     1       0.829  11.609  20.485  0.00  0.00    +0.000 A 
BRANCH   8  11
ATOM     11  C   UNL     1      -1.748  14.435  20.572  0.00  0.00    +0.000 C 
BRANCH  11  12
ATOM     12  N   UNL     1      -1.123  15.168  19.500  0.00  0.00    +0.000 N 
ATOM     13  C   UNL     1      -0.595  16.425  19.718  0.00  0.00    +0.000 C 
ATOM     14  O   UNL     1      -0.625  16.990  20.807  0.00  0.00    +0.000 OA
ATOM     15  H   UNL     1      -0.881  14.667  18.656  0.00  0.00    +0.000 HD
BRANCH  13  16
ATOM     16  C   UNL     1       0.069  17.065  18.548  0.00  0.00    +0.000 A 
ATOM     17  C   UNL     1       1.439  16.890  18.310  0.00  0.00    +0.000 A 
ATOM     18  C   UNL     1       2.045  17.518  17.220  0.00  0.00    +0.000 A 
ATOM     19  C   UNL     1       1.288  18.312  16.360  0.00  0.00    +0.000 A 
ATOM     20  C   UNL     1      -0.082  18.466  16.577  0.00  0.00    +0.000 A 
ATOM     21  C   UNL     1      -0.693  17.839  17.666  0.00  0.00    +0.000 A 
ENDBRANCH  13  16
ENDBRANCH  11  12
ENDBRANCH   8  11
ENDBRANCH   2   5
BRANCH   1  22
ATOM     22  C   UNL     1       1.682   7.247  20.865  0.00  0.00    +0.000 C 
BRANCH  22  26
ATOM     23  C   UNL     1       4.188   6.515  17.397  0.00  0.00    +0.000 A 
ATOM     24  C   UNL     1       3.335   7.626  17.441  0.00  0.00    +0.000 A 
ATOM     25  C   UNL     1       2.537   7.873  18.564  0.00  0.00    +0.000 A 
ATOM     26  C   UNL     1       2.570   7.012  19.667  0.00  0.00    +0.000 A 
ATOM     27  C   UNL     1       3.413   5.894  19.619  0.00  0.00    +0.000 A 
ATOM     28  C   UNL     1       4.217   5.651  18.499  0.00  0.00    +0.000 A 
BRANCH  23  29
ATOM     29  C   UNL     1       5.033   6.230  16.175  0.00  0.00    +0.000 C 
BRANCH  29  30
ATOM     30  C   UNL     1       5.652   4.832  16.195  0.00  0.00    +0.000 C 
BRANCH  30  32
ATOM     31  O   UNL     1       7.672   5.365  14.956  0.00  0.00    +0.000 OA
ATOM     32  C   UNL     1       7.139   4.881  15.940  0.00  0.00    +0.000 C 
BRANCH  32  33
ATOM     33  O   UNL     1       7.851   4.326  16.948  0.00  0.00    +0.000 OA
ATOM     34  H   UNL     1       7.326   3.744  17.531  0.00  0.00    +0.000 HD
ENDBRANCH  32  33
ENDBRANCH  30  32
ENDBRANCH  29  30
ENDBRANCH  23  29
ENDBRANCH  22  26
ENDBRANCH   1  22
TORSDOF 10
ENDMDL
MODEL 6
REMARK VINA RESULT:      -7.6      6.412     10.833
REMARK  Name = 
REMARK  10 active torsions:
REMARK  status: ('A' for Active; 'I' for Inactive)
REMARK    1  A    between atoms: C_2  and  O_3
REMARK    2  A    between atoms: C_2  and  C_4
REMARK    3  A    between atoms: C_4  and  C_5
REMARK    4  A    between atoms: C_5  and  C_6
REMARK    5  A    between atoms: C_9  and  C_10
REMARK    6  A    between atoms: C_10  and  N_11
REMARK    7  A    between atoms: C_12  and  C_14
REMARK    8  A    between atoms: C_17  and  C_18
REMARK    9  A    between atoms: C_18  and  N_19
REMARK   10  A    between atoms: C_20  and  C_22
REMARK                            x       y       z     vdW  Elec       q    Type
REMARK                         _______ _______ _______ _____ _____    ______ ____
ROOT
ATOM      1  N   UNL     1       3.750   6.095  19.918  0.00  0.00    +0.000 N 
ATOM      2  C   UNL     1       2.415   6.225  19.598  0.00  0.00    +0.000 C 
ATOM      3  O   UNL     1       1.728   5.305  19.170  0.00  0.00    +0.000 OA
ATOM      4  H   UNL     1       4.185   6.799  20.497  0.00  0.00    +0.000 HD
ENDROOT
BRANCH   2   5
ATOM      5  C   UNL     1       1.815   7.572  19.830  0.00  0.00    +0.000 A 
ATOM      6  C   UNL     1       1.681   8.501  18.790  0.00  0.00    +0.000 A 
ATOM      7  C   UNL     1       1.137   9.765  19.037  0.00  0.00    +0.000 A 
ATOM      8  C   UNL     1       0.717  10.125  20.326  0.00  0.00    +0.000 A 
ATOM      9  C   UNL     1       0.806   9.177  21.354  0.00  0.00    +0.000 A 
ATOM     10  C   UNL     1       1.351   7.908  21.108  0.00  0.00    +0.000 A 
BRANCH   8  11
ATOM     11  C   UNL     1       0.157  11.505  20.579  0.00  0.00    +0.000 C 
BRANCH  11  12
ATOM     12  N   UNL     1      -1.266  11.555  20.355  0.00  0.00    +0.000 N 
ATOM     13  C   UNL     1      -1.777  12.039  19.167  0.00  0.00    +0.000 C 
ATOM     14  O   UNL     1      -1.075  12.453  18.249  0.00  0.00    +0.000 OA
ATOM     15  H   UNL     1      -1.866  11.032  20.977  0.00  0.00    +0.000 HD
BRANCH  13  16
ATOM     16  C   UNL     1      -3.259  11.997  19.030  0.00  0.00    +0.000 A 
ATOM     17  C   UNL     1      -4.092  12.558  20.008  0.00  0.00    +0.000 A 
ATOM     18  C   UNL     1      -5.480  12.487  19.870  0.00  0.00    +0.000 A 
ATOM     19  C   UNL     1      -6.040  11.866  18.754  0.00  0.00    +0.000 A 
ATOM     20  C   UNL     1      -5.215  11.330  17.764  0.00  0.00    +0.000 A 
ATOM     21  C   UNL     1      -3.825  11.401  17.898  0.00  0.00    +0.000 A 
ENDBRANCH  13  16
ENDBRANCH  11  12
ENDBRANCH   8  11
ENDBRANCH   2   5
BRANCH   1  22
ATOM     22  C   UNL     1       4.448   4.833  19.790  0.00  0.00    +0.000 C 
BRANCH  22  26
ATOM     23  C   UNL     1       6.210   4.366  15.850  0.00  0.00    +0.000 A 
ATOM     24  C   UNL     1       4.954   3.815  16.141  0.00  0.00    +0.000 A 
ATOM     25  C   UNL     1       4.377   3.978  17.406  0.00  0.00    +0.000 A 
ATOM     26  C   UNL     1       5.044   4.689  18.411  0.00  0.00    +0.000 A 
ATOM     27  C   UNL     1       6.305   5.228  18.124  0.00  0.00    +0.000 A 
ATOM     28  C   UNL     1       6.880   5.073  16.857  0.00  0.00    +0.000 A 
BRANCH  23  29
ATOM     29  C   UNL     1       6.849   4.171  14.493  0.00  0.00    +0.000 C 
BRANCH  29  30
ATOM     30  C   UNL     1       5.832   3.846  13.399  0.00  0.00    +0.000 C 
BRANCH  30  32
ATOM     31  O   UNL     1       7.296   4.035  11.469  0.00  0.00    +0.000 OA
ATOM     32  C   UNL     1       6.511   3.380  12.133  0.00  0.00    +0.000 C 
BRANCH  32  33
ATOM     33  O   UNL     1       6.160   2.116  11.798  0.00  0.00    +0.000 OA
ATOM     34  H   UNL     1       5.199   1.991  11.678  0.00  0.00    +0.000 HD
ENDBRANCH  32  33
ENDBRANCH  30  32
ENDBRANCH  29  30
ENDBRANCH  23  29
ENDBRANCH  22  26
ENDBRANCH   1  22
TORSDOF 10
ENDMDL
MODEL 7
REMARK VINA RESULT:      -7.6      8.205     11.626
REMARK  Name = 
REMARK  10 active torsions:
REMARK  status: ('A' for Active; 'I' for Inactive)
REMARK    1  A    between atoms: C_2  and  O_3
REMARK    2  A    between atoms: C_2  and  C_4
REMARK    3  A    between atoms: C_4  and  C_5
REMARK    4  A    between atoms: C_5  and  C_6
REMARK    5  A    between atoms: C_9  and  C_10
REMARK    6  A    between atoms: C_10  and  N_11
REMARK    7  A    between atoms: C_12  and  C_14
REMARK    8  A    between atoms: C_17  and  C_18
REMARK    9  A    between atoms: C_18  and  N_19
REMARK   10  A    between atoms: C_20  and  C_22
REMARK                            x       y       z     vdW  Elec       q    Type
REMARK                         _______ _______ _______ _____ _____    ______ ____
ROOT
ATOM      1  N   UNL     1       1.271   9.147  17.970  0.00  0.00    +0.000 N 
ATOM      2  C   UNL     1       0.889  10.440  18.260  0.00  0.00    +0.000 C 
ATOM      3  O   UNL     1       1.681  11.357  18.445  0.00  0.00    +0.000 OA
ATOM      4  H   UNL     1       0.590   8.512  17.581  0.00  0.00    +0.000 HD
ENDROOT
BRANCH   2   5
ATOM      5  C   UNL     1      -0.582  10.692  18.311  0.00  0.00    +0.000 A 
ATOM      6  C   UNL     1      -1.466  10.031  17.449  0.00  0.00    +0.000 A 
ATOM      7  C   UNL     1      -2.837  10.300  17.501  0.00  0.00    +0.000 A 
ATOM      8  C   UNL     1      -3.351  11.233  18.413  0.00  0.00    +0.000 A 
ATOM      9  C   UNL     1      -2.470  11.857  19.308  0.00  0.00    +0.000 A 
ATOM     10  C   UNL     1      -1.095  11.588  19.258  0.00  0.00    +0.000 A 
BRANCH   8  11
ATOM     11  C   UNL     1      -4.831  11.532  18.435  0.00  0.00    +0.000 C 
BRANCH  11  12
ATOM     12  N   UNL     1      -5.196  12.344  19.568  0.00  0.00    +0.000 N 
ATOM     13  C   UNL     1      -6.061  11.863  20.531  0.00  0.00    +0.000 C 
ATOM     14  O   UNL     1      -6.566  10.745  20.488  0.00  0.00    +0.000 OA
ATOM     15  H   UNL     1      -4.647  13.170  19.761  0.00  0.00    +0.000 HD
BRANCH  13  16
ATOM     16  C   UNL     1      -6.327  12.772  21.680  0.00  0.00    +0.000 A 
ATOM     17  C   UNL     1      -5.276  13.292  22.449  0.00  0.00    +0.000 A 
ATOM     18  C   UNL     1      -5.551  14.125  23.536  0.00  0.00    +0.000 A 
ATOM     19  C   UNL     1      -6.869  14.449  23.854  0.00  0.00    +0.000 A 
ATOM     20  C   UNL     1      -7.916  13.957  23.074  0.00  0.00    +0.000 A 
ATOM     21  C   UNL     1      -7.647  13.124  21.984  0.00  0.00    +0.000 A 
ENDBRANCH  13  16
ENDBRANCH  11  12
ENDBRANCH   8  11
ENDBRANCH   2   5
BRANCH   1  22
ATOM     22  C   UNL     1       2.663   8.772  17.840  0.00  0.00    +0.000 C 
BRANCH  22  26
ATOM     23  C   UNL     1       3.348   4.698  19.171  0.00  0.00    +0.000 A 
ATOM     24  C   UNL     1       2.450   5.530  19.852  0.00  0.00    +0.000 A 
ATOM     25  C   UNL     1       2.215   6.840  19.416  0.00  0.00    +0.000 A 
ATOM     26  C   UNL     1       2.878   7.348  18.292  0.00  0.00    +0.000 A 
ATOM     27  C   UNL     1       3.787   6.521  17.619  0.00  0.00    +0.000 A 
ATOM     28  C   UNL     1       4.015   5.209  18.050  0.00  0.00    +0.000 A 
BRANCH  23  29
ATOM     29  C   UNL     1       3.624   3.291  19.654  0.00  0.00    +0.000 C 
BRANCH  29  30
ATOM     30  C   UNL     1       2.360   2.560  20.106  0.00  0.00    +0.000 C 
BRANCH  30  32
ATOM     31  O   UNL     1       0.293   2.166  18.892  0.00  0.00    +0.000 OA
ATOM     32  C   UNL     1       1.512   2.141  18.930  0.00  0.00    +0.000 C 
BRANCH  32  33
ATOM     33  O   UNL     1       2.258   1.728  17.879  0.00  0.00    +0.000 OA
ATOM     34  H   UNL     1       1.859   0.994  17.373  0.00  0.00    +0.000 HD
ENDBRANCH  32  33
ENDBRANCH  30  32
ENDBRANCH  29  30
ENDBRANCH  23  29
ENDBRANCH  22  26
ENDBRANCH   1  22
TORSDOF 10
ENDMDL
MODEL 8
REMARK VINA RESULT:      -7.5      3.179      3.687
REMARK  Name = 
REMARK  10 active torsions:
REMARK  status: ('A' for Active; 'I' for Inactive)
REMARK    1  A    between atoms: C_2  and  O_3
REMARK    2  A    between atoms: C_2  and  C_4
REMARK    3  A    between atoms: C_4  and  C_5
REMARK    4  A    between atoms: C_5  and  C_6
REMARK    5  A    between atoms: C_9  and  C_10
REMARK    6  A    between atoms: C_10  and  N_11
REMARK    7  A    between atoms: C_12  and  C_14
REMARK    8  A    between atoms: C_17  and  C_18
REMARK    9  A    between atoms: C_18  and  N_19
REMARK   10  A    between atoms: C_20  and  C_22
REMARK                            x       y       z     vdW  Elec       q    Type
REMARK                         _______ _______ _______ _____ _____    ______ ____
ROOT
ATOM      1  N   UNL     1       9.194  10.622  17.736  0.00  0.00    +0.000 N 
ATOM      2  C   UNL     1       8.967   9.750  18.780  0.00  0.00    +0.000 C 
ATOM      3  O   UNL     1       9.261   9.994  19.944  0.00  0.00    +0.000 OA
ATOM      4  H   UNL     1       8.706  10.479  16.864  0.00  0.00    +0.000 HD
ENDROOT
BRANCH   2   5
ATOM      5  C   UNL     1       8.297   8.463  18.423  0.00  0.00    +0.000 A 
ATOM      6  C   UNL     1       7.455   8.364  17.309  0.00  0.00    +0.000 A 
ATOM      7  C   UNL     1       6.822   7.154  17.008  0.00  0.00    +0.000 A 
ATOM      8  C   UNL     1       7.016   6.023  17.814  0.00  0.00    +0.000 A 
ATOM      9  C   UNL     1       7.898   6.113  18.901  0.00  0.00    +0.000 A 
ATOM     10  C   UNL     1       8.535   7.325  19.203  0.00  0.00    +0.000 A 
BRANCH   8  11
ATOM     11  C   UNL     1       6.301   4.733  17.491  0.00  0.00    +0.000 C 
BRANCH  11  12
ATOM     12  N   UNL     1       5.287   4.424  18.467  0.00  0.00    +0.000 N 
ATOM     13  C   UNL     1       4.023   4.033  18.072  0.00  0.00    +0.000 C 
ATOM     14  O   UNL     1       3.684   3.930  16.896  0.00  0.00    +0.000 OA
ATOM     15  H   UNL     1       5.573   4.283  19.426  0.00  0.00    +0.000 HD
BRANCH  13  16
ATOM     16  C   UNL     1       3.074   3.693  19.168  0.00  0.00    +0.000 A 
ATOM     17  C   UNL     1       1.744   4.133  19.136  0.00  0.00    +0.000 A 
ATOM     18  C   UNL     1       0.878   3.821  20.186  0.00  0.00    +0.000 A 
ATOM     19  C   UNL     1       1.331   3.061  21.263  0.00  0.00    +0.000 A 
ATOM     20  C   UNL     1       2.646   2.596  21.286  0.00  0.00    +0.000 A 
ATOM     21  C   UNL     1       3.516   2.905  20.237  0.00  0.00    +0.000 A 
ENDBRANCH  13  16
ENDBRANCH  11  12
ENDBRANCH   8  11
ENDBRANCH   2   5
BRANCH   1  22
ATOM     22  C   UNL     1       9.789  11.925  17.944  0.00  0.00    +0.000 C 
BRANCH  22  26
ATOM     23  C   UNL     1       6.682  14.857  18.710  0.00  0.00    +0.000 A 
ATOM     24  C   UNL     1       7.684  14.614  19.659  0.00  0.00    +0.000 A 
ATOM     25  C   UNL     1       8.696  13.680  19.408  0.00  0.00    +0.000 A 
ATOM     26  C   UNL     1       8.726  12.964  18.205  0.00  0.00    +0.000 A 
ATOM     27  C   UNL     1       7.716  13.197  17.262  0.00  0.00    +0.000 A 
ATOM     28  C   UNL     1       6.709  14.137  17.509  0.00  0.00    +0.000 A 
BRANCH  23  29
ATOM     29  C   UNL     1       5.571  15.847  18.987  0.00  0.00    +0.000 C 
BRANCH  29  30
ATOM     30  C   UNL     1       4.295  15.178  19.498  0.00  0.00    +0.000 C 
BRANCH  30  32
ATOM     31  O   UNL     1       2.474  16.003  18.117  0.00  0.00    +0.000 OA
ATOM     32  C   UNL     1       3.240  15.103  18.421  0.00  0.00    +0.000 C 
BRANCH  32  33
ATOM     33  O   UNL     1       3.230  13.904  17.794  0.00  0.00    +0.000 OA
ATOM     34  H   UNL     1       2.483  13.787  17.175  0.00  0.00    +0.000 HD
ENDBRANCH  32  33
ENDBRANCH  30  32
ENDBRANCH  29  30
ENDBRANCH  23  29
ENDBRANCH  22  26
ENDBRANCH   1  22
TORSDOF 10
ENDMDL
MODEL 9
REMARK VINA RESULT:      -7.5      5.346     11.126
REMARK  Name = 
REMARK  10 active torsions:
REMARK  status: ('A' for Active; 'I' for Inactive)
REMARK    1  A    between atoms: C_2  and  O_3
REMARK    2  A    between atoms: C_2  and  C_4
REMARK    3  A    between atoms: C_4  and  C_5
REMARK    4  A    between atoms: C_5  and  C_6
REMARK    5  A    between atoms: C_9  and  C_10
REMARK    6  A    between atoms: C_10  and  N_11
REMARK    7  A    between atoms: C_12  and  C_14
REMARK    8  A    between atoms: C_17  and  C_18
REMARK    9  A    between atoms: C_18  and  N_19
REMARK   10  A    between atoms: C_20  and  C_22
REMARK                            x       y       z     vdW  Elec       q    Type
REMARK                         _______ _______ _______ _____ _____    ______ ____
ROOT
ATOM      1  N   UNL     1       4.874   5.676  18.547  0.00  0.00    +0.000 N 
ATOM      2  C   UNL     1       3.540   5.459  18.821  0.00  0.00    +0.000 C 
ATOM      3  O   UNL     1       3.017   4.350  18.809  0.00  0.00    +0.000 OA
ATOM      4  H   UNL     1       5.292   6.553  18.821  0.00  0.00    +0.000 HD
ENDROOT
BRANCH   2   5
ATOM      5  C   UNL     1       2.739   6.668  19.175  0.00  0.00    +0.000 A 
ATOM      6  C   UNL     1       2.601   7.738  18.282  0.00  0.00    +0.000 A 
ATOM      7  C   UNL     1       1.864   8.870  18.646  0.00  0.00    +0.000 A 
ATOM      8  C   UNL     1       1.254   8.955  19.905  0.00  0.00    +0.000 A 
ATOM      9  C   UNL     1       1.353   7.862  20.777  0.00  0.00    +0.000 A 
ATOM     10  C   UNL     1       2.090   6.725  20.415  0.00  0.00    +0.000 A 
BRANCH   8  11
ATOM     11  C   UNL     1       0.486  10.197  20.290  0.00  0.00    +0.000 C 
BRANCH  11  12
ATOM     12  N   UNL     1       0.989  11.367  19.615  0.00  0.00    +0.000 N 
ATOM     13  C   UNL     1       1.181  12.550  20.301  0.00  0.00    +0.000 C 
ATOM     14  O   UNL     1       0.941  12.683  21.497  0.00  0.00    +0.000 OA
ATOM     15  H   UNL     1       1.402  11.251  18.700  0.00  0.00    +0.000 HD
BRANCH  13  16
ATOM     16  C   UNL     1       1.750  13.676  19.510  0.00  0.00    +0.000 A 
ATOM     17  C   UNL     1       2.895  13.500  18.721  0.00  0.00    +0.000 A 
ATOM     18  C   UNL     1       3.424  14.577  18.006  0.00  0.00    +0.000 A 
ATOM     19  C   UNL     1       2.809  15.827  18.067  0.00  0.00    +0.000 A 
ATOM     20  C   UNL     1       1.653  16.000  18.830  0.00  0.00    +0.000 A 
ATOM     21  C   UNL     1       1.119  14.925  19.546  0.00  0.00    +0.000 A 
ENDBRANCH  13  16
ENDBRANCH  11  12
ENDBRANCH   8  11
ENDBRANCH   2   5
BRANCH   1  22
ATOM     22  C   UNL     1       5.778   4.589  18.237  0.00  0.00    +0.000 C 
BRANCH  22  26
ATOM     23  C   UNL     1       6.406   4.378  13.947  0.00  0.00    +0.000 A 
ATOM     24  C   UNL     1       7.343   5.009  14.776  0.00  0.00    +0.000 A 
ATOM     25  C   UNL     1       7.151   5.065  16.162  0.00  0.00    +0.000 A 
ATOM     26  C   UNL     1       6.014   4.497  16.749  0.00  0.00    +0.000 A 
ATOM     27  C   UNL     1       5.070   3.877  15.919  0.00  0.00    +0.000 A 
ATOM     28  C   UNL     1       5.266   3.814  14.535  0.00  0.00    +0.000 A 
BRANCH  23  29
ATOM     29  C   UNL     1       6.597   4.337  12.447  0.00  0.00    +0.000 C 
BRANCH  29  30
ATOM     30  C   UNL     1       6.962   2.945  11.932  0.00  0.00    +0.000 C 
BRANCH  30  32
ATOM     31  O   UNL     1       4.623   2.618  11.364  0.00  0.00    +0.000 OA
ATOM     32  C   UNL     1       5.732   2.152  11.561  0.00  0.00    +0.000 C 
BRANCH  32  33
ATOM     33  O   UNL     1       5.988   0.827  11.453  0.00  0.00    +0.000 OA
ATOM     34  H   UNL     1       6.632   0.604  10.754  0.00  0.00    +0.000 HD
ENDBRANCH  32  33
ENDBRANCH  30  32
ENDBRANCH  29  30
ENDBRANCH  23  29
ENDBRANCH  22  26
ENDBRANCH   1  22
TORSDOF 10
ENDMDL
