MODEL 1
REMARK VINA RESULT:      -8.6      0.000      0.000
REMARK  Name = 
REMARK  5 active torsions:
REMARK  status: ('A' for Active; 'I' for Inactive)
REMARK    1  A    between atoms: C_5  and  C_6
REMARK    2  A    between atoms: C_6  and  S_7
REMARK    3  A    between atoms: S_7  and  C_8
REMARK    4  A    between atoms: C_11  and  C_12
REMARK    5  A    between atoms: C_13  and  C_14
REMARK                            x       y       z     vdW  Elec       q    Type
REMARK                         _______ _______ _______ _____ _____    ______ ____
ROOT
ATOM      1  C   UNL     1       6.701   5.846  16.996  0.00  0.00    +0.000 A 
ATOM      2  N   UNL     1       6.104   6.865  16.426  0.00  0.00    +0.000 NA
ATOM      3  N   UNL     1       6.735   8.001  16.900  0.00  0.00    +0.000 NA
ATOM      4  C   UNL     1       7.694   7.617  17.732  0.00  0.00    +0.000 A 
ATOM      5  O   UNL     1       7.714   6.237  17.826  0.00  0.00    +0.000 OA
ENDROOT
BRANCH   4   6
ATOM      6  C   UNL     1       8.573   8.478  18.452  0.00  0.00    +0.000 C 
ATOM      7  C   UNL     1       8.640   9.797  18.204  0.00  0.00    +0.000 C 
BRANCH   7   8
ATOM      8  C   UNL     1       9.558  10.728  18.890  0.00  0.00    +0.000 A 
ATOM      9  C   UNL     1       9.388  10.958  20.264  0.00  0.00    +0.000 A 
ATOM     10  C   UNL     1      10.231  11.837  20.956  0.00  0.00    +0.000 A 
ATOM     11  C   UNL     1      11.261  12.487  20.282  0.00  0.00    +0.000 A 
ATOM     12  C   UNL     1      11.461  12.248  18.926  0.00  0.00    +0.000 A 
ATOM     13  C   UNL     1      10.620  11.368  18.236  0.00  0.00    +0.000 A 
ENDBRANCH   7   8
ENDBRANCH   4   6
BRANCH   1  14
ATOM     14  S   UNL     1       6.262   4.176  16.810  0.00  0.00    +0.000 S 
BRANCH  14  15
ATOM     15  C   UNL     1       4.478   4.301  16.488  0.00  0.00    +0.000 C 
BRANCH  15  20
ATOM     16 CL   UNL     1       1.262   2.715  21.361  0.00  0.00    +0.000 Cl
ATOM     17  C   UNL     1       2.176   3.180  19.981  0.00  0.00    +0.000 A 
ATOM     18  C   UNL     1       2.867   2.217  19.253  0.00  0.00    +0.000 A 
ATOM     19  C   UNL     1       3.612   2.593  18.133  0.00  0.00    +0.000 A 
ATOM     20  C   UNL     1       3.680   3.942  17.726  0.00  0.00    +0.000 A 
ATOM     21  C   UNL     1       2.963   4.894  18.474  0.00  0.00    +0.000 A 
ATOM     22 CL   UNL     1       2.955   6.569  18.048  0.00  0.00    +0.000 Cl
ATOM     23  C   UNL     1       2.219   4.515  19.596  0.00  0.00    +0.000 A 
ENDBRANCH  15  20
ENDBRANCH  14  15
ENDBRANCH   1  14
TORSDOF 5
ENDMDL
MODEL 2
REMARK VINA RESULT:      -8.6      1.326      1.418
REMARK  Name = 
REMARK  5 active torsions:
REMARK  status: ('A' for Active; 'I' for Inactive)
REMARK    1  A    between atoms: C_5  and  C_6
REMARK    2  A    between atoms: C_6  and  S_7
REMARK    3  A    between atoms: S_7  and  C_8
REMARK    4  A    between atoms: C_11  and  C_12
REMARK    5  A    between atoms: C_13  and  C_14
REMARK                            x       y       z     vdW  Elec       q    Type
REMARK                         _______ _______ _______ _____ _____    ______ ____
ROOT
ATOM      1  C   UNL     1       7.214   5.652  17.171  0.00  0.00    +0.000 A 
ATOM      2  N   UNL     1       7.594   5.464  18.413  0.00  0.00    +0.000 NA
ATOM      3  N   UNL     1       8.008   6.697  18.884  0.00  0.00    +0.000 NA
ATOM      4  C   UNL     1       7.852   7.579  17.906  0.00  0.00    +0.000 A 
ATOM      5  O   UNL     1       7.341   6.956  16.783  0.00  0.00    +0.000 OA
ENDROOT
BRANCH   4   6
ATOM      6  C   UNL     1       8.176   8.967  17.971  0.00  0.00    +0.000 C 
ATOM      7  C   UNL     1       9.061   9.452  18.858  0.00  0.00    +0.000 C 
BRANCH   7   8
ATOM      8  C   UNL     1       9.404  10.881  18.996  0.00  0.00    +0.000 A 
ATOM      9  C   UNL     1       9.853  11.353  20.239  0.00  0.00    +0.000 A 
ATOM     10  C   UNL     1      10.185  12.702  20.418  0.00  0.00    +0.000 A 
ATOM     11  C   UNL     1      10.084  13.591  19.352  0.00  0.00    +0.000 A 
ATOM     12  C   UNL     1       9.668  13.133  18.105  0.00  0.00    +0.000 A 
ATOM     13  C   UNL     1       9.339  11.785  17.926  0.00  0.00    +0.000 A 
ENDBRANCH   7   8
ENDBRANCH   4   6
BRANCH   1  14
ATOM     14  S   UNL     1       6.665   4.419  16.078  0.00  0.00    +0.000 S 
BRANCH  14  15
ATOM     15  C   UNL     1       4.966   4.965  15.737  0.00  0.00    +0.000 C 
BRANCH  15  20
ATOM     16 CL   UNL     1       1.315   3.811  20.422  0.00  0.00    +0.000 Cl
ATOM     17  C   UNL     1       2.355   4.152  19.096  0.00  0.00    +0.000 A 
ATOM     18  C   UNL     1       2.822   3.112  18.298  0.00  0.00    +0.000 A 
ATOM     19  C   UNL     1       3.670   3.388  17.222  0.00  0.00    +0.000 A 
ATOM     20  C   UNL     1       4.067   4.710  16.931  0.00  0.00    +0.000 A 
ATOM     21  C   UNL     1       3.572   5.743  17.748  0.00  0.00    +0.000 A 
ATOM     22 CL   UNL     1       3.973   7.400  17.464  0.00  0.00    +0.000 Cl
ATOM     23  C   UNL     1       2.725   5.464  18.825  0.00  0.00    +0.000 A 
ENDBRANCH  15  20
ENDBRANCH  14  15
ENDBRANCH   1  14
TORSDOF 5
ENDMDL
MODEL 3
REMARK VINA RESULT:      -8.4      1.102      1.136
REMARK  Name = 
REMARK  5 active torsions:
REMARK  status: ('A' for Active; 'I' for Inactive)
REMARK    1  A    between atoms: C_5  and  C_6
REMARK    2  A    between atoms: C_6  and  S_7
REMARK    3  A    between atoms: S_7  and  C_8
REMARK    4  A    between atoms: C_11  and  C_12
REMARK    5  A    between atoms: C_13  and  C_14
REMARK                            x       y       z     vdW  Elec       q    Type
REMARK                         _______ _______ _______ _____ _____    ______ ____
ROOT
ATOM      1  C   UNL     1       7.350   6.241  17.673  0.00  0.00    +0.000 A 
ATOM      2  N   UNL     1       7.032   7.029  16.674  0.00  0.00    +0.000 NA
ATOM      3  N   UNL     1       7.544   8.277  16.984  0.00  0.00    +0.000 NA
ATOM      4  C   UNL     1       8.157   8.185  18.157  0.00  0.00    +0.000 A 
ATOM      5  O   UNL     1       8.063   6.893  18.641  0.00  0.00    +0.000 OA
ENDROOT
BRANCH   4   6
ATOM      6  C   UNL     1       8.807   9.250  18.847  0.00  0.00    +0.000 C 
ATOM      7  C   UNL     1       8.990  10.458  18.287  0.00  0.00    +0.000 C 
BRANCH   7   8
ATOM      8  C   UNL     1       9.689  11.583  18.939  0.00  0.00    +0.000 A 
ATOM      9  C   UNL     1       9.882  11.546  20.328  0.00  0.00    +0.000 A 
ATOM     10  C   UNL     1      10.535  12.593  20.991  0.00  0.00    +0.000 A 
ATOM     11  C   UNL     1      11.013  13.682  20.269  0.00  0.00    +0.000 A 
ATOM     12  C   UNL     1      10.855  13.721  18.887  0.00  0.00    +0.000 A 
ATOM     13  C   UNL     1      10.204  12.673  18.225  0.00  0.00    +0.000 A 
ENDBRANCH   7   8
ENDBRANCH   4   6
BRANCH   1  14
ATOM     14  S   UNL     1       6.895   4.573  17.837  0.00  0.00    +0.000 S 
BRANCH  14  15
ATOM     15  C   UNL     1       5.545   4.443  16.629  0.00  0.00    +0.000 C 
BRANCH  15  20
ATOM     16 CL   UNL     1       0.326   2.898  19.272  0.00  0.00    +0.000 Cl
ATOM     17  C   UNL     1       1.808   3.351  18.527  0.00  0.00    +0.000 A 
ATOM     18  C   UNL     1       2.677   2.368  18.064  0.00  0.00    +0.000 A 
ATOM     19  C   UNL     1       3.883   2.735  17.460  0.00  0.00    +0.000 A 
ATOM     20  C   UNL     1       4.239   4.091  17.315  0.00  0.00    +0.000 A 
ATOM     21  C   UNL     1       3.337   5.065  17.783  0.00  0.00    +0.000 A 
ATOM     22 CL   UNL     1       3.662   6.756  17.631  0.00  0.00    +0.000 Cl
ATOM     23  C   UNL     1       2.132   4.696  18.388  0.00  0.00    +0.000 A 
ENDBRANCH  15  20
ENDBRANCH  14  15
ENDBRANCH   1  14
TORSDOF 5
ENDMDL
MODEL 4
REMARK VINA RESULT:      -8.3      1.638      2.229
REMARK  Name = 
REMARK  5 active torsions:
REMARK  status: ('A' for Active; 'I' for Inactive)
REMARK    1  A    between atoms: C_5  and  C_6
REMARK    2  A    between atoms: C_6  and  S_7
REMARK    3  A    between atoms: S_7  and  C_8
REMARK    4  A    between atoms: C_11  and  C_12
REMARK    5  A    between atoms: C_13  and  C_14
REMARK                            x       y       z     vdW  Elec       q    Type
REMARK                         _______ _______ _______ _____ _____    ______ ____
ROOT
ATOM      1  C   UNL     1       6.640   6.009  16.926  0.00  0.00    +0.000 A 
ATOM      2  N   UNL     1       7.282   5.576  17.986  0.00  0.00    +0.000 NA
ATOM      3  N   UNL     1       7.958   6.667  18.504  0.00  0.00    +0.000 NA
ATOM      4  C   UNL     1       7.688   7.714  17.736  0.00  0.00    +0.000 A 
ATOM      5  O   UNL     1       6.841   7.343  16.708  0.00  0.00    +0.000 OA
ENDROOT
BRANCH   4   6
ATOM      6  C   UNL     1       8.199   9.034  17.912  0.00  0.00    +0.000 C 
ATOM      7  C   UNL     1       8.985   9.363  18.950  0.00  0.00    +0.000 C 
BRANCH   7   8
ATOM      8  C   UNL     1       9.510  10.720  19.203  0.00  0.00    +0.000 A 
ATOM      9  C   UNL     1       9.741  11.121  20.527  0.00  0.00    +0.000 A 
ATOM     10  C   UNL     1      10.233  12.401  20.815  0.00  0.00    +0.000 A 
ATOM     11  C   UNL     1      10.510  13.288  19.780  0.00  0.00    +0.000 A 
ATOM     12  C   UNL     1      10.313  12.896  18.459  0.00  0.00    +0.000 A 
ATOM     13  C   UNL     1       9.824  11.616  18.173  0.00  0.00    +0.000 A 
ENDBRANCH   7   8
ENDBRANCH   4   6
BRANCH   1  14
ATOM     14  S   UNL     1       5.684   5.038  15.851  0.00  0.00    +0.000 S 
BRANCH  14  15
ATOM     15  C   UNL     1       4.783   3.978  17.019  0.00  0.00    +0.000 C 
BRANCH  15  20
ATOM     16 CL   UNL     1       1.512   7.450  20.743  0.00  0.00    +0.000 Cl
ATOM     17  C   UNL     1       2.439   6.451  19.693  0.00  0.00    +0.000 A 
ATOM     18  C   UNL     1       2.725   6.883  18.402  0.00  0.00    +0.000 A 
ATOM     19  C   UNL     1       3.475   6.072  17.547  0.00  0.00    +0.000 A 
ATOM     20  C   UNL     1       3.948   4.813  17.972  0.00  0.00    +0.000 A 
ATOM     21  C   UNL     1       3.654   4.405  19.286  0.00  0.00    +0.000 A 
ATOM     22 CL   UNL     1       4.207   2.893  19.916  0.00  0.00    +0.000 Cl
ATOM     23  C   UNL     1       2.901   5.218  20.139  0.00  0.00    +0.000 A 
ENDBRANCH  15  20
ENDBRANCH  14  15
ENDBRANCH   1  14
TORSDOF 5
ENDMDL
MODEL 5
REMARK VINA RESULT:      -8.2      1.469      1.752
REMARK  Name = 
REMARK  5 active torsions:
REMARK  status: ('A' for Active; 'I' for Inactive)
REMARK    1  A    between atoms: C_5  and  C_6
REMARK    2  A    between atoms: C_6  and  S_7
REMARK    3  A    between atoms: S_7  and  C_8
REMARK    4  A    between atoms: C_11  and  C_12
REMARK    5  A    between atoms: C_13  and  C_14
REMARK                            x       y       z     vdW  Elec       q    Type
REMARK                         _______ _______ _______ _____ _____    ______ ____
ROOT
ATOM      1  C   UNL     1       7.058   5.128  17.382  0.00  0.00    +0.000 A 
ATOM      2  N   UNL     1       7.056   4.798  18.652  0.00  0.00    +0.000 NA
ATOM      3  N   UNL     1       7.618   5.864  19.332  0.00  0.00    +0.000 NA
ATOM      4  C   UNL     1       7.929   6.797  18.442  0.00  0.00    +0.000 A 
ATOM      5  O   UNL     1       7.585   6.372  17.171  0.00  0.00    +0.000 OA
ENDROOT
BRANCH   4   6
ATOM      6  C   UNL     1       8.545   8.051  18.724  0.00  0.00    +0.000 C 
ATOM      7  C   UNL     1       8.232   9.168  18.045  0.00  0.00    +0.000 C 
BRANCH   7   8
ATOM      8  C   UNL     1       8.865  10.483  18.268  0.00  0.00    +0.000 A 
ATOM      9  C   UNL     1       8.366  11.600  17.579  0.00  0.00    +0.000 A 
ATOM     10  C   UNL     1       8.939  12.867  17.755  0.00  0.00    +0.000 A 
ATOM     11  C   UNL     1      10.007  13.032  18.631  0.00  0.00    +0.000 A 
ATOM     12  C   UNL     1      10.495  11.940  19.342  0.00  0.00    +0.000 A 
ATOM     13  C   UNL     1       9.921  10.675  19.169  0.00  0.00    +0.000 A 
ENDBRANCH   7   8
ENDBRANCH   4   6
BRANCH   1  14
ATOM     14  S   UNL     1       6.526   4.123  16.070  0.00  0.00    +0.000 S 
BRANCH  14  15
ATOM     15  C   UNL     1       4.885   4.818  15.719  0.00  0.00    +0.000 C 
BRANCH  15  20
ATOM     16 CL   UNL     1       1.070   3.839  20.312  0.00  0.00    +0.000 Cl
ATOM     17  C   UNL     1       2.158   4.131  19.013  0.00  0.00    +0.000 A 
ATOM     18  C   UNL     1       2.559   3.077  18.198  0.00  0.00    +0.000 A 
ATOM     19  C   UNL     1       3.446   3.311  17.144  0.00  0.00    +0.000 A 
ATOM     20  C   UNL     1       3.947   4.605  16.892  0.00  0.00    +0.000 A 
ATOM     21  C   UNL     1       3.516   5.654  17.724  0.00  0.00    +0.000 A 
ATOM     22 CL   UNL     1       4.047   7.282  17.487  0.00  0.00    +0.000 Cl
ATOM     23  C   UNL     1       2.631   5.417  18.780  0.00  0.00    +0.000 A 
ENDBRANCH  15  20
ENDBRANCH  14  15
ENDBRANCH   1  14
TORSDOF 5
ENDMDL
MODEL 6
REMARK VINA RESULT:      -8.2      1.704      2.701
REMARK  Name = 
REMARK  5 active torsions:
REMARK  status: ('A' for Active; 'I' for Inactive)
REMARK    1  A    between atoms: C_5  and  C_6
REMARK    2  A    between atoms: C_6  and  S_7
REMARK    3  A    between atoms: S_7  and  C_8
REMARK    4  A    between atoms: C_11  and  C_12
REMARK    5  A    between atoms: C_13  and  C_14
REMARK                            x       y       z     vdW  Elec       q    Type
REMARK                         _______ _______ _______ _____ _____    ______ ____
ROOT
ATOM      1  C   UNL     1       6.447   5.369  17.624  0.00  0.00    +0.000 A 
ATOM      2  N   UNL     1       7.103   5.341  16.488  0.00  0.00    +0.000 NA
ATOM      3  N   UNL     1       7.718   6.575  16.363  0.00  0.00    +0.000 NA
ATOM      4  C   UNL     1       7.412   7.292  17.436  0.00  0.00    +0.000 A 
ATOM      5  O   UNL     1       6.597   6.559  18.280  0.00  0.00    +0.000 OA
ENDROOT
BRANCH   4   6
ATOM      6  C   UNL     1       7.830   8.631  17.695  0.00  0.00    +0.000 C 
ATOM      7  C   UNL     1       8.722   8.926  18.656  0.00  0.00    +0.000 C 
BRANCH   7   8
ATOM      8  C   UNL     1       9.161  10.295  18.993  0.00  0.00    +0.000 A 
ATOM      9  C   UNL     1       9.172  11.270  17.985  0.00  0.00    +0.000 A 
ATOM     10  C   UNL     1       9.587  12.581  18.257  0.00  0.00    +0.000 A 
ATOM     11  C   UNL     1       9.982  12.932  19.544  0.00  0.00    +0.000 A 
ATOM     12  C   UNL     1       9.949  11.983  20.562  0.00  0.00    +0.000 A 
ATOM     13  C   UNL     1       9.533  10.675  20.290  0.00  0.00    +0.000 A 
ENDBRANCH   7   8
ENDBRANCH   4   6
BRANCH   1  14
ATOM     14  S   UNL     1       5.437   4.101  18.246  0.00  0.00    +0.000 S 
BRANCH  14  15
ATOM     15  C   UNL     1       3.818   4.551  17.556  0.00  0.00    +0.000 C 
BRANCH  15  20
ATOM     16 CL   UNL     1       1.017   8.527  21.157  0.00  0.00    +0.000 Cl
ATOM     17  C   UNL     1       1.806   7.385  20.141  0.00  0.00    +0.000 A 
ATOM     18  C   UNL     1       2.363   7.802  18.936  0.00  0.00    +0.000 A 
ATOM     19  C   UNL     1       3.003   6.876  18.108  0.00  0.00    +0.000 A 
ATOM     20  C   UNL     1       3.091   5.516  18.473  0.00  0.00    +0.000 A 
ATOM     21  C   UNL     1       2.528   5.124  19.701  0.00  0.00    +0.000 A 
ATOM     22 CL   UNL     1       2.603   3.489  20.257  0.00  0.00    +0.000 Cl
ATOM     23  C   UNL     1       1.887   6.053  20.527  0.00  0.00    +0.000 A 
ENDBRANCH  15  20
ENDBRANCH  14  15
ENDBRANCH   1  14
TORSDOF 5
ENDMDL
MODEL 7
REMARK VINA RESULT:      -8.1      1.414      1.648
REMARK  Name = 
REMARK  5 active torsions:
REMARK  status: ('A' for Active; 'I' for Inactive)
REMARK    1  A    between atoms: C_5  and  C_6
REMARK    2  A    between atoms: C_6  and  S_7
REMARK    3  A    between atoms: S_7  and  C_8
REMARK    4  A    between atoms: C_11  and  C_12
REMARK    5  A    between atoms: C_13  and  C_14
REMARK                            x       y       z     vdW  Elec       q    Type
REMARK                         _______ _______ _______ _____ _____    ______ ____
ROOT
ATOM      1  C   UNL     1       7.339   6.594  17.756  0.00  0.00    +0.000 A 
ATOM      2  N   UNL     1       6.809   7.413  16.879  0.00  0.00    +0.000 NA
ATOM      3  N   UNL     1       7.370   8.655  17.117  0.00  0.00    +0.000 NA
ATOM      4  C   UNL     1       8.223   8.530  18.125  0.00  0.00    +0.000 A 
ATOM      5  O   UNL     1       8.242   7.220  18.570  0.00  0.00    +0.000 OA
ENDROOT
BRANCH   4   6
ATOM      6  C   UNL     1       9.003   9.578  18.697  0.00  0.00    +0.000 C 
ATOM      7  C   UNL     1       9.265  10.716  18.034  0.00  0.00    +0.000 C 
BRANCH   7   8
ATOM      8  C   UNL     1      10.097  11.816  18.561  0.00  0.00    +0.000 A 
ATOM      9  C   UNL     1      11.183  11.504  19.394  0.00  0.00    +0.000 A 
ATOM     10  C   UNL     1      11.996  12.516  19.922  0.00  0.00    +0.000 A 
ATOM     11  C   UNL     1      11.739  13.848  19.612  0.00  0.00    +0.000 A 
ATOM     12  C   UNL     1      10.684  14.171  18.765  0.00  0.00    +0.000 A 
ATOM     13  C   UNL     1       9.873  13.160  18.236  0.00  0.00    +0.000 A 
ENDBRANCH   7   8
ENDBRANCH   4   6
BRANCH   1  14
ATOM     14  S   UNL     1       6.938   4.916  17.953  0.00  0.00    +0.000 S 
BRANCH  14  15
ATOM     15  C   UNL     1       5.938   4.955  19.469  0.00  0.00    +0.000 C 
BRANCH  15  20
ATOM     16 CL   UNL     1       0.635   2.193  18.545  0.00  0.00    +0.000 Cl
ATOM     17  C   UNL     1       2.135   2.991  18.807  0.00  0.00    +0.000 A 
ATOM     18  C   UNL     1       3.201   2.294  19.367  0.00  0.00    +0.000 A 
ATOM     19  C   UNL     1       4.420   2.942  19.583  0.00  0.00    +0.000 A 
ATOM     20  C   UNL     1       4.589   4.300  19.243  0.00  0.00    +0.000 A 
ATOM     21  C   UNL     1       3.499   4.978  18.668  0.00  0.00    +0.000 A 
ATOM     22 CL   UNL     1       3.606   6.636  18.190  0.00  0.00    +0.000 Cl
ATOM     23  C   UNL     1       2.279   4.328  18.455  0.00  0.00    +0.000 A 
ENDBRANCH  15  20
ENDBRANCH  14  15
ENDBRANCH   1  14
TORSDOF 5
ENDMDL
MODEL 8
REMARK VINA RESULT:      -8.1      1.501      1.800
REMARK  Name = 
REMARK  5 active torsions:
REMARK  status: ('A' for Active; 'I' for Inactive)
REMARK    1  A    between atoms: C_5  and  C_6
REMARK    2  A    between atoms: C_6  and  S_7
REMARK    3  A    between atoms: S_7  and  C_8
REMARK    4  A    between atoms: C_11  and  C_12
REMARK    5  A    between atoms: C_13  and  C_14
REMARK                            x       y       z     vdW  Elec       q    Type
REMARK                         _______ _______ _______ _____ _____    ______ ____
ROOT
ATOM      1  C   UNL     1       6.324   6.608  17.454  0.00  0.00    +0.000 A 
ATOM      2  N   UNL     1       7.144   6.087  18.335  0.00  0.00    +0.000 NA
ATOM      3  N   UNL     1       8.118   7.042  18.572  0.00  0.00    +0.000 NA
ATOM      4  C   UNL     1       7.837   8.103  17.827  0.00  0.00    +0.000 A 
ATOM      5  O   UNL     1       6.688   7.874  17.091  0.00  0.00    +0.000 OA
ENDROOT
BRANCH   4   6
ATOM      6  C   UNL     1       8.600   9.306  17.761  0.00  0.00    +0.000 C 
ATOM      7  C   UNL     1       8.920  10.009  18.860  0.00  0.00    +0.000 C 
BRANCH   7   8
ATOM      8  C   UNL     1       9.673  11.279  18.848  0.00  0.00    +0.000 A 
ATOM      9  C   UNL     1       9.108  12.395  18.212  0.00  0.00    +0.000 A 
ATOM     10  C   UNL     1       9.788  13.619  18.170  0.00  0.00    +0.000 A 
ATOM     11  C   UNL     1      11.035  13.742  18.776  0.00  0.00    +0.000 A 
ATOM     12  C   UNL     1      11.596  12.653  19.436  0.00  0.00    +0.000 A 
ATOM     13  C   UNL     1      10.914  11.431  19.479  0.00  0.00    +0.000 A 
ENDBRANCH   7   8
ENDBRANCH   4   6
BRANCH   1  14
ATOM     14  S   UNL     1       4.953   5.810  16.746  0.00  0.00    +0.000 S 
BRANCH  14  15
ATOM     15  C   UNL     1       3.578   6.564  17.663  0.00  0.00    +0.000 C 
BRANCH  15  20
ATOM     16 CL   UNL     1       1.350   2.599  21.653  0.00  0.00    +0.000 Cl
ATOM     17  C   UNL     1       1.982   3.737  20.529  0.00  0.00    +0.000 A 
ATOM     18  C   UNL     1       2.689   3.290  19.418  0.00  0.00    +0.000 A 
ATOM     19  C   UNL     1       3.205   4.214  18.505  0.00  0.00    +0.000 A 
ATOM     20  C   UNL     1       3.024   5.600  18.694  0.00  0.00    +0.000 A 
ATOM     21  C   UNL     1       2.296   6.023  19.821  0.00  0.00    +0.000 A 
ATOM     22 CL   UNL     1       1.993   7.696  20.134  0.00  0.00    +0.000 Cl
ATOM     23  C   UNL     1       1.782   5.097  20.734  0.00  0.00    +0.000 A 
ENDBRANCH  15  20
ENDBRANCH  14  15
ENDBRANCH   1  14
TORSDOF 5
ENDMDL
MODEL 9
REMARK VINA RESULT:      -8.1      1.437      1.579
REMARK  Name = 
REMARK  5 active torsions:
REMARK  status: ('A' for Active; 'I' for Inactive)
REMARK    1  A    between atoms: C_5  and  C_6
REMARK    2  A    between atoms: C_6  and  S_7
REMARK    3  A    between atoms: S_7  and  C_8
REMARK    4  A    between atoms: C_11  and  C_12
REMARK    5  A    between atoms: C_13  and  C_14
REMARK                            x       y       z     vdW  Elec       q    Type
REMARK                         _______ _______ _______ _____ _____    ______ ____
ROOT
ATOM      1  C   UNL     1       7.045   5.938  17.484  0.00  0.00    +0.000 A 
ATOM      2  N   UNL     1       7.691   5.921  18.625  0.00  0.00    +0.000 NA
ATOM      3  N   UNL     1       8.226   7.187  18.788  0.00  0.00    +0.000 NA
ATOM      4  C   UNL     1       7.873   7.916  17.739  0.00  0.00    +0.000 A 
ATOM      5  O   UNL     1       7.108   7.158  16.870  0.00  0.00    +0.000 OA
ENDROOT
BRANCH   4   6
ATOM      6  C   UNL     1       8.231   9.277  17.505  0.00  0.00    +0.000 C 
ATOM      7  C   UNL     1       9.111   9.927  18.286  0.00  0.00    +0.000 C 
BRANCH   7   8
ATOM      8  C   UNL     1       9.489  11.343  18.115  0.00  0.00    +0.000 A 
ATOM      9  C   UNL     1       8.515  12.334  18.315  0.00  0.00    +0.000 A 
ATOM     10  C   UNL     1       8.826  13.690  18.158  0.00  0.00    +0.000 A 
ATOM     11  C   UNL     1      10.119  14.072  17.813  0.00  0.00    +0.000 A 
ATOM     12  C   UNL     1      11.104  13.104  17.639  0.00  0.00    +0.000 A 
ATOM     13  C   UNL     1      10.792  11.749  17.798  0.00  0.00    +0.000 A 
ENDBRANCH   7   8
ENDBRANCH   4   6
BRANCH   1  14
ATOM     14  S   UNL     1       6.238   4.585  16.752  0.00  0.00    +0.000 S 
BRANCH  14  15
ATOM     15  C   UNL     1       4.507   5.137  16.775  0.00  0.00    +0.000 C 
BRANCH  15  20
ATOM     16 CL   UNL     1       1.672   2.936  21.647  0.00  0.00    +0.000 Cl
ATOM     17  C   UNL     1       2.474   3.575  20.266  0.00  0.00    +0.000 A 
ATOM     18  C   UNL     1       3.403   2.796  19.584  0.00  0.00    +0.000 A 
ATOM     19  C   UNL     1       4.057   3.315  18.464  0.00  0.00    +0.000 A 
ATOM     20  C   UNL     1       3.794   4.625  18.012  0.00  0.00    +0.000 A 
ATOM     21  C   UNL     1       2.843   5.387  18.714  0.00  0.00    +0.000 A 
ATOM     22 CL   UNL     1       2.425   6.993  18.230  0.00  0.00    +0.000 Cl
ATOM     23  C   UNL     1       2.191   4.866  19.836  0.00  0.00    +0.000 A 
ENDBRANCH  15  20
ENDBRANCH  14  15
ENDBRANCH   1  14
TORSDOF 5
ENDMDL
