MODEL 1
REMARK VINA RESULT:      -7.7      0.000      0.000
REMARK  Name = 
REMARK  12 active torsions:
REMARK  status: ('A' for Active; 'I' for Inactive)
REMARK    1  A    between atoms: C_1  and  O_2
REMARK    2  A    between atoms: O_2  and  C_3
REMARK    3  A    between atoms: C_5  and  O_6
REMARK    4  A    between atoms: O_6  and  C_7
REMARK    5  A    between atoms: C_7  and  C_8
REMARK    6  A    between atoms: C_9  and  C_10
REMARK    7  A    between atoms: C_9  and  C_11
REMARK    8  A    between atoms: C_15  and  C_16
REMARK    9  A    between atoms: N_21  and  C_22
REMARK   10  A    between atoms: C_22  and  C_23
REMARK   11  A    between atoms: C_24  and  C_25
REMARK   12  A    between atoms: C_24  and  C_26
REMARK                            x       y       z     vdW  Elec       q    Type
REMARK                         _______ _______ _______ _____ _____    ______ ____
ROOT
ATOM      1  C   UNL     1       2.819   4.859  17.776  0.00  0.00    +0.000 A 
ATOM      2  C   UNL     1       3.723   4.204  16.933  0.00  0.00    +0.000 A 
ATOM      3  C   UNL     1       5.040   4.655  16.766  0.00  0.00    +0.000 A 
ATOM      4  C   UNL     1       5.480   5.719  17.560  0.00  0.00    +0.000 A 
ATOM      5 BR   UNL     1       7.265   6.359  17.472  0.00  0.00    +0.000 Br
ATOM      6  C   UNL     1       4.603   6.355  18.448  0.00  0.00    +0.000 A 
ATOM      7  C   UNL     1       3.266   5.941  18.553  0.00  0.00    +0.000 A 
ENDROOT
BRANCH   7   8
ATOM      8  C   UNL     1       2.409   6.614  19.529  0.00  0.00    +0.000 C 
ATOM      9  C   UNL     1       1.894   7.838  19.347  0.00  0.00    +0.000 C 
ATOM     10  S   UNL     1       1.950   8.809  17.940  0.00  0.00    +0.000 S 
ATOM     11  C   UNL     1       1.386  10.228  18.801  0.00  0.00    +0.000 C 
ATOM     12  O   UNL     1       1.340  11.326  18.276  0.00  0.00    +0.000 OA
ATOM     13  N   UNL     1       1.085   9.900  20.099  0.00  0.00    +0.000 N 
ATOM     14  C   UNL     1       1.334   8.607  20.487  0.00  0.00    +0.000 C 
ATOM     15  O   UNL     1       1.217   8.153  21.619  0.00  0.00    +0.000 OA
BRANCH  13  16
ATOM     16  C   UNL     1       0.703  10.909  21.057  0.00  0.00    +0.000 C 
BRANCH  16  17
ATOM     17  C   UNL     1      -0.762  11.208  20.916  0.00  0.00    +0.000 C 
ATOM     18  C   UNL     1      -1.326  12.377  20.552  0.00  0.00    +0.000 C 
ATOM     19  C   UNL     1      -0.572  13.611  20.138  0.00  0.00    +0.000 C 
ATOM     20  C   UNL     1      -2.824  12.538  20.531  0.00  0.00    +0.000 C 
ENDBRANCH  16  17
ENDBRANCH  13  16
ENDBRANCH   7   8
BRANCH   1  22
ATOM     21  C   UNL     1       1.386   3.123  18.563  0.00  0.00    +0.000 C 
ATOM     22  O   UNL     1       1.570   4.296  17.776  0.00  0.00    +0.000 OA
ENDBRANCH   1  22
BRANCH   3  23
ATOM     23  O   UNL     1       5.913   4.120  15.843  0.00  0.00    +0.000 OA
BRANCH  23  24
ATOM     24  C   UNL     1       5.524   4.346  14.487  0.00  0.00    +0.000 C 
BRANCH  24  25
ATOM     25  C   UNL     1       6.432   3.661  13.512  0.00  0.00    +0.000 C 
ATOM     26  C   UNL     1       6.012   3.239  12.299  0.00  0.00    +0.000 C 
ATOM     27  C   UNL     1       4.591   3.366  11.811  0.00  0.00    +0.000 C 
ATOM     28  C   UNL     1       6.946   2.594  11.313  0.00  0.00    +0.000 C 
ENDBRANCH  24  25
ENDBRANCH  23  24
ENDBRANCH   3  23
TORSDOF 7
ENDMDL
MODEL 2
REMARK VINA RESULT:      -7.5      2.645      9.432
REMARK  Name = 
REMARK  12 active torsions:
REMARK  status: ('A' for Active; 'I' for Inactive)
REMARK    1  A    between atoms: C_1  and  O_2
REMARK    2  A    between atoms: O_2  and  C_3
REMARK    3  A    between atoms: C_5  and  O_6
REMARK    4  A    between atoms: O_6  and  C_7
REMARK    5  A    between atoms: C_7  and  C_8
REMARK    6  A    between atoms: C_9  and  C_10
REMARK    7  A    between atoms: C_9  and  C_11
REMARK    8  A    between atoms: C_15  and  C_16
REMARK    9  A    between atoms: N_21  and  C_22
REMARK   10  A    between atoms: C_22  and  C_23
REMARK   11  A    between atoms: C_24  and  C_25
REMARK   12  A    between atoms: C_24  and  C_26
REMARK                            x       y       z     vdW  Elec       q    Type
REMARK                         _______ _______ _______ _____ _____    ______ ____
ROOT
ATOM      1  C   UNL     1       2.078   6.132  20.232  0.00  0.00    +0.000 A 
ATOM      2  C   UNL     1       1.423   7.184  20.879  0.00  0.00    +0.000 A 
ATOM      3  C   UNL     1       1.318   8.458  20.301  0.00  0.00    +0.000 A 
ATOM      4  C   UNL     1       1.784   8.631  18.993  0.00  0.00    +0.000 A 
ATOM      5 BR   UNL     1       1.621  10.290  18.087  0.00  0.00    +0.000 Br
ATOM      6  C   UNL     1       2.396   7.572  18.310  0.00  0.00    +0.000 A 
ATOM      7  C   UNL     1       2.560   6.322  18.927  0.00  0.00    +0.000 A 
ENDROOT
BRANCH   7   8
ATOM      8  C   UNL     1       3.168   5.243  18.149  0.00  0.00    +0.000 C 
ATOM      9  C   UNL     1       4.404   5.303  17.632  0.00  0.00    +0.000 C 
ATOM     10  S   UNL     1       5.593   6.508  17.877  0.00  0.00    +0.000 S 
ATOM     11  C   UNL     1       6.590   5.900  16.568  0.00  0.00    +0.000 C 
ATOM     12  O   UNL     1       7.588   6.488  16.190  0.00  0.00    +0.000 OA
ATOM     13  N   UNL     1       6.039   4.755  16.052  0.00  0.00    +0.000 N 
ATOM     14  C   UNL     1       4.836   4.353  16.576  0.00  0.00    +0.000 C 
ATOM     15  O   UNL     1       4.151   3.415  16.187  0.00  0.00    +0.000 OA
BRANCH  13  16
ATOM     16  C   UNL     1       6.603   4.111  14.890  0.00  0.00    +0.000 C 
BRANCH  16  17
ATOM     17  C   UNL     1       5.522   3.864  13.877  0.00  0.00    +0.000 C 
ATOM     18  C   UNL     1       5.678   3.590  12.567  0.00  0.00    +0.000 C 
ATOM     19  C   UNL     1       6.999   3.404  11.871  0.00  0.00    +0.000 C 
ATOM     20  C   UNL     1       4.483   3.441  11.661  0.00  0.00    +0.000 C 
ENDBRANCH  16  17
ENDBRANCH  13  16
ENDBRANCH   7   8
BRANCH   1  22
ATOM     21  C   UNL     1       1.123   3.993  20.688  0.00  0.00    +0.000 C 
ATOM     22  O   UNL     1       2.112   4.978  20.971  0.00  0.00    +0.000 OA
ENDBRANCH   1  22
BRANCH   3  23
ATOM     23  O   UNL     1       0.804   9.551  20.964  0.00  0.00    +0.000 OA
BRANCH  23  24
ATOM     24  C   UNL     1      -0.223   9.222  21.903  0.00  0.00    +0.000 C 
BRANCH  24  25
ATOM     25  C   UNL     1      -0.592  10.384  22.773  0.00  0.00    +0.000 C 
ATOM     26  C   UNL     1      -1.016  11.564  22.271  0.00  0.00    +0.000 C 
ATOM     27  C   UNL     1      -1.122  11.859  20.795  0.00  0.00    +0.000 C 
ATOM     28  C   UNL     1      -1.428  12.706  23.157  0.00  0.00    +0.000 C 
ENDBRANCH  24  25
ENDBRANCH  23  24
ENDBRANCH   3  23
TORSDOF 7
ENDMDL
MODEL 3
REMARK VINA RESULT:      -7.1      2.614      9.059
REMARK  Name = 
REMARK  12 active torsions:
REMARK  status: ('A' for Active; 'I' for Inactive)
REMARK    1  A    between atoms: C_1  and  O_2
REMARK    2  A    between atoms: O_2  and  C_3
REMARK    3  A    between atoms: C_5  and  O_6
REMARK    4  A    between atoms: O_6  and  C_7
REMARK    5  A    between atoms: C_7  and  C_8
REMARK    6  A    between atoms: C_9  and  C_10
REMARK    7  A    between atoms: C_9  and  C_11
REMARK    8  A    between atoms: C_15  and  C_16
REMARK    9  A    between atoms: N_21  and  C_22
REMARK   10  A    between atoms: C_22  and  C_23
REMARK   11  A    between atoms: C_24  and  C_25
REMARK   12  A    between atoms: C_24  and  C_26
REMARK                            x       y       z     vdW  Elec       q    Type
REMARK                         _______ _______ _______ _____ _____    ______ ____
ROOT
ATOM      1  C   UNL     1       2.111   6.221  20.250  0.00  0.00    +0.000 A 
ATOM      2  C   UNL     1       1.476   7.327  20.825  0.00  0.00    +0.000 A 
ATOM      3  C   UNL     1       1.465   8.581  20.198  0.00  0.00    +0.000 A 
ATOM      4  C   UNL     1       2.005   8.683  18.912  0.00  0.00    +0.000 A 
ATOM      5 BR   UNL     1       1.971  10.314  17.942  0.00  0.00    +0.000 Br
ATOM      6  C   UNL     1       2.599   7.572  18.300  0.00  0.00    +0.000 A 
ATOM      7  C   UNL     1       2.669   6.340  18.967  0.00  0.00    +0.000 A 
ENDROOT
BRANCH   7   8
ATOM      8  C   UNL     1       3.262   5.204  18.261  0.00  0.00    +0.000 C 
ATOM      9  C   UNL     1       4.473   5.237  17.685  0.00  0.00    +0.000 C 
ATOM     10  S   UNL     1       5.650   6.475  17.770  0.00  0.00    +0.000 S 
ATOM     11  C   UNL     1       6.599   5.769  16.477  0.00  0.00    +0.000 C 
ATOM     12  O   UNL     1       7.570   6.335  16.005  0.00  0.00    +0.000 OA
ATOM     13  N   UNL     1       6.048   4.574  16.089  0.00  0.00    +0.000 N 
ATOM     14  C   UNL     1       4.876   4.203  16.699  0.00  0.00    +0.000 C 
ATOM     15  O   UNL     1       4.192   3.224  16.424  0.00  0.00    +0.000 OA
BRANCH  13  16
ATOM     16  C   UNL     1       6.573   3.838  14.964  0.00  0.00    +0.000 C 
BRANCH  16  17
ATOM     17  C   UNL     1       5.505   3.686  13.919  0.00  0.00    +0.000 C 
ATOM     18  C   UNL     1       5.675   3.570  12.587  0.00  0.00    +0.000 C 
ATOM     19  C   UNL     1       7.005   3.497  11.887  0.00  0.00    +0.000 C 
ATOM     20  C   UNL     1       4.490   3.500  11.659  0.00  0.00    +0.000 C 
ENDBRANCH  16  17
ENDBRANCH  13  16
ENDBRANCH   7   8
BRANCH   1  22
ATOM     21  C   UNL     1       1.122   4.086  20.645  0.00  0.00    +0.000 C 
ATOM     22  O   UNL     1       2.050   5.095  21.029  0.00  0.00    +0.000 OA
ENDBRANCH   1  22
BRANCH   3  23
ATOM     23  O   UNL     1       0.971   9.722  20.795  0.00  0.00    +0.000 OA
BRANCH  23  24
ATOM     24  C   UNL     1      -0.450   9.721  20.947  0.00  0.00    +0.000 C 
BRANCH  24  25
ATOM     25  C   UNL     1      -1.157  10.134  19.693  0.00  0.00    +0.000 C 
ATOM     26  C   UNL     1      -1.376  11.429  19.373  0.00  0.00    +0.000 C 
ATOM     27  C   UNL     1      -0.978  12.589  20.251  0.00  0.00    +0.000 C 
ATOM     28  C   UNL     1      -2.045  11.830  18.088  0.00  0.00    +0.000 C 
ENDBRANCH  24  25
ENDBRANCH  23  24
ENDBRANCH   3  23
TORSDOF 7
ENDMDL
MODEL 4
REMARK VINA RESULT:      -7.0      0.942      1.464
REMARK  Name = 
REMARK  12 active torsions:
REMARK  status: ('A' for Active; 'I' for Inactive)
REMARK    1  A    between atoms: C_1  and  O_2
REMARK    2  A    between atoms: O_2  and  C_3
REMARK    3  A    between atoms: C_5  and  O_6
REMARK    4  A    between atoms: O_6  and  C_7
REMARK    5  A    between atoms: C_7  and  C_8
REMARK    6  A    between atoms: C_9  and  C_10
REMARK    7  A    between atoms: C_9  and  C_11
REMARK    8  A    between atoms: C_15  and  C_16
REMARK    9  A    between atoms: N_21  and  C_22
REMARK   10  A    between atoms: C_22  and  C_23
REMARK   11  A    between atoms: C_24  and  C_25
REMARK   12  A    between atoms: C_24  and  C_26
REMARK                            x       y       z     vdW  Elec       q    Type
REMARK                         _______ _______ _______ _____ _____    ______ ____
ROOT
ATOM      1  C   UNL     1       3.125   4.850  17.817  0.00  0.00    +0.000 A 
ATOM      2  C   UNL     1       4.112   4.216  17.056  0.00  0.00    +0.000 A 
ATOM      3  C   UNL     1       5.443   4.656  17.056  0.00  0.00    +0.000 A 
ATOM      4  C   UNL     1       5.800   5.683  17.937  0.00  0.00    +0.000 A 
ATOM      5 BR   UNL     1       7.589   6.301  18.076  0.00  0.00    +0.000 Br
ATOM      6  C   UNL     1       4.834   6.295  18.745  0.00  0.00    +0.000 A 
ATOM      7  C   UNL     1       3.490   5.895  18.682  0.00  0.00    +0.000 A 
ENDROOT
BRANCH   7   8
ATOM      8  C   UNL     1       2.534   6.541  19.581  0.00  0.00    +0.000 C 
ATOM      9  C   UNL     1       1.942   7.715  19.317  0.00  0.00    +0.000 C 
ATOM     10  S   UNL     1       2.003   8.628  17.872  0.00  0.00    +0.000 S 
ATOM     11  C   UNL     1       1.291  10.034  18.638  0.00  0.00    +0.000 C 
ATOM     12  O   UNL     1       1.193  11.104  18.062  0.00  0.00    +0.000 OA
ATOM     13  N   UNL     1       0.944   9.739  19.932  0.00  0.00    +0.000 N 
ATOM     14  C   UNL     1       1.266   8.486  20.391  0.00  0.00    +0.000 C 
ATOM     15  O   UNL     1       1.121   8.071  21.534  0.00  0.00    +0.000 OA
BRANCH  13  16
ATOM     16  C   UNL     1       0.438  10.755  20.822  0.00  0.00    +0.000 C 
BRANCH  16  17
ATOM     17  C   UNL     1       1.473  11.829  21.002  0.00  0.00    +0.000 C 
ATOM     18  C   UNL     1       1.336  13.145  20.751  0.00  0.00    +0.000 C 
ATOM     19  C   UNL     1       0.067  13.815  20.299  0.00  0.00    +0.000 C 
ATOM     20  C   UNL     1       2.500  14.088  20.914  0.00  0.00    +0.000 C 
ENDBRANCH  16  17
ENDBRANCH  13  16
ENDBRANCH   7   8
BRANCH   1  22
ATOM     21  C   UNL     1       1.639   3.037  18.259  0.00  0.00    +0.000 C 
ATOM     22  O   UNL     1       1.879   4.304  17.654  0.00  0.00    +0.000 OA
ENDBRANCH   1  22
BRANCH   3  23
ATOM     23  O   UNL     1       6.410   4.145  16.218  0.00  0.00    +0.000 OA
BRANCH  23  24
ATOM     24  C   UNL     1       6.373   4.693  14.898  0.00  0.00    +0.000 C 
BRANCH  24  25
ATOM     25  C   UNL     1       5.666   3.796  13.929  0.00  0.00    +0.000 C 
ATOM     26  C   UNL     1       6.095   3.609  12.661  0.00  0.00    +0.000 C 
ATOM     27  C   UNL     1       7.294   4.309  12.070  0.00  0.00    +0.000 C 
ATOM     28  C   UNL     1       5.402   2.671  11.714  0.00  0.00    +0.000 C 
ENDBRANCH  24  25
ENDBRANCH  23  24
ENDBRANCH   3  23
TORSDOF 7
ENDMDL
MODEL 5
REMARK VINA RESULT:      -6.7      3.690      5.606
REMARK  Name = 
REMARK  12 active torsions:
REMARK  status: ('A' for Active; 'I' for Inactive)
REMARK    1  A    between atoms: C_1  and  O_2
REMARK    2  A    between atoms: O_2  and  C_3
REMARK    3  A    between atoms: C_5  and  O_6
REMARK    4  A    between atoms: O_6  and  C_7
REMARK    5  A    between atoms: C_7  and  C_8
REMARK    6  A    between atoms: C_9  and  C_10
REMARK    7  A    between atoms: C_9  and  C_11
REMARK    8  A    between atoms: C_15  and  C_16
REMARK    9  A    between atoms: N_21  and  C_22
REMARK   10  A    between atoms: C_22  and  C_23
REMARK   11  A    between atoms: C_24  and  C_25
REMARK   12  A    between atoms: C_24  and  C_26
REMARK                            x       y       z     vdW  Elec       q    Type
REMARK                         _______ _______ _______ _____ _____    ______ ____
ROOT
ATOM      1  C   UNL     1       0.625   8.842  20.295  0.00  0.00    +0.000 A 
ATOM      2  C   UNL     1       1.400   7.746  20.689  0.00  0.00    +0.000 A 
ATOM      3  C   UNL     1       2.337   7.156  19.829  0.00  0.00    +0.000 A 
ATOM      4  C   UNL     1       2.575   7.764  18.592  0.00  0.00    +0.000 A 
ATOM      5 BR   UNL     1       3.878   7.094  17.385  0.00  0.00    +0.000 Br
ATOM      6  C   UNL     1       1.845   8.894  18.203  0.00  0.00    +0.000 A 
ATOM      7  C   UNL     1       0.857   9.432  19.042  0.00  0.00    +0.000 A 
ENDROOT
BRANCH   7   8
ATOM      8  C   UNL     1       0.158  10.638  18.600  0.00  0.00    +0.000 C 
ATOM      9  C   UNL     1       0.547  11.882  18.915  0.00  0.00    +0.000 C 
ATOM     10  S   UNL     1       1.977  12.369  19.718  0.00  0.00    +0.000 S 
ATOM     11  C   UNL     1       1.380  14.000  19.957  0.00  0.00    +0.000 C 
ATOM     12  O   UNL     1       1.986  14.818  20.626  0.00  0.00    +0.000 OA
ATOM     13  N   UNL     1       0.163  14.149  19.341  0.00  0.00    +0.000 N 
ATOM     14  C   UNL     1      -0.372  13.035  18.744  0.00  0.00    +0.000 C 
ATOM     15  O   UNL     1      -1.480  12.949  18.227  0.00  0.00    +0.000 OA
BRANCH  13  16
ATOM     16  C   UNL     1      -0.601  15.366  19.478  0.00  0.00    +0.000 C 
BRANCH  16  17
ATOM     17  C   UNL     1      -0.174  16.350  18.427  0.00  0.00    +0.000 C 
ATOM     18  C   UNL     1      -0.793  17.495  18.080  0.00  0.00    +0.000 C 
ATOM     19  C   UNL     1      -2.021  18.053  18.746  0.00  0.00    +0.000 C 
ATOM     20  C   UNL     1      -0.275  18.341  16.946  0.00  0.00    +0.000 C 
ENDBRANCH  16  17
ENDBRANCH  13  16
ENDBRANCH   7   8
BRANCH   1  22
ATOM     21  C   UNL     1       0.234  10.117  22.274  0.00  0.00    +0.000 C 
ATOM     22  O   UNL     1      -0.262   9.253  21.255  0.00  0.00    +0.000 OA
ENDBRANCH   1  22
BRANCH   3  23
ATOM     23  O   UNL     1       3.017   5.995  20.131  0.00  0.00    +0.000 OA
BRANCH  23  24
ATOM     24  C   UNL     1       2.162   4.907  20.491  0.00  0.00    +0.000 C 
BRANCH  24  25
ATOM     25  C   UNL     1       2.582   3.618  19.855  0.00  0.00    +0.000 C 
ATOM     26  C   UNL     1       2.290   3.310  18.572  0.00  0.00    +0.000 C 
ATOM     27  C   UNL     1       1.478   4.197  17.660  0.00  0.00    +0.000 C 
ATOM     28  C   UNL     1       2.757   2.033  17.932  0.00  0.00    +0.000 C 
ENDBRANCH  24  25
ENDBRANCH  23  24
ENDBRANCH   3  23
TORSDOF 7
ENDMDL
MODEL 6
REMARK VINA RESULT:      -6.6      0.907      1.194
REMARK  Name = 
REMARK  12 active torsions:
REMARK  status: ('A' for Active; 'I' for Inactive)
REMARK    1  A    between atoms: C_1  and  O_2
REMARK    2  A    between atoms: O_2  and  C_3
REMARK    3  A    between atoms: C_5  and  O_6
REMARK    4  A    between atoms: O_6  and  C_7
REMARK    5  A    between atoms: C_7  and  C_8
REMARK    6  A    between atoms: C_9  and  C_10
REMARK    7  A    between atoms: C_9  and  C_11
REMARK    8  A    between atoms: C_15  and  C_16
REMARK    9  A    between atoms: N_21  and  C_22
REMARK   10  A    between atoms: C_22  and  C_23
REMARK   11  A    between atoms: C_24  and  C_25
REMARK   12  A    between atoms: C_24  and  C_26
REMARK                            x       y       z     vdW  Elec       q    Type
REMARK                         _______ _______ _______ _____ _____    ______ ____
ROOT
ATOM      1  C   UNL     1       3.420   5.283  17.405  0.00  0.00    +0.000 A 
ATOM      2  C   UNL     1       4.420   4.876  16.516  0.00  0.00    +0.000 A 
ATOM      3  C   UNL     1       5.619   5.589  16.375  0.00  0.00    +0.000 A 
ATOM      4  C   UNL     1       5.855   6.664  17.238  0.00  0.00    +0.000 A 
ATOM      5 BR   UNL     1       7.477   7.648  17.186  0.00  0.00    +0.000 Br
ATOM      6  C   UNL     1       4.885   7.053  18.171  0.00  0.00    +0.000 A 
ATOM      7  C   UNL     1       3.658   6.377  18.252  0.00  0.00    +0.000 A 
ENDROOT
BRANCH   7   8
ATOM      8  C   UNL     1       2.703   6.802  19.275  0.00  0.00    +0.000 C 
ATOM      9  C   UNL     1       2.025   7.957  19.226  0.00  0.00    +0.000 C 
ATOM     10  S   UNL     1       1.964   9.092  17.947  0.00  0.00    +0.000 S 
ATOM     11  C   UNL     1       1.195  10.303  18.955  0.00  0.00    +0.000 C 
ATOM     12  O   UNL     1       1.004  11.442  18.565  0.00  0.00    +0.000 OA
ATOM     13  N   UNL     1       0.926   9.780  20.195  0.00  0.00    +0.000 N 
ATOM     14  C   UNL     1       1.348   8.496  20.433  0.00  0.00    +0.000 C 
ATOM     15  O   UNL     1       1.280   7.894  21.498  0.00  0.00    +0.000 OA
BRANCH  13  16
ATOM     16  C   UNL     1       0.394  10.602  21.255  0.00  0.00    +0.000 C 
BRANCH  16  17
ATOM     17  C   UNL     1      -0.835  11.317  20.770  0.00  0.00    +0.000 C 
ATOM     18  C   UNL     1      -1.719  12.015  21.509  0.00  0.00    +0.000 C 
ATOM     19  C   UNL     1      -1.598  12.278  22.985  0.00  0.00    +0.000 C 
ATOM     20  C   UNL     1      -2.950  12.614  20.880  0.00  0.00    +0.000 C 
ENDBRANCH  16  17
ENDBRANCH  13  16
ENDBRANCH   7   8
BRANCH   1  22
ATOM     21  C   UNL     1       2.418   3.187  17.950  0.00  0.00    +0.000 C 
ATOM     22  O   UNL     1       2.306   4.484  17.373  0.00  0.00    +0.000 OA
ENDBRANCH   1  22
BRANCH   3  23
ATOM     23  O   UNL     1       6.564   5.299  15.414  0.00  0.00    +0.000 OA
BRANCH  23  24
ATOM     24  C   UNL     1       6.538   3.938  14.975  0.00  0.00    +0.000 C 
BRANCH  24  25
ATOM     25  C   UNL     1       5.455   3.686  13.971  0.00  0.00    +0.000 C 
ATOM     26  C   UNL     1       5.699   3.597  12.645  0.00  0.00    +0.000 C 
ATOM     27  C   UNL     1       7.062   3.785  12.027  0.00  0.00    +0.000 C 
ATOM     28  C   UNL     1       4.610   3.297  11.653  0.00  0.00    +0.000 C 
ENDBRANCH  24  25
ENDBRANCH  23  24
ENDBRANCH   3  23
TORSDOF 7
ENDMDL
MODEL 7
REMARK VINA RESULT:      -6.6      4.235      5.931
REMARK  Name = 
REMARK  12 active torsions:
REMARK  status: ('A' for Active; 'I' for Inactive)
REMARK    1  A    between atoms: C_1  and  O_2
REMARK    2  A    between atoms: O_2  and  C_3
REMARK    3  A    between atoms: C_5  and  O_6
REMARK    4  A    between atoms: O_6  and  C_7
REMARK    5  A    between atoms: C_7  and  C_8
REMARK    6  A    between atoms: C_9  and  C_10
REMARK    7  A    between atoms: C_9  and  C_11
REMARK    8  A    between atoms: C_15  and  C_16
REMARK    9  A    between atoms: N_21  and  C_22
REMARK   10  A    between atoms: C_22  and  C_23
REMARK   11  A    between atoms: C_24  and  C_25
REMARK   12  A    between atoms: C_24  and  C_26
REMARK                            x       y       z     vdW  Elec       q    Type
REMARK                         _______ _______ _______ _____ _____    ______ ____
ROOT
ATOM      1  C   UNL     1       0.723   8.999  20.316  0.00  0.00    +0.000 A 
ATOM      2  C   UNL     1       1.407   7.852  20.732  0.00  0.00    +0.000 A 
ATOM      3  C   UNL     1       2.280   7.162  19.879  0.00  0.00    +0.000 A 
ATOM      4  C   UNL     1       2.553   7.714  18.623  0.00  0.00    +0.000 A 
ATOM      5 BR   UNL     1       3.778   6.904  17.421  0.00  0.00    +0.000 Br
ATOM      6  C   UNL     1       1.915   8.891  18.210  0.00  0.00    +0.000 A 
ATOM      7  C   UNL     1       0.987   9.533  19.045  0.00  0.00    +0.000 A 
ENDROOT
BRANCH   7   8
ATOM      8  C   UNL     1       0.386  10.781  18.576  0.00  0.00    +0.000 C 
ATOM      9  C   UNL     1       0.697  11.988  19.071  0.00  0.00    +0.000 C 
ATOM     10  S   UNL     1       1.930  12.386  20.188  0.00  0.00    +0.000 S 
ATOM     11  C   UNL     1       1.289  13.997  20.441  0.00  0.00    +0.000 C 
ATOM     12  O   UNL     1       1.742  14.747  21.289  0.00  0.00    +0.000 OA
ATOM     13  N   UNL     1       0.222  14.215  19.607  0.00  0.00    +0.000 N 
ATOM     14  C   UNL     1      -0.175  13.164  18.818  0.00  0.00    +0.000 C 
ATOM     15  O   UNL     1      -1.153  13.136  18.082  0.00  0.00    +0.000 OA
BRANCH  13  16
ATOM     16  C   UNL     1      -0.560  15.424  19.691  0.00  0.00    +0.000 C 
BRANCH  16  17
ATOM     17  C   UNL     1      -0.271  16.295  18.502  0.00  0.00    +0.000 C 
ATOM     18  C   UNL     1       0.607  17.314  18.430  0.00  0.00    +0.000 C 
ATOM     19  C   UNL     1       1.538  17.736  19.534  0.00  0.00    +0.000 C 
ATOM     20  C   UNL     1       0.728  18.144  17.178  0.00  0.00    +0.000 C 
ENDBRANCH  16  17
ENDBRANCH  13  16
ENDBRANCH   7   8
BRANCH   1  22
ATOM     21  C   UNL     1       0.354   9.502  22.619  0.00  0.00    +0.000 C 
ATOM     22  O   UNL     1      -0.114   9.509  21.274  0.00  0.00    +0.000 OA
ENDBRANCH   1  22
BRANCH   3  23
ATOM     23  O   UNL     1       2.864   5.956  20.206  0.00  0.00    +0.000 OA
BRANCH  23  24
ATOM     24  C   UNL     1       2.012   5.094  20.965  0.00  0.00    +0.000 C 
BRANCH  24  25
ATOM     25  C   UNL     1       1.151   4.233  20.094  0.00  0.00    +0.000 C 
ATOM     26  C   UNL     1       1.587   3.069  19.562  0.00  0.00    +0.000 C 
ATOM     27  C   UNL     1       2.985   2.534  19.745  0.00  0.00    +0.000 C 
ATOM     28  C   UNL     1       0.698   2.192  18.726  0.00  0.00    +0.000 C 
ENDBRANCH  24  25
ENDBRANCH  23  24
ENDBRANCH   3  23
TORSDOF 7
ENDMDL
MODEL 8
REMARK VINA RESULT:      -6.6      2.432      3.734
REMARK  Name = 
REMARK  12 active torsions:
REMARK  status: ('A' for Active; 'I' for Inactive)
REMARK    1  A    between atoms: C_1  and  O_2
REMARK    2  A    between atoms: O_2  and  C_3
REMARK    3  A    between atoms: C_5  and  O_6
REMARK    4  A    between atoms: O_6  and  C_7
REMARK    5  A    between atoms: C_7  and  C_8
REMARK    6  A    between atoms: C_9  and  C_10
REMARK    7  A    between atoms: C_9  and  C_11
REMARK    8  A    between atoms: C_15  and  C_16
REMARK    9  A    between atoms: N_21  and  C_22
REMARK   10  A    between atoms: C_22  and  C_23
REMARK   11  A    between atoms: C_24  and  C_25
REMARK   12  A    between atoms: C_24  and  C_26
REMARK                            x       y       z     vdW  Elec       q    Type
REMARK                         _______ _______ _______ _____ _____    ______ ____
ROOT
ATOM      1  C   UNL     1       2.220   7.543  19.286  0.00  0.00    +0.000 A 
ATOM      2  C   UNL     1       2.581   6.664  18.260  0.00  0.00    +0.000 A 
ATOM      3  C   UNL     1       2.490   5.273  18.411  0.00  0.00    +0.000 A 
ATOM      4  C   UNL     1       1.910   4.771  19.580  0.00  0.00    +0.000 A 
ATOM      5 BR   UNL     1       1.666   2.909  19.853  0.00  0.00    +0.000 Br
ATOM      6  C   UNL     1       1.494   5.640  20.598  0.00  0.00    +0.000 A 
ATOM      7  C   UNL     1       1.658   7.027  20.466  0.00  0.00    +0.000 A 
ENDROOT
BRANCH   7   8
ATOM      8  C   UNL     1       1.166   7.886  21.543  0.00  0.00    +0.000 C 
ATOM      9  C   UNL     1       0.287   8.881  21.357  0.00  0.00    +0.000 C 
ATOM     10  S   UNL     1      -0.577   9.275  19.934  0.00  0.00    +0.000 S 
ATOM     11  C   UNL     1      -1.094  10.820  20.583  0.00  0.00    +0.000 C 
ATOM     12  O   UNL     1      -1.691  11.638  19.905  0.00  0.00    +0.000 OA
ATOM     13  N   UNL     1      -0.676  10.947  21.883  0.00  0.00    +0.000 N 
ATOM     14  C   UNL     1       0.090   9.928  22.392  0.00  0.00    +0.000 C 
ATOM     15  O   UNL     1       0.627   9.902  23.493  0.00  0.00    +0.000 OA
BRANCH  13  16
ATOM     16  C   UNL     1      -0.874  12.173  22.618  0.00  0.00    +0.000 C 
BRANCH  16  17
ATOM     17  C   UNL     1      -2.118  12.065  23.452  0.00  0.00    +0.000 C 
ATOM     18  C   UNL     1      -3.252  12.782  23.325  0.00  0.00    +0.000 C 
ATOM     19  C   UNL     1      -3.518  13.800  22.250  0.00  0.00    +0.000 C 
ATOM     20  C   UNL     1      -4.391  12.605  24.295  0.00  0.00    +0.000 C 
ENDBRANCH  16  17
ENDBRANCH  13  16
ENDBRANCH   7   8
BRANCH   1  22
ATOM     21  C   UNL     1       2.089   9.267  17.642  0.00  0.00    +0.000 C 
ATOM     22  O   UNL     1       2.417   8.861  18.967  0.00  0.00    +0.000 OA
ENDBRANCH   1  22
BRANCH   3  23
ATOM     23  O   UNL     1       2.964   4.377  17.477  0.00  0.00    +0.000 OA
BRANCH  23  24
ATOM     24  C   UNL     1       4.391   4.320  17.410  0.00  0.00    +0.000 C 
BRANCH  24  25
ATOM     25  C   UNL     1       4.888   4.118  16.011  0.00  0.00    +0.000 C 
ATOM     26  C   UNL     1       6.037   4.668  15.560  0.00  0.00    +0.000 C 
ATOM     27  C   UNL     1       6.916   5.572  16.387  0.00  0.00    +0.000 C 
ATOM     28  C   UNL     1       6.547   4.420  14.168  0.00  0.00    +0.000 C 
ENDBRANCH  24  25
ENDBRANCH  23  24
ENDBRANCH   3  23
TORSDOF 7
ENDMDL
MODEL 9
REMARK VINA RESULT:      -6.5      4.323      6.033
REMARK  Name = 
REMARK  12 active torsions:
REMARK  status: ('A' for Active; 'I' for Inactive)
REMARK    1  A    between atoms: C_1  and  O_2
REMARK    2  A    between atoms: O_2  and  C_3
REMARK    3  A    between atoms: C_5  and  O_6
REMARK    4  A    between atoms: O_6  and  C_7
REMARK    5  A    between atoms: C_7  and  C_8
REMARK    6  A    between atoms: C_9  and  C_10
REMARK    7  A    between atoms: C_9  and  C_11
REMARK    8  A    between atoms: C_15  and  C_16
REMARK    9  A    between atoms: N_21  and  C_22
REMARK   10  A    between atoms: C_22  and  C_23
REMARK   11  A    between atoms: C_24  and  C_25
REMARK   12  A    between atoms: C_24  and  C_26
REMARK                            x       y       z     vdW  Elec       q    Type
REMARK                         _______ _______ _______ _____ _____    ______ ____
ROOT
ATOM      1  C   UNL     1       0.679   8.895  20.443  0.00  0.00    +0.000 A 
ATOM      2  C   UNL     1       1.561   7.837  20.684  0.00  0.00    +0.000 A 
ATOM      3  C   UNL     1       2.416   7.344  19.688  0.00  0.00    +0.000 A 
ATOM      4  C   UNL     1       2.460   8.017  18.462  0.00  0.00    +0.000 A 
ATOM      5 BR   UNL     1       3.637   7.483  17.072  0.00  0.00    +0.000 Br
ATOM      6  C   UNL     1       1.620   9.112  18.221  0.00  0.00    +0.000 A 
ATOM      7  C   UNL     1       0.716   9.550  19.201  0.00  0.00    +0.000 A 
ENDROOT
BRANCH   7   8
ATOM      8  C   UNL     1      -0.105  10.725  18.907  0.00  0.00    +0.000 C 
ATOM      9  C   UNL     1       0.377  11.975  18.861  0.00  0.00    +0.000 C 
ATOM     10  S   UNL     1       2.008  12.482  18.949  0.00  0.00    +0.000 S 
ATOM     11  C   UNL     1       1.555  14.161  19.171  0.00  0.00    +0.000 C 
ATOM     12  O   UNL     1       2.378  15.025  19.420  0.00  0.00    +0.000 OA
ATOM     13  N   UNL     1       0.193  14.297  19.078  0.00  0.00    +0.000 N 
ATOM     14  C   UNL     1      -0.535  13.146  18.908  0.00  0.00    +0.000 C 
ATOM     15  O   UNL     1      -1.757  13.054  18.894  0.00  0.00    +0.000 OA
BRANCH  13  16
ATOM     16  C   UNL     1      -0.453  15.561  19.333  0.00  0.00    +0.000 C 
BRANCH  16  17
ATOM     17  C   UNL     1      -0.246  16.478  18.161  0.00  0.00    +0.000 C 
ATOM     18  C   UNL     1      -0.523  17.795  18.096  0.00  0.00    +0.000 C 
ATOM     19  C   UNL     1      -1.037  18.631  19.237  0.00  0.00    +0.000 C 
ATOM     20  C   UNL     1      -0.327  18.563  16.815  0.00  0.00    +0.000 C 
ENDBRANCH  16  17
ENDBRANCH  13  16
ENDBRANCH   7   8
BRANCH   1  22
ATOM     21  C   UNL     1       0.557   9.406  22.770  0.00  0.00    +0.000 C 
ATOM     22  O   UNL     1      -0.103   9.208  21.524  0.00  0.00    +0.000 OA
ENDBRANCH   1  22
BRANCH   3  23
ATOM     23  O   UNL     1       3.196   6.219  19.847  0.00  0.00    +0.000 OA
BRANCH  23  24
ATOM     24  C   UNL     1       2.526   5.147  20.515  0.00  0.00    +0.000 C 
BRANCH  24  25
ATOM     25  C   UNL     1       1.861   4.206  19.557  0.00  0.00    +0.000 C 
ATOM     26  C   UNL     1       1.319   3.032  19.947  0.00  0.00    +0.000 C 
ATOM     27  C   UNL     1       1.360   2.519  21.365  0.00  0.00    +0.000 C 
ATOM     28  C   UNL     1       0.614   2.119  18.983  0.00  0.00    +0.000 C 
ENDBRANCH  24  25
ENDBRANCH  23  24
ENDBRANCH   3  23
TORSDOF 7
ENDMDL
