MODEL 1
REMARK VINA RESULT:      -7.5      0.000      0.000
REMARK  Name = 
REMARK  11 active torsions:
REMARK  status: ('A' for Active; 'I' for Inactive)
REMARK    1  A    between atoms: C_2  and  C_3
REMARK    2  A    between atoms: C_3  and  N_4
REMARK    3  A    between atoms: C_5  and  C_6
REMARK    4  A    between atoms: C_6  and  N_7
REMARK    5  A    between atoms: N_7  and  C_8
REMARK    6  A    between atoms: C_16  and  S_17
REMARK    7  A    between atoms: S_17  and  C_18
REMARK    8  A    between atoms: C_18  and  C_19
REMARK    9  A    between atoms: N_21  and  N_22
REMARK   10  A    between atoms: C_23  and  C_24
REMARK   11  A    between atoms: C_29  and  O_30
REMARK                            x       y       z     vdW  Elec       q    Type
REMARK                         _______ _______ _______ _____ _____    ______ ____
ROOT
ATOM      1  N   UNL     1       4.400   4.690  17.833  0.00  0.00    +0.000 N 
ATOM      2  C   UNL     1       5.722   5.082  17.706  0.00  0.00    +0.000 A 
ATOM      3  N   UNL     1       6.437   4.459  18.627  0.00  0.00    +0.000 NA
ATOM      4  N   UNL     1       5.602   3.662  19.364  0.00  0.00    +0.000 NA
ATOM      5  C   UNL     1       4.395   3.790  18.870  0.00  0.00    +0.000 A 
ENDROOT
BRANCH   1   6
ATOM      6  C   UNL     1       3.241   5.240  17.145  0.00  0.00    +0.000 C 
BRANCH   6   8
ATOM      7  C   UNL     1       3.177   7.689  17.761  0.00  0.00    +0.000 C 
ATOM      8  C   UNL     1       2.655   6.456  17.808  0.00  0.00    +0.000 C 
ENDBRANCH   6   8
ENDBRANCH   1   6
BRANCH   2   9
ATOM      9  C   UNL     1       6.279   6.032  16.685  0.00  0.00    +0.000 C 
BRANCH   9  10
ATOM     10  N   UNL     1       7.358   5.493  15.859  0.00  0.00    +0.000 N 
ATOM     11  H   UNL     1       8.188   6.079  15.837  0.00  0.00    +0.000 HD
BRANCH  10  12
ATOM     12  C   UNL     1       7.064   4.919  14.619  0.00  0.00    +0.000 A 
ATOM     13  C   UNL     1       5.926   4.106  14.510  0.00  0.00    +0.000 A 
ATOM     14  C   UNL     1       5.566   3.512  13.294  0.00  0.00    +0.000 A 
ATOM     15  C   UNL     1       6.318   3.753  12.150  0.00  0.00    +0.000 A 
ATOM     16  C   UNL     1       7.406   4.613  12.219  0.00  0.00    +0.000 A 
ATOM     17  C   UNL     1       7.766   5.204  13.439  0.00  0.00    +0.000 A 
ENDBRANCH  10  12
ENDBRANCH   9  10
ENDBRANCH   2   9
BRANCH   5  18
ATOM     18  S   UNL     1       2.999   2.956  19.457  0.00  0.00    +0.000 S 
BRANCH  18  19
ATOM     19  C   UNL     1       2.704   3.849  21.014  0.00  0.00    +0.000 C 
BRANCH  19  20
ATOM     20  C   UNL     1       1.634   4.901  20.805  0.00  0.00    +0.000 C 
ATOM     21  O   UNL     1       0.515   4.603  20.398  0.00  0.00    +0.000 OA
ATOM     22  N   UNL     1       2.050   6.193  21.104  0.00  0.00    +0.000 N 
ATOM     23  H   UNL     1       3.023   6.399  21.328  0.00  0.00    +0.000 HD
BRANCH  22  24
ATOM     24  N   UNL     1       1.157   7.211  20.974  0.00  0.00    +0.000 NA
ATOM     25  C   UNL     1       1.390   8.288  21.652  0.00  0.00    +0.000 C 
BRANCH  25  26
ATOM     26  C   UNL     1       0.459   9.434  21.575  0.00  0.00    +0.000 A 
ATOM     27  C   UNL     1      -0.132   9.923  22.748  0.00  0.00    +0.000 A 
ATOM     28  C   UNL     1      -1.013  11.004  22.692  0.00  0.00    +0.000 A 
ATOM     29  C   UNL     1      -1.311  11.598  21.468  0.00  0.00    +0.000 A 
ATOM     30  C   UNL     1      -0.726  11.117  20.293  0.00  0.00    +0.000 A 
ATOM     31  C   UNL     1       0.161  10.037  20.349  0.00  0.00    +0.000 A 
BRANCH  31  32
ATOM     32  O   UNL     1       0.744   9.580  19.201  0.00  0.00    +0.000 OA
ATOM     33  H   UNL     1       0.646  10.251  18.505  0.00  0.00    +0.000 HD
ENDBRANCH  31  32
ENDBRANCH  25  26
ENDBRANCH  22  24
ENDBRANCH  19  20
ENDBRANCH  18  19
ENDBRANCH   5  18
TORSDOF 11
ENDMDL
MODEL 2
REMARK VINA RESULT:      -7.5      5.524      8.165
REMARK  Name = 
REMARK  11 active torsions:
REMARK  status: ('A' for Active; 'I' for Inactive)
REMARK    1  A    between atoms: C_2  and  C_3
REMARK    2  A    between atoms: C_3  and  N_4
REMARK    3  A    between atoms: C_5  and  C_6
REMARK    4  A    between atoms: C_6  and  N_7
REMARK    5  A    between atoms: N_7  and  C_8
REMARK    6  A    between atoms: C_16  and  S_17
REMARK    7  A    between atoms: S_17  and  C_18
REMARK    8  A    between atoms: C_18  and  C_19
REMARK    9  A    between atoms: N_21  and  N_22
REMARK   10  A    between atoms: C_23  and  C_24
REMARK   11  A    between atoms: C_29  and  O_30
REMARK                            x       y       z     vdW  Elec       q    Type
REMARK                         _______ _______ _______ _____ _____    ______ ____
ROOT
ATOM      1  N   UNL     1       5.200   4.366  17.023  0.00  0.00    +0.000 N 
ATOM      2  C   UNL     1       4.544   3.562  17.939  0.00  0.00    +0.000 A 
ATOM      3  N   UNL     1       5.172   3.645  19.100  0.00  0.00    +0.000 NA
ATOM      4  N   UNL     1       6.238   4.492  18.960  0.00  0.00    +0.000 NA
ATOM      5  C   UNL     1       6.234   4.934  17.726  0.00  0.00    +0.000 A 
ENDROOT
BRANCH   1   6
ATOM      6  C   UNL     1       4.962   4.455  15.589  0.00  0.00    +0.000 C 
BRANCH   6   8
ATOM      7  C   UNL     1       6.095   3.838  13.418  0.00  0.00    +0.000 C 
ATOM      8  C   UNL     1       5.999   3.759  14.752  0.00  0.00    +0.000 C 
ENDBRANCH   6   8
ENDBRANCH   1   6
BRANCH   2   9
ATOM      9  C   UNL     1       3.309   2.744  17.689  0.00  0.00    +0.000 C 
BRANCH   9  10
ATOM     10  N   UNL     1       2.051   3.393  18.051  0.00  0.00    +0.000 N 
ATOM     11  H   UNL     1       1.317   3.280  17.357  0.00  0.00    +0.000 HD
BRANCH  10  12
ATOM     12  C   UNL     1       2.066   4.668  18.625  0.00  0.00    +0.000 A 
ATOM     13  C   UNL     1       1.872   4.783  20.009  0.00  0.00    +0.000 A 
ATOM     14  C   UNL     1       1.891   6.028  20.649  0.00  0.00    +0.000 A 
ATOM     15  C   UNL     1       2.144   7.184  19.919  0.00  0.00    +0.000 A 
ATOM     16  C   UNL     1       2.411   7.086  18.560  0.00  0.00    +0.000 A 
ATOM     17  C   UNL     1       2.389   5.837  17.922  0.00  0.00    +0.000 A 
ENDBRANCH  10  12
ENDBRANCH   9  10
ENDBRANCH   2   9
BRANCH   5  18
ATOM     18  S   UNL     1       7.380   6.055  17.078  0.00  0.00    +0.000 S 
BRANCH  18  19
ATOM     19  C   UNL     1       7.846   6.966  18.582  0.00  0.00    +0.000 C 
BRANCH  19  20
ATOM     20  C   UNL     1       8.209   8.392  18.224  0.00  0.00    +0.000 C 
ATOM     21  O   UNL     1       7.816   8.910  17.182  0.00  0.00    +0.000 OA
ATOM     22  N   UNL     1       9.014   9.022  19.165  0.00  0.00    +0.000 N 
ATOM     23  H   UNL     1       9.406   8.510  19.955  0.00  0.00    +0.000 HD
BRANCH  22  24
ATOM     24  N   UNL     1       9.377  10.314  18.951  0.00  0.00    +0.000 NA
ATOM     25  C   UNL     1      10.323  10.791  19.695  0.00  0.00    +0.000 C 
BRANCH  25  26
ATOM     26  C   UNL     1      10.765  12.192  19.534  0.00  0.00    +0.000 A 
ATOM     27  C   UNL     1      10.421  13.141  20.506  0.00  0.00    +0.000 A 
ATOM     28  C   UNL     1      10.830  14.468  20.369  0.00  0.00    +0.000 A 
ATOM     29  C   UNL     1      11.581  14.854  19.260  0.00  0.00    +0.000 A 
ATOM     30  C   UNL     1      11.928  13.915  18.286  0.00  0.00    +0.000 A 
ATOM     31  C   UNL     1      11.523  12.584  18.426  0.00  0.00    +0.000 A 
BRANCH  31  32
ATOM     32  O   UNL     1      11.878  11.665  17.480  0.00  0.00    +0.000 OA
ATOM     33  H   UNL     1      11.392  11.850  16.658  0.00  0.00    +0.000 HD
ENDBRANCH  31  32
ENDBRANCH  25  26
ENDBRANCH  22  24
ENDBRANCH  19  20
ENDBRANCH  18  19
ENDBRANCH   5  18
TORSDOF 11
ENDMDL
MODEL 3
REMARK VINA RESULT:      -7.3      3.068      4.520
REMARK  Name = 
REMARK  11 active torsions:
REMARK  status: ('A' for Active; 'I' for Inactive)
REMARK    1  A    between atoms: C_2  and  C_3
REMARK    2  A    between atoms: C_3  and  N_4
REMARK    3  A    between atoms: C_5  and  C_6
REMARK    4  A    between atoms: C_6  and  N_7
REMARK    5  A    between atoms: N_7  and  C_8
REMARK    6  A    between atoms: C_16  and  S_17
REMARK    7  A    between atoms: S_17  and  C_18
REMARK    8  A    between atoms: C_18  and  C_19
REMARK    9  A    between atoms: N_21  and  N_22
REMARK   10  A    between atoms: C_23  and  C_24
REMARK   11  A    between atoms: C_29  and  O_30
REMARK                            x       y       z     vdW  Elec       q    Type
REMARK                         _______ _______ _______ _____ _____    ______ ____
ROOT
ATOM      1  N   UNL     1       6.067   5.675  17.773  0.00  0.00    +0.000 N 
ATOM      2  C   UNL     1       7.138   6.211  18.467  0.00  0.00    +0.000 A 
ATOM      3  N   UNL     1       7.195   5.642  19.659  0.00  0.00    +0.000 NA
ATOM      4  N   UNL     1       6.172   4.738  19.761  0.00  0.00    +0.000 NA
ATOM      5  C   UNL     1       5.519   4.748  18.625  0.00  0.00    +0.000 A 
ENDROOT
BRANCH   1   6
ATOM      6  C   UNL     1       5.526   6.118  16.495  0.00  0.00    +0.000 C 
BRANCH   6   8
ATOM      7  C   UNL     1       6.896   4.806  14.828  0.00  0.00    +0.000 C 
ATOM      8  C   UNL     1       5.718   5.133  15.376  0.00  0.00    +0.000 C 
ENDBRANCH   6   8
ENDBRANCH   1   6
BRANCH   2   9
ATOM      9  C   UNL     1       8.103   7.247  17.965  0.00  0.00    +0.000 C 
BRANCH   9  10
ATOM     10  N   UNL     1       7.555   8.595  17.835  0.00  0.00    +0.000 N 
ATOM     11  H   UNL     1       7.029   8.743  16.979  0.00  0.00    +0.000 HD
BRANCH  10  12
ATOM     12  C   UNL     1       8.335   9.700  18.193  0.00  0.00    +0.000 A 
ATOM     13  C   UNL     1       8.127  10.913  17.521  0.00  0.00    +0.000 A 
ATOM     14  C   UNL     1       8.863  12.061  17.839  0.00  0.00    +0.000 A 
ATOM     15  C   UNL     1       9.799  12.027  18.867  0.00  0.00    +0.000 A 
ATOM     16  C   UNL     1       9.969  10.855  19.594  0.00  0.00    +0.000 A 
ATOM     17  C   UNL     1       9.232   9.707  19.270  0.00  0.00    +0.000 A 
ENDBRANCH  10  12
ENDBRANCH   9  10
ENDBRANCH   2   9
BRANCH   5  18
ATOM     18  S   UNL     1       4.153   3.751  18.266  0.00  0.00    +0.000 S 
BRANCH  18  19
ATOM     19  C   UNL     1       3.374   3.645  19.906  0.00  0.00    +0.000 C 
BRANCH  19  20
ATOM     20  C   UNL     1       2.298   4.704  20.031  0.00  0.00    +0.000 C 
ATOM     21  O   UNL     1       1.106   4.415  19.962  0.00  0.00    +0.000 OA
ATOM     22  N   UNL     1       2.792   5.989  20.214  0.00  0.00    +0.000 N 
ATOM     23  H   UNL     1       3.789   6.189  20.148  0.00  0.00    +0.000 HD
BRANCH  22  24
ATOM     24  N   UNL     1       1.908   7.012  20.362  0.00  0.00    +0.000 NA
ATOM     25  C   UNL     1       2.023   8.012  19.549  0.00  0.00    +0.000 C 
BRANCH  25  26
ATOM     26  C   UNL     1       1.109   9.169  19.656  0.00  0.00    +0.000 A 
ATOM     27  C   UNL     1       0.376   9.364  20.834  0.00  0.00    +0.000 A 
ATOM     28  C   UNL     1      -0.491  10.452  20.951  0.00  0.00    +0.000 A 
ATOM     29  C   UNL     1      -0.633  11.346  19.892  0.00  0.00    +0.000 A 
ATOM     30  C   UNL     1       0.094  11.159  18.713  0.00  0.00    +0.000 A 
ATOM     31  C   UNL     1       0.967  10.073  18.598  0.00  0.00    +0.000 A 
BRANCH  31  32
ATOM     32  O   UNL     1       1.689   9.903  17.451  0.00  0.00    +0.000 OA
ATOM     33  H   UNL     1       2.625  10.094  17.632  0.00  0.00    +0.000 HD
ENDBRANCH  31  32
ENDBRANCH  25  26
ENDBRANCH  22  24
ENDBRANCH  19  20
ENDBRANCH  18  19
ENDBRANCH   5  18
TORSDOF 11
ENDMDL
MODEL 4
REMARK VINA RESULT:      -7.3      4.433      8.647
REMARK  Name = 
REMARK  11 active torsions:
REMARK  status: ('A' for Active; 'I' for Inactive)
REMARK    1  A    between atoms: C_2  and  C_3
REMARK    2  A    between atoms: C_3  and  N_4
REMARK    3  A    between atoms: C_5  and  C_6
REMARK    4  A    between atoms: C_6  and  N_7
REMARK    5  A    between atoms: N_7  and  C_8
REMARK    6  A    between atoms: C_16  and  S_17
REMARK    7  A    between atoms: S_17  and  C_18
REMARK    8  A    between atoms: C_18  and  C_19
REMARK    9  A    between atoms: N_21  and  N_22
REMARK   10  A    between atoms: C_23  and  C_24
REMARK   11  A    between atoms: C_29  and  O_30
REMARK                            x       y       z     vdW  Elec       q    Type
REMARK                         _______ _______ _______ _____ _____    ______ ____
ROOT
ATOM      1  N   UNL     1       3.424   5.676  19.229  0.00  0.00    +0.000 N 
ATOM      2  C   UNL     1       2.588   6.777  19.306  0.00  0.00    +0.000 A 
ATOM      3  N   UNL     1       2.887   7.604  18.319  0.00  0.00    +0.000 NA
ATOM      4  N   UNL     1       3.914   7.063  17.592  0.00  0.00    +0.000 NA
ATOM      5  C   UNL     1       4.212   5.905  18.129  0.00  0.00    +0.000 A 
ENDROOT
BRANCH   1   6
ATOM      6  C   UNL     1       3.565   4.599  20.200  0.00  0.00    +0.000 C 
BRANCH   6   8
ATOM      7  C   UNL     1       3.672   2.123  19.713  0.00  0.00    +0.000 C 
ATOM      8  C   UNL     1       3.002   3.283  19.739  0.00  0.00    +0.000 C 
ENDBRANCH   6   8
ENDBRANCH   1   6
BRANCH   2   9
ATOM      9  C   UNL     1       1.498   7.005  20.315  0.00  0.00    +0.000 C 
BRANCH   9  10
ATOM     10  N   UNL     1       1.811   7.980  21.357  0.00  0.00    +0.000 N 
ATOM     11  H   UNL     1       2.189   7.567  22.205  0.00  0.00    +0.000 HD
BRANCH  10  12
ATOM     12  C   UNL     1       0.926   9.033  21.612  0.00  0.00    +0.000 A 
ATOM     13  C   UNL     1       0.513   9.836  20.540  0.00  0.00    +0.000 A 
ATOM     14  C   UNL     1      -0.383  10.896  20.723  0.00  0.00    +0.000 A 
ATOM     15  C   UNL     1      -0.915  11.150  21.982  0.00  0.00    +0.000 A 
ATOM     16  C   UNL     1      -0.577  10.321  23.044  0.00  0.00    +0.000 A 
ATOM     17  C   UNL     1       0.323   9.262  22.857  0.00  0.00    +0.000 A 
ENDBRANCH  10  12
ENDBRANCH   9  10
ENDBRANCH   2   9
BRANCH   5  18
ATOM     18  S   UNL     1       5.436   4.835  17.542  0.00  0.00    +0.000 S 
BRANCH  18  19
ATOM     19  C   UNL     1       6.521   6.009  16.674  0.00  0.00    +0.000 C 
BRANCH  19  20
ATOM     20  C   UNL     1       7.312   6.816  17.682  0.00  0.00    +0.000 C 
ATOM     21  O   UNL     1       7.682   6.326  18.746  0.00  0.00    +0.000 OA
ATOM     22  N   UNL     1       7.553   8.127  17.289  0.00  0.00    +0.000 N 
ATOM     23  H   UNL     1       7.125   8.516  16.450  0.00  0.00    +0.000 HD
BRANCH  22  24
ATOM     24  N   UNL     1       8.276   8.931  18.113  0.00  0.00    +0.000 NA
ATOM     25  C   UNL     1       8.298  10.195  17.832  0.00  0.00    +0.000 C 
BRANCH  25  26
ATOM     26  C   UNL     1       9.074  11.132  18.671  0.00  0.00    +0.000 A 
ATOM     27  C   UNL     1       9.629  10.683  19.877  0.00  0.00    +0.000 A 
ATOM     28  C   UNL     1      10.364  11.556  20.680  0.00  0.00    +0.000 A 
ATOM     29  C   UNL     1      10.545  12.880  20.286  0.00  0.00    +0.000 A 
ATOM     30  C   UNL     1       9.994  13.336  19.086  0.00  0.00    +0.000 A 
ATOM     31  C   UNL     1       9.263  12.461  18.278  0.00  0.00    +0.000 A 
BRANCH  31  32
ATOM     32  O   UNL     1       8.740  12.906  17.096  0.00  0.00    +0.000 OA
ATOM     33  H   UNL     1       9.451  13.299  16.562  0.00  0.00    +0.000 HD
ENDBRANCH  31  32
ENDBRANCH  25  26
ENDBRANCH  22  24
ENDBRANCH  19  20
ENDBRANCH  18  19
ENDBRANCH   5  18
TORSDOF 11
ENDMDL
MODEL 5
REMARK VINA RESULT:      -7.2      1.662      2.671
REMARK  Name = 
REMARK  11 active torsions:
REMARK  status: ('A' for Active; 'I' for Inactive)
REMARK    1  A    between atoms: C_2  and  C_3
REMARK    2  A    between atoms: C_3  and  N_4
REMARK    3  A    between atoms: C_5  and  C_6
REMARK    4  A    between atoms: C_6  and  N_7
REMARK    5  A    between atoms: N_7  and  C_8
REMARK    6  A    between atoms: C_16  and  S_17
REMARK    7  A    between atoms: S_17  and  C_18
REMARK    8  A    between atoms: C_18  and  C_19
REMARK    9  A    between atoms: N_21  and  N_22
REMARK   10  A    between atoms: C_23  and  C_24
REMARK   11  A    between atoms: C_29  and  O_30
REMARK                            x       y       z     vdW  Elec       q    Type
REMARK                         _______ _______ _______ _____ _____    ______ ____
ROOT
ATOM      1  N   UNL     1       4.373   3.855  18.646  0.00  0.00    +0.000 N 
ATOM      2  C   UNL     1       4.273   3.580  17.293  0.00  0.00    +0.000 A 
ATOM      3  N   UNL     1       3.803   2.353  17.145  0.00  0.00    +0.000 NA
ATOM      4  N   UNL     1       3.596   1.813  18.386  0.00  0.00    +0.000 NA
ATOM      5  C   UNL     1       3.917   2.723  19.274  0.00  0.00    +0.000 A 
ENDROOT
BRANCH   1   6
ATOM      6  C   UNL     1       4.993   5.015  19.273  0.00  0.00    +0.000 C 
BRANCH   6   8
ATOM      7  C   UNL     1       7.334   5.818  18.771  0.00  0.00    +0.000 C 
ATOM      8  C   UNL     1       6.493   4.946  19.342  0.00  0.00    +0.000 C 
ENDBRANCH   6   8
ENDBRANCH   1   6
BRANCH   2   9
ATOM      9  C   UNL     1       4.608   4.512  16.163  0.00  0.00    +0.000 C 
BRANCH   9  10
ATOM     10  N   UNL     1       6.011   4.512  15.754  0.00  0.00    +0.000 N 
ATOM     11  H   UNL     1       6.580   5.196  16.245  0.00  0.00    +0.000 HD
BRANCH  10  12
ATOM     12  C   UNL     1       6.339   4.401  14.399  0.00  0.00    +0.000 A 
ATOM     13  C   UNL     1       7.407   5.165  13.904  0.00  0.00    +0.000 A 
ATOM     14  C   UNL     1       7.798   5.091  12.562  0.00  0.00    +0.000 A 
ATOM     15  C   UNL     1       7.151   4.218  11.693  0.00  0.00    +0.000 A 
ATOM     16  C   UNL     1       6.140   3.399  12.179  0.00  0.00    +0.000 A 
ATOM     17  C   UNL     1       5.749   3.479  13.524  0.00  0.00    +0.000 A 
ENDBRANCH  10  12
ENDBRANCH   9  10
ENDBRANCH   2   9
BRANCH   5  18
ATOM     18  S   UNL     1       3.800   2.511  20.985  0.00  0.00    +0.000 S 
BRANCH  18  19
ATOM     19  C   UNL     1       1.995   2.460  21.196  0.00  0.00    +0.000 C 
BRANCH  19  20
ATOM     20  C   UNL     1       1.369   3.678  20.547  0.00  0.00    +0.000 C 
ATOM     21  O   UNL     1       0.509   3.568  19.678  0.00  0.00    +0.000 OA
ATOM     22  N   UNL     1       1.867   4.885  21.020  0.00  0.00    +0.000 N 
ATOM     23  H   UNL     1       2.662   4.919  21.658  0.00  0.00    +0.000 HD
BRANCH  22  24
ATOM     24  N   UNL     1       1.354   6.042  20.520  0.00  0.00    +0.000 NA
ATOM     25  C   UNL     1       2.195   6.984  20.236  0.00  0.00    +0.000 C 
BRANCH  25  26
ATOM     26  C   UNL     1       1.715   8.276  19.702  0.00  0.00    +0.000 A 
ATOM     27  C   UNL     1       1.996   8.622  18.373  0.00  0.00    +0.000 A 
ATOM     28  C   UNL     1       1.549   9.838  17.854  0.00  0.00    +0.000 A 
ATOM     29  C   UNL     1       0.825  10.714  18.659  0.00  0.00    +0.000 A 
ATOM     30  C   UNL     1       0.540  10.378  19.985  0.00  0.00    +0.000 A 
ATOM     31  C   UNL     1       0.982   9.157  20.503  0.00  0.00    +0.000 A 
BRANCH  31  32
ATOM     32  O   UNL     1       0.688   8.824  21.796  0.00  0.00    +0.000 OA
ATOM     33  H   UNL     1      -0.259   8.977  21.956  0.00  0.00    +0.000 HD
ENDBRANCH  31  32
ENDBRANCH  25  26
ENDBRANCH  22  24
ENDBRANCH  19  20
ENDBRANCH  18  19
ENDBRANCH   5  18
TORSDOF 11
ENDMDL
MODEL 6
REMARK VINA RESULT:      -7.2      4.397      8.614
REMARK  Name = 
REMARK  11 active torsions:
REMARK  status: ('A' for Active; 'I' for Inactive)
REMARK    1  A    between atoms: C_2  and  C_3
REMARK    2  A    between atoms: C_3  and  N_4
REMARK    3  A    between atoms: C_5  and  C_6
REMARK    4  A    between atoms: C_6  and  N_7
REMARK    5  A    between atoms: N_7  and  C_8
REMARK    6  A    between atoms: C_16  and  S_17
REMARK    7  A    between atoms: S_17  and  C_18
REMARK    8  A    between atoms: C_18  and  C_19
REMARK    9  A    between atoms: N_21  and  N_22
REMARK   10  A    between atoms: C_23  and  C_24
REMARK   11  A    between atoms: C_29  and  O_30
REMARK                            x       y       z     vdW  Elec       q    Type
REMARK                         _______ _______ _______ _____ _____    ______ ____
ROOT
ATOM      1  N   UNL     1       3.018   6.943  18.452  0.00  0.00    +0.000 N 
ATOM      2  C   UNL     1       2.650   6.446  19.690  0.00  0.00    +0.000 A 
ATOM      3  N   UNL     1       3.503   5.496  20.034  0.00  0.00    +0.000 NA
ATOM      4  N   UNL     1       4.430   5.359  19.036  0.00  0.00    +0.000 NA
ATOM      5  C   UNL     1       4.146   6.240  18.107  0.00  0.00    +0.000 A 
ENDROOT
BRANCH   1   6
ATOM      6  C   UNL     1       2.278   7.877  17.614  0.00  0.00    +0.000 C 
BRANCH   6   8
ATOM      7  C   UNL     1       1.836  10.326  18.045  0.00  0.00    +0.000 C 
ATOM      8  C   UNL     1       2.679   9.315  17.798  0.00  0.00    +0.000 C 
ENDBRANCH   6   8
ENDBRANCH   1   6
BRANCH   2   9
ATOM      9  C   UNL     1       1.495   6.908  20.533  0.00  0.00    +0.000 C 
BRANCH   9  10
ATOM     10  N   UNL     1       1.810   7.966  21.490  0.00  0.00    +0.000 N 
ATOM     11  H   UNL     1       2.266   7.631  22.334  0.00  0.00    +0.000 HD
BRANCH  10  12
ATOM     12  C   UNL     1       0.877   8.978  21.739  0.00  0.00    +0.000 A 
ATOM     13  C   UNL     1       0.297   9.638  20.647  0.00  0.00    +0.000 A 
ATOM     14  C   UNL     1      -0.654  10.650  20.825  0.00  0.00    +0.000 A 
ATOM     15  C   UNL     1      -1.074  10.995  22.105  0.00  0.00    +0.000 A 
ATOM     16  C   UNL     1      -0.567  10.304  23.197  0.00  0.00    +0.000 A 
ATOM     17  C   UNL     1       0.388   9.293  23.015  0.00  0.00    +0.000 A 
ENDBRANCH  10  12
ENDBRANCH   9  10
ENDBRANCH   2   9
BRANCH   5  18
ATOM     18  S   UNL     1       5.053   6.463  16.653  0.00  0.00    +0.000 S 
BRANCH  18  19
ATOM     19  C   UNL     1       6.630   5.685  17.117  0.00  0.00    +0.000 C 
BRANCH  19  20
ATOM     20  C   UNL     1       7.443   6.640  17.966  0.00  0.00    +0.000 C 
ATOM     21  O   UNL     1       7.981   6.272  19.006  0.00  0.00    +0.000 OA
ATOM     22  N   UNL     1       7.500   7.933  17.460  0.00  0.00    +0.000 N 
ATOM     23  H   UNL     1       6.940   8.213  16.655  0.00  0.00    +0.000 HD
BRANCH  22  24
ATOM     24  N   UNL     1       8.225   8.865  18.134  0.00  0.00    +0.000 NA
ATOM     25  C   UNL     1       8.320  10.039  17.597  0.00  0.00    +0.000 C 
BRANCH  25  26
ATOM     26  C   UNL     1       9.104  11.102  18.261  0.00  0.00    +0.000 A 
ATOM     27  C   UNL     1      10.059  10.755  19.227  0.00  0.00    +0.000 A 
ATOM     28  C   UNL     1      10.807  11.747  19.863  0.00  0.00    +0.000 A 
ATOM     29  C   UNL     1      10.603  13.087  19.541  0.00  0.00    +0.000 A 
ATOM     30  C   UNL     1       9.653  13.442  18.579  0.00  0.00    +0.000 A 
ATOM     31  C   UNL     1       8.907  12.448  17.938  0.00  0.00    +0.000 A 
BRANCH  31  32
ATOM     32  O   UNL     1       7.991  12.797  16.986  0.00  0.00    +0.000 OA
ATOM     33  H   UNL     1       7.104  12.534  17.287  0.00  0.00    +0.000 HD
ENDBRANCH  31  32
ENDBRANCH  25  26
ENDBRANCH  22  24
ENDBRANCH  19  20
ENDBRANCH  18  19
ENDBRANCH   5  18
TORSDOF 11
ENDMDL
MODEL 7
REMARK VINA RESULT:      -7.1      6.437      8.788
REMARK  Name = 
REMARK  11 active torsions:
REMARK  status: ('A' for Active; 'I' for Inactive)
REMARK    1  A    between atoms: C_2  and  C_3
REMARK    2  A    between atoms: C_3  and  N_4
REMARK    3  A    between atoms: C_5  and  C_6
REMARK    4  A    between atoms: C_6  and  N_7
REMARK    5  A    between atoms: N_7  and  C_8
REMARK    6  A    between atoms: C_16  and  S_17
REMARK    7  A    between atoms: S_17  and  C_18
REMARK    8  A    between atoms: C_18  and  C_19
REMARK    9  A    between atoms: N_21  and  N_22
REMARK   10  A    between atoms: C_23  and  C_24
REMARK   11  A    between atoms: C_29  and  O_30
REMARK                            x       y       z     vdW  Elec       q    Type
REMARK                         _______ _______ _______ _____ _____    ______ ____
ROOT
ATOM      1  N   UNL     1       6.302   6.327  17.672  0.00  0.00    +0.000 N 
ATOM      2  C   UNL     1       6.481   5.056  18.190  0.00  0.00    +0.000 A 
ATOM      3  N   UNL     1       7.626   5.027  18.849  0.00  0.00    +0.000 NA
ATOM      4  N   UNL     1       8.208   6.264  18.770  0.00  0.00    +0.000 NA
ATOM      5  C   UNL     1       7.401   7.038  18.086  0.00  0.00    +0.000 A 
ENDROOT
BRANCH   1   6
ATOM      6  C   UNL     1       5.270   6.770  16.743  0.00  0.00    +0.000 C 
BRANCH   6   8
ATOM      7  C   UNL     1       3.212   7.786  17.796  0.00  0.00    +0.000 C 
ATOM      8  C   UNL     1       3.879   6.731  17.311  0.00  0.00    +0.000 C 
ENDBRANCH   6   8
ENDBRANCH   1   6
BRANCH   2   9
ATOM      9  C   UNL     1       5.536   3.895  18.061  0.00  0.00    +0.000 C 
BRANCH   9  10
ATOM     10  N   UNL     1       4.958   3.423  19.317  0.00  0.00    +0.000 N 
ATOM     11  H   UNL     1       5.420   2.601  19.697  0.00  0.00    +0.000 HD
BRANCH  10  12
ATOM     12  C   UNL     1       3.569   3.388  19.474  0.00  0.00    +0.000 A 
ATOM     13  C   UNL     1       2.858   2.319  18.909  0.00  0.00    +0.000 A 
ATOM     14  C   UNL     1       1.468   2.215  19.041  0.00  0.00    +0.000 A 
ATOM     15  C   UNL     1       0.764   3.162  19.777  0.00  0.00    +0.000 A 
ATOM     16  C   UNL     1       1.457   4.188  20.406  0.00  0.00    +0.000 A 
ATOM     17  C   UNL     1       2.849   4.291  20.269  0.00  0.00    +0.000 A 
ENDBRANCH  10  12
ENDBRANCH   9  10
ENDBRANCH   2   9
BRANCH   5  18
ATOM     18  S   UNL     1       7.696   8.706  17.741  0.00  0.00    +0.000 S 
BRANCH  18  19
ATOM     19  C   UNL     1       9.114   9.030  18.832  0.00  0.00    +0.000 C 
BRANCH  19  20
ATOM     20  C   UNL     1       9.227  10.518  19.096  0.00  0.00    +0.000 C 
ATOM     21  O   UNL     1       8.850  11.009  20.157  0.00  0.00    +0.000 OA
ATOM     22  N   UNL     1       9.773  11.236  18.041  0.00  0.00    +0.000 N 
ATOM     23  H   UNL     1       9.962  10.797  17.140  0.00  0.00    +0.000 HD
BRANCH  22  24
ATOM     24  N   UNL     1       9.941  12.578  18.184  0.00  0.00    +0.000 NA
ATOM     25  C   UNL     1      10.549  13.201  17.226  0.00  0.00    +0.000 C 
BRANCH  25  26
ATOM     26  C   UNL     1      10.783  14.658  17.314  0.00  0.00    +0.000 A 
ATOM     27  C   UNL     1      12.093  15.152  17.254  0.00  0.00    +0.000 A 
ATOM     28  C   UNL     1      12.331  16.525  17.336  0.00  0.00    +0.000 A 
ATOM     29  C   UNL     1      11.264  17.409  17.482  0.00  0.00    +0.000 A 
ATOM     30  C   UNL     1       9.955  16.925  17.543  0.00  0.00    +0.000 A 
ATOM     31  C   UNL     1       9.716  15.551  17.455  0.00  0.00    +0.000 A 
BRANCH  31  32
ATOM     32  O   UNL     1       8.433  15.082  17.499  0.00  0.00    +0.000 OA
ATOM     33  H   UNL     1       8.259  14.712  18.382  0.00  0.00    +0.000 HD
ENDBRANCH  31  32
ENDBRANCH  25  26
ENDBRANCH  22  24
ENDBRANCH  19  20
ENDBRANCH  18  19
ENDBRANCH   5  18
TORSDOF 11
ENDMDL
MODEL 8
REMARK VINA RESULT:      -7.1      2.780      4.455
REMARK  Name = 
REMARK  11 active torsions:
REMARK  status: ('A' for Active; 'I' for Inactive)
REMARK    1  A    between atoms: C_2  and  C_3
REMARK    2  A    between atoms: C_3  and  N_4
REMARK    3  A    between atoms: C_5  and  C_6
REMARK    4  A    between atoms: C_6  and  N_7
REMARK    5  A    between atoms: N_7  and  C_8
REMARK    6  A    between atoms: C_16  and  S_17
REMARK    7  A    between atoms: S_17  and  C_18
REMARK    8  A    between atoms: C_18  and  C_19
REMARK    9  A    between atoms: N_21  and  N_22
REMARK   10  A    between atoms: C_23  and  C_24
REMARK   11  A    between atoms: C_29  and  O_30
REMARK                            x       y       z     vdW  Elec       q    Type
REMARK                         _______ _______ _______ _____ _____    ______ ____
ROOT
ATOM      1  N   UNL     1       2.679   5.742  19.763  0.00  0.00    +0.000 N 
ATOM      2  C   UNL     1       3.394   5.268  18.677  0.00  0.00    +0.000 A 
ATOM      3  N   UNL     1       3.465   6.225  17.767  0.00  0.00    +0.000 NA
ATOM      4  N   UNL     1       2.801   7.326  18.239  0.00  0.00    +0.000 NA
ATOM      5  C   UNL     1       2.355   7.036  19.438  0.00  0.00    +0.000 A 
ENDROOT
BRANCH   1   6
ATOM      6  C   UNL     1       2.214   4.987  20.919  0.00  0.00    +0.000 C 
BRANCH   6   8
ATOM      7  C   UNL     1       1.175   2.693  21.115  0.00  0.00    +0.000 C 
ATOM      8  C   UNL     1       1.202   3.925  20.589  0.00  0.00    +0.000 C 
ENDBRANCH   6   8
ENDBRANCH   1   6
BRANCH   2   9
ATOM      9  C   UNL     1       4.019   3.908  18.541  0.00  0.00    +0.000 C 
BRANCH   9  10
ATOM     10  N   UNL     1       5.443   3.909  18.213  0.00  0.00    +0.000 N 
ATOM     11  H   UNL     1       6.025   4.351  18.920  0.00  0.00    +0.000 HD
BRANCH  10  12
ATOM     12  C   UNL     1       5.855   4.198  16.909  0.00  0.00    +0.000 A 
ATOM     13  C   UNL     1       7.136   4.736  16.714  0.00  0.00    +0.000 A 
ATOM     14  C   UNL     1       7.617   5.034  15.434  0.00  0.00    +0.000 A 
ATOM     15  C   UNL     1       6.838   4.763  14.315  0.00  0.00    +0.000 A 
ATOM     16  C   UNL     1       5.596   4.163  14.480  0.00  0.00    +0.000 A 
ATOM     17  C   UNL     1       5.116   3.868  15.764  0.00  0.00    +0.000 A 
ENDBRANCH  10  12
ENDBRANCH   9  10
ENDBRANCH   2   9
BRANCH   5  18
ATOM     18  S   UNL     1       1.470   8.125  20.447  0.00  0.00    +0.000 S 
BRANCH  18  19
ATOM     19  C   UNL     1       1.124   9.469  19.272  0.00  0.00    +0.000 C 
BRANCH  19  20
ATOM     20  C   UNL     1       0.059  10.384  19.839  0.00  0.00    +0.000 C 
ATOM     21  O   UNL     1      -1.109  10.312  19.467  0.00  0.00    +0.000 OA
ATOM     22  N   UNL     1       0.535  11.284  20.784  0.00  0.00    +0.000 N 
ATOM     23  H   UNL     1       1.533  11.379  20.971  0.00  0.00    +0.000 HD
BRANCH  22  24
ATOM     24  N   UNL     1      -0.346  12.136  21.374  0.00  0.00    +0.000 NA
ATOM     25  C   UNL     1      -0.808  11.794  22.534  0.00  0.00    +0.000 C 
BRANCH  25  26
ATOM     26  C   UNL     1      -1.780  12.660  23.234  0.00  0.00    +0.000 A 
ATOM     27  C   UNL     1      -3.039  12.148  23.576  0.00  0.00    +0.000 A 
ATOM     28  C   UNL     1      -3.969  12.952  24.237  0.00  0.00    +0.000 A 
ATOM     29  C   UNL     1      -3.648  14.270  24.556  0.00  0.00    +0.000 A 
ATOM     30  C   UNL     1      -2.395  14.788  24.219  0.00  0.00    +0.000 A 
ATOM     31  C   UNL     1      -1.461  13.981  23.562  0.00  0.00    +0.000 A 
BRANCH  31  32
ATOM     32  O   UNL     1      -0.231  14.486  23.248  0.00  0.00    +0.000 OA
ATOM     33  H   UNL     1      -0.026  14.273  22.321  0.00  0.00    +0.000 HD
ENDBRANCH  31  32
ENDBRANCH  25  26
ENDBRANCH  22  24
ENDBRANCH  19  20
ENDBRANCH  18  19
ENDBRANCH   5  18
TORSDOF 11
ENDMDL
MODEL 9
REMARK VINA RESULT:      -7.0      4.774      8.050
REMARK  Name = 
REMARK  11 active torsions:
REMARK  status: ('A' for Active; 'I' for Inactive)
REMARK    1  A    between atoms: C_2  and  C_3
REMARK    2  A    between atoms: C_3  and  N_4
REMARK    3  A    between atoms: C_5  and  C_6
REMARK    4  A    between atoms: C_6  and  N_7
REMARK    5  A    between atoms: N_7  and  C_8
REMARK    6  A    between atoms: C_16  and  S_17
REMARK    7  A    between atoms: S_17  and  C_18
REMARK    8  A    between atoms: C_18  and  C_19
REMARK    9  A    between atoms: N_21  and  N_22
REMARK   10  A    between atoms: C_23  and  C_24
REMARK   11  A    between atoms: C_29  and  O_30
REMARK                            x       y       z     vdW  Elec       q    Type
REMARK                         _______ _______ _______ _____ _____    ______ ____
ROOT
ATOM      1  N   UNL     1       4.563   5.598  18.734  0.00  0.00    +0.000 N 
ATOM      2  C   UNL     1       3.528   5.018  19.448  0.00  0.00    +0.000 A 
ATOM      3  N   UNL     1       3.887   3.793  19.791  0.00  0.00    +0.000 NA
ATOM      4  N   UNL     1       5.146   3.555  19.308  0.00  0.00    +0.000 NA
ATOM      5  C   UNL     1       5.549   4.644  18.700  0.00  0.00    +0.000 A 
ENDROOT
BRANCH   1   6
ATOM      6  C   UNL     1       4.547   6.868  18.021  0.00  0.00    +0.000 C 
BRANCH   6   8
ATOM      7  C   UNL     1       4.990   6.626  15.547  0.00  0.00    +0.000 C 
ATOM      8  C   UNL     1       4.144   6.755  16.577  0.00  0.00    +0.000 C 
ENDBRANCH   6   8
ENDBRANCH   1   6
BRANCH   2   9
ATOM      9  C   UNL     1       2.219   5.661  19.809  0.00  0.00    +0.000 C 
BRANCH   9  10
ATOM     10  N   UNL     1       2.326   6.898  20.579  0.00  0.00    +0.000 N 
ATOM     11  H   UNL     1       2.368   6.753  21.583  0.00  0.00    +0.000 HD
BRANCH  10  12
ATOM     12  C   UNL     1       1.555   8.009  20.220  0.00  0.00    +0.000 A 
ATOM     13  C   UNL     1       0.675   8.549  21.170  0.00  0.00    +0.000 A 
ATOM     14  C   UNL     1      -0.114   9.668  20.881  0.00  0.00    +0.000 A 
ATOM     15  C   UNL     1      -0.010  10.296  19.645  0.00  0.00    +0.000 A 
ATOM     16  C   UNL     1       0.908   9.822  18.716  0.00  0.00    +0.000 A 
ATOM     17  C   UNL     1       1.695   8.699  19.008  0.00  0.00    +0.000 A 
ENDBRANCH  10  12
ENDBRANCH   9  10
ENDBRANCH   2   9
BRANCH   5  18
ATOM     18  S   UNL     1       7.093   4.835  17.946  0.00  0.00    +0.000 S 
BRANCH  18  19
ATOM     19  C   UNL     1       7.883   6.009  19.089  0.00  0.00    +0.000 C 
BRANCH  19  20
ATOM     20  C   UNL     1       8.150   7.318  18.374  0.00  0.00    +0.000 C 
ATOM     21  O   UNL     1       7.844   7.476  17.195  0.00  0.00    +0.000 OA
ATOM     22  N   UNL     1       8.765   8.277  19.168  0.00  0.00    +0.000 N 
ATOM     23  H   UNL     1       9.100   8.056  20.105  0.00  0.00    +0.000 HD
BRANCH  22  24
ATOM     24  N   UNL     1       9.027   9.498  18.629  0.00  0.00    +0.000 NA
ATOM     25  C   UNL     1       9.470  10.413  19.431  0.00  0.00    +0.000 C 
BRANCH  25  26
ATOM     26  C   UNL     1       9.765  11.770  18.924  0.00  0.00    +0.000 A 
ATOM     27  C   UNL     1      10.891  12.456  19.401  0.00  0.00    +0.000 A 
ATOM     28  C   UNL     1      11.183  13.738  18.933  0.00  0.00    +0.000 A 
ATOM     29  C   UNL     1      10.353  14.341  17.990  0.00  0.00    +0.000 A 
ATOM     30  C   UNL     1       9.229  13.664  17.509  0.00  0.00    +0.000 A 
ATOM     31  C   UNL     1       8.939  12.378  17.974  0.00  0.00    +0.000 A 
BRANCH  31  32
ATOM     32  O   UNL     1       7.848  11.712  17.490  0.00  0.00    +0.000 OA
ATOM     33  H   UNL     1       7.041  12.170  17.781  0.00  0.00    +0.000 HD
ENDBRANCH  31  32
ENDBRANCH  25  26
ENDBRANCH  22  24
ENDBRANCH  19  20
ENDBRANCH  18  19
ENDBRANCH   5  18
TORSDOF 11
ENDMDL
