MODEL 1
REMARK VINA RESULT:      -7.1      0.000      0.000
REMARK  Name = 
REMARK  6 active torsions:
REMARK  status: ('A' for Active; 'I' for Inactive)
REMARK    1  A    between atoms: C_1  and  C_2
REMARK    2  A    between atoms: C_2  and  O_3
REMARK    3  A    between atoms: O_3  and  C_4
REMARK    4  A    between atoms: C_9  and  C_10
REMARK    5  A    between atoms: C_14  and  C_15
REMARK    6  A    between atoms: C_17  and  C_18
REMARK                            x       y       z     vdW  Elec       q    Type
REMARK                         _______ _______ _______ _____ _____    ______ ____
ROOT
ATOM      1  C   UNL     1       2.182   4.486  19.252  0.00  0.00    +0.000 A 
ATOM      2  C   UNL     1       1.314   4.382  20.352  0.00  0.00    +0.000 A 
ATOM      3  C   UNL     1       1.563   3.470  21.381  0.00  0.00    +0.000 A 
ATOM      4  C   UNL     1       2.672   2.638  21.319  0.00  0.00    +0.000 A 
ATOM      5  C   UNL     1       3.492   2.672  20.194  0.00  0.00    +0.000 A 
ATOM      6  C   UNL     1       3.233   3.567  19.137  0.00  0.00    +0.000 A 
ENDROOT
BRANCH   6   7
ATOM      7  C   UNL     1       4.172   3.488  17.987  0.00  0.00    +0.000 C 
ATOM      8  O   UNL     1       3.759   2.896  16.986  0.00  0.00    +0.000 OA
ATOM      9  N   UNL     1       5.445   4.111  17.897  0.00  0.00    +0.000 N 
ATOM     10  N   UNL     1       5.998   4.747  18.970  0.00  0.00    +0.000 NA
ATOM     11  C   UNL     1       7.197   5.165  18.552  0.00  0.00    +0.000 A 
ATOM     12  C   UNL     1       8.122   5.874  19.466  0.00  0.00    +0.000 C 
ATOM     13  C   UNL     1       7.403   4.893  17.187  0.00  0.00    +0.000 A 
ATOM     14  C   UNL     1       6.247   4.276  16.765  0.00  0.00    +0.000 A 
ATOM     15  C   UNL     1       5.835   3.889  15.390  0.00  0.00    +0.000 C 
ENDBRANCH   6   7
BRANCH   1  16
ATOM     16  O   UNL     1       2.097   5.486  18.319  0.00  0.00    +0.000 OA
BRANCH  16  18
ATOM     17  C   UNL     1       3.661   7.197  17.708  0.00  0.00    +0.000 C 
ATOM     18  C   UNL     1       2.605   6.766  18.704  0.00  0.00    +0.000 C 
ENDBRANCH  16  18
ENDBRANCH   1  16
TORSDOF 3
ENDMDL
MODEL 2
REMARK VINA RESULT:      -7.0      1.607      2.628
REMARK  Name = 
REMARK  6 active torsions:
REMARK  status: ('A' for Active; 'I' for Inactive)
REMARK    1  A    between atoms: C_1  and  C_2
REMARK    2  A    between atoms: C_2  and  O_3
REMARK    3  A    between atoms: O_3  and  C_4
REMARK    4  A    between atoms: C_9  and  C_10
REMARK    5  A    between atoms: C_14  and  C_15
REMARK    6  A    between atoms: C_17  and  C_18
REMARK                            x       y       z     vdW  Elec       q    Type
REMARK                         _______ _______ _______ _____ _____    ______ ____
ROOT
ATOM      1  C   UNL     1       2.340   4.530  18.153  0.00  0.00    +0.000 A 
ATOM      2  C   UNL     1       1.102   3.874  18.254  0.00  0.00    +0.000 A 
ATOM      3  C   UNL     1       1.014   2.578  18.770  0.00  0.00    +0.000 A 
ATOM      4  C   UNL     1       2.163   1.914  19.177  0.00  0.00    +0.000 A 
ATOM      5  C   UNL     1       3.404   2.521  19.003  0.00  0.00    +0.000 A 
ATOM      6  C   UNL     1       3.505   3.815  18.456  0.00  0.00    +0.000 A 
ENDROOT
BRANCH   6   7
ATOM      7  C   UNL     1       4.889   4.339  18.306  0.00  0.00    +0.000 C 
ATOM      8  O   UNL     1       5.444   4.713  19.343  0.00  0.00    +0.000 OA
ATOM      9  N   UNL     1       5.659   4.353  17.113  0.00  0.00    +0.000 N 
ATOM     10  N   UNL     1       5.111   4.000  15.915  0.00  0.00    +0.000 NA
ATOM     11  C   UNL     1       6.085   4.175  15.017  0.00  0.00    +0.000 A 
ATOM     12  C   UNL     1       5.851   3.928  13.575  0.00  0.00    +0.000 C 
ATOM     13  C   UNL     1       7.298   4.550  15.623  0.00  0.00    +0.000 A 
ATOM     14  C   UNL     1       7.026   4.598  16.972  0.00  0.00    +0.000 A 
ATOM     15  C   UNL     1       7.959   4.800  18.112  0.00  0.00    +0.000 C 
ENDBRANCH   6   7
BRANCH   1  16
ATOM     16  O   UNL     1       2.463   5.859  17.842  0.00  0.00    +0.000 OA
BRANCH  16  18
ATOM     17  C   UNL     1       2.207   8.181  18.382  0.00  0.00    +0.000 C 
ATOM     18  C   UNL     1       2.394   6.782  18.932  0.00  0.00    +0.000 C 
ENDBRANCH  16  18
ENDBRANCH   1  16
TORSDOF 3
ENDMDL
MODEL 3
REMARK VINA RESULT:      -6.8      1.843      5.119
REMARK  Name = 
REMARK  6 active torsions:
REMARK  status: ('A' for Active; 'I' for Inactive)
REMARK    1  A    between atoms: C_1  and  C_2
REMARK    2  A    between atoms: C_2  and  O_3
REMARK    3  A    between atoms: O_3  and  C_4
REMARK    4  A    between atoms: C_9  and  C_10
REMARK    5  A    between atoms: C_14  and  C_15
REMARK    6  A    between atoms: C_17  and  C_18
REMARK                            x       y       z     vdW  Elec       q    Type
REMARK                         _______ _______ _______ _____ _____    ______ ____
ROOT
ATOM      1  C   UNL     1       5.831   5.965  17.196  0.00  0.00    +0.000 A 
ATOM      2  C   UNL     1       6.951   6.811  17.120  0.00  0.00    +0.000 A 
ATOM      3  C   UNL     1       7.898   6.844  18.147  0.00  0.00    +0.000 A 
ATOM      4  C   UNL     1       7.733   6.045  19.270  0.00  0.00    +0.000 A 
ATOM      5  C   UNL     1       6.585   5.266  19.395  0.00  0.00    +0.000 A 
ATOM      6  C   UNL     1       5.609   5.249  18.379  0.00  0.00    +0.000 A 
ENDROOT
BRANCH   6   7
ATOM      7  C   UNL     1       4.424   4.392  18.645  0.00  0.00    +0.000 C 
ATOM      8  O   UNL     1       4.503   3.220  18.265  0.00  0.00    +0.000 OA
ATOM      9  N   UNL     1       3.266   4.762  19.378  0.00  0.00    +0.000 N 
ATOM     10  N   UNL     1       3.075   6.046  19.796  0.00  0.00    +0.000 NA
ATOM     11  C   UNL     1       1.881   6.046  20.398  0.00  0.00    +0.000 A 
ATOM     12  C   UNL     1       1.305   7.293  20.956  0.00  0.00    +0.000 C 
ATOM     13  C   UNL     1       1.325   4.757  20.465  0.00  0.00    +0.000 A 
ATOM     14  C   UNL     1       2.251   3.934  19.865  0.00  0.00    +0.000 A 
ATOM     15  C   UNL     1       2.270   2.450  19.769  0.00  0.00    +0.000 C 
ENDBRANCH   6   7
BRANCH   1  16
ATOM     16  O   UNL     1       4.981   5.748  16.143  0.00  0.00    +0.000 OA
BRANCH  16  18
ATOM     17  C   UNL     1       5.995   3.884  15.029  0.00  0.00    +0.000 C 
ATOM     18  C   UNL     1       5.578   5.335  14.911  0.00  0.00    +0.000 C 
ENDBRANCH  16  18
ENDBRANCH   1  16
TORSDOF 3
ENDMDL
MODEL 4
REMARK VINA RESULT:      -6.5      1.727      5.224
REMARK  Name = 
REMARK  6 active torsions:
REMARK  status: ('A' for Active; 'I' for Inactive)
REMARK    1  A    between atoms: C_1  and  C_2
REMARK    2  A    between atoms: C_2  and  O_3
REMARK    3  A    between atoms: O_3  and  C_4
REMARK    4  A    between atoms: C_9  and  C_10
REMARK    5  A    between atoms: C_14  and  C_15
REMARK    6  A    between atoms: C_17  and  C_18
REMARK                            x       y       z     vdW  Elec       q    Type
REMARK                         _______ _______ _______ _____ _____    ______ ____
ROOT
ATOM      1  C   UNL     1       6.400   4.532  17.650  0.00  0.00    +0.000 A 
ATOM      2  C   UNL     1       7.261   4.673  16.549  0.00  0.00    +0.000 A 
ATOM      3  C   UNL     1       6.784   4.556  15.241  0.00  0.00    +0.000 A 
ATOM      4  C   UNL     1       5.442   4.279  15.015  0.00  0.00    +0.000 A 
ATOM      5  C   UNL     1       4.596   4.053  16.098  0.00  0.00    +0.000 A 
ATOM      6  C   UNL     1       5.076   4.139  17.420  0.00  0.00    +0.000 A 
ENDROOT
BRANCH   6   7
ATOM      7  C   UNL     1       4.075   3.856  18.482  0.00  0.00    +0.000 C 
ATOM      8  O   UNL     1       4.021   2.690  18.882  0.00  0.00    +0.000 OA
ATOM      9  N   UNL     1       3.258   4.810  19.144  0.00  0.00    +0.000 N 
ATOM     10  N   UNL     1       3.221   6.112  18.737  0.00  0.00    +0.000 NA
ATOM     11  C   UNL     1       2.327   6.705  19.535  0.00  0.00    +0.000 A 
ATOM     12  C   UNL     1       1.982   8.136  19.368  0.00  0.00    +0.000 C 
ATOM     13  C   UNL     1       1.843   5.830  20.525  0.00  0.00    +0.000 A 
ATOM     14  C   UNL     1       2.496   4.639  20.302  0.00  0.00    +0.000 A 
ATOM     15  C   UNL     1       2.491   3.397  21.119  0.00  0.00    +0.000 C 
ENDBRANCH   6   7
BRANCH   1  16
ATOM     16  O   UNL     1       6.769   4.827  18.936  0.00  0.00    +0.000 OA
BRANCH  16  18
ATOM     17  C   UNL     1       7.973   6.885  18.679  0.00  0.00    +0.000 C 
ATOM     18  C   UNL     1       8.052   5.435  19.111  0.00  0.00    +0.000 C 
ENDBRANCH  16  18
ENDBRANCH   1  16
TORSDOF 3
ENDMDL
MODEL 5
REMARK VINA RESULT:      -6.4      2.006      5.318
REMARK  Name = 
REMARK  6 active torsions:
REMARK  status: ('A' for Active; 'I' for Inactive)
REMARK    1  A    between atoms: C_1  and  C_2
REMARK    2  A    between atoms: C_2  and  O_3
REMARK    3  A    between atoms: O_3  and  C_4
REMARK    4  A    between atoms: C_9  and  C_10
REMARK    5  A    between atoms: C_14  and  C_15
REMARK    6  A    between atoms: C_17  and  C_18
REMARK                            x       y       z     vdW  Elec       q    Type
REMARK                         _______ _______ _______ _____ _____    ______ ____
ROOT
ATOM      1  C   UNL     1       6.473   5.035  17.398  0.00  0.00    +0.000 A 
ATOM      2  C   UNL     1       7.386   4.844  16.347  0.00  0.00    +0.000 A 
ATOM      3  C   UNL     1       6.961   4.378  15.100  0.00  0.00    +0.000 A 
ATOM      4  C   UNL     1       5.621   4.082  14.890  0.00  0.00    +0.000 A 
ATOM      5  C   UNL     1       4.722   4.187  15.947  0.00  0.00    +0.000 A 
ATOM      6  C   UNL     1       5.146   4.626  17.217  0.00  0.00    +0.000 A 
ENDROOT
BRANCH   6   7
ATOM      7  C   UNL     1       4.090   4.674  18.263  0.00  0.00    +0.000 C 
ATOM      8  O   UNL     1       3.960   3.658  18.952  0.00  0.00    +0.000 OA
ATOM      9  N   UNL     1       3.298   5.800  18.608  0.00  0.00    +0.000 N 
ATOM     10  N   UNL     1       3.345   6.948  17.872  0.00  0.00    +0.000 NA
ATOM     11  C   UNL     1       2.452   7.766  18.438  0.00  0.00    +0.000 A 
ATOM     12  C   UNL     1       2.188   9.114  17.883  0.00  0.00    +0.000 C 
ATOM     13  C   UNL     1       1.884   7.204  19.596  0.00  0.00    +0.000 A 
ATOM     14  C   UNL     1       2.483   5.972  19.728  0.00  0.00    +0.000 A 
ATOM     15  C   UNL     1       2.380   4.991  20.841  0.00  0.00    +0.000 C 
ENDBRANCH   6   7
BRANCH   1  16
ATOM     16  O   UNL     1       6.797   5.667  18.570  0.00  0.00    +0.000 OA
BRANCH  16  18
ATOM     17  C   UNL     1       7.635   7.768  17.773  0.00  0.00    +0.000 C 
ATOM     18  C   UNL     1       7.955   6.506  18.547  0.00  0.00    +0.000 C 
ENDBRANCH  16  18
ENDBRANCH   1  16
TORSDOF 3
ENDMDL
MODEL 6
REMARK VINA RESULT:      -6.4      1.356      3.173
REMARK  Name = 
REMARK  6 active torsions:
REMARK  status: ('A' for Active; 'I' for Inactive)
REMARK    1  A    between atoms: C_1  and  C_2
REMARK    2  A    between atoms: C_2  and  O_3
REMARK    3  A    between atoms: O_3  and  C_4
REMARK    4  A    between atoms: C_9  and  C_10
REMARK    5  A    between atoms: C_14  and  C_15
REMARK    6  A    between atoms: C_17  and  C_18
REMARK                            x       y       z     vdW  Elec       q    Type
REMARK                         _______ _______ _______ _____ _____    ______ ____
ROOT
ATOM      1  C   UNL     1       2.329   6.063  19.958  0.00  0.00    +0.000 A 
ATOM      2  C   UNL     1       1.684   7.124  20.615  0.00  0.00    +0.000 A 
ATOM      3  C   UNL     1       1.480   8.350  19.975  0.00  0.00    +0.000 A 
ATOM      4  C   UNL     1       1.933   8.538  18.676  0.00  0.00    +0.000 A 
ATOM      5  C   UNL     1       2.648   7.524  18.045  0.00  0.00    +0.000 A 
ATOM      6  C   UNL     1       2.885   6.296  18.694  0.00  0.00    +0.000 A 
ENDROOT
BRANCH   6   7
ATOM      7  C   UNL     1       3.678   5.306  17.917  0.00  0.00    +0.000 C 
ATOM      8  O   UNL     1       3.049   4.616  17.111  0.00  0.00    +0.000 OA
ATOM      9  N   UNL     1       5.090   5.155  17.941  0.00  0.00    +0.000 N 
ATOM     10  N   UNL     1       5.859   5.844  18.832  0.00  0.00    +0.000 NA
ATOM     11  C   UNL     1       7.111   5.428  18.612  0.00  0.00    +0.000 A 
ATOM     12  C   UNL     1       8.240   5.934  19.428  0.00  0.00    +0.000 C 
ATOM     13  C   UNL     1       7.187   4.542  17.523  0.00  0.00    +0.000 A 
ATOM     14  C   UNL     1       5.895   4.426  17.062  0.00  0.00    +0.000 A 
ATOM     15  C   UNL     1       5.388   3.734  15.848  0.00  0.00    +0.000 C 
ENDBRANCH   6   7
BRANCH   1  16
ATOM     16  O   UNL     1       2.382   4.789  20.460  0.00  0.00    +0.000 OA
BRANCH  16  18
ATOM     17  C   UNL     1       1.345   2.782  21.262  0.00  0.00    +0.000 C 
ATOM     18  C   UNL     1       1.165   4.040  20.437  0.00  0.00    +0.000 C 
ENDBRANCH  16  18
ENDBRANCH   1  16
TORSDOF 3
ENDMDL
MODEL 7
REMARK VINA RESULT:      -6.4      2.020      5.405
REMARK  Name = 
REMARK  6 active torsions:
REMARK  status: ('A' for Active; 'I' for Inactive)
REMARK    1  A    between atoms: C_1  and  C_2
REMARK    2  A    between atoms: C_2  and  O_3
REMARK    3  A    between atoms: O_3  and  C_4
REMARK    4  A    between atoms: C_9  and  C_10
REMARK    5  A    between atoms: C_14  and  C_15
REMARK    6  A    between atoms: C_17  and  C_18
REMARK                            x       y       z     vdW  Elec       q    Type
REMARK                         _______ _______ _______ _____ _____    ______ ____
ROOT
ATOM      1  C   UNL     1       6.516   5.326  17.662  0.00  0.00    +0.000 A 
ATOM      2  C   UNL     1       7.292   4.494  16.837  0.00  0.00    +0.000 A 
ATOM      3  C   UNL     1       6.808   4.046  15.606  0.00  0.00    +0.000 A 
ATOM      4  C   UNL     1       5.535   4.410  15.187  0.00  0.00    +0.000 A 
ATOM      5  C   UNL     1       4.724   5.164  16.031  0.00  0.00    +0.000 A 
ATOM      6  C   UNL     1       5.193   5.594  17.289  0.00  0.00    +0.000 A 
ENDROOT
BRANCH   6   7
ATOM      7  C   UNL     1       4.221   6.374  18.100  0.00  0.00    +0.000 C 
ATOM      8  O   UNL     1       4.089   7.563  17.797  0.00  0.00    +0.000 OA
ATOM      9  N   UNL     1       3.365   5.861  19.110  0.00  0.00    +0.000 N 
ATOM     10  N   UNL     1       3.473   4.570  19.538  0.00  0.00    +0.000 NA
ATOM     11  C   UNL     1       2.565   4.445  20.512  0.00  0.00    +0.000 A 
ATOM     12  C   UNL     1       2.411   3.174  21.257  0.00  0.00    +0.000 C 
ATOM     13  C   UNL     1       1.795   5.612  20.666  0.00  0.00    +0.000 A 
ATOM     14  C   UNL     1       2.275   6.488  19.718  0.00  0.00    +0.000 A 
ATOM     15  C   UNL     1       1.754   7.822  19.321  0.00  0.00    +0.000 C 
ENDBRANCH   6   7
BRANCH   1  16
ATOM     16  O   UNL     1       7.008   5.949  18.779  0.00  0.00    +0.000 OA
BRANCH  16  18
ATOM     17  C   UNL     1       7.777   7.930  17.669  0.00  0.00    +0.000 C 
ATOM     18  C   UNL     1       8.150   6.789  18.593  0.00  0.00    +0.000 C 
ENDBRANCH  16  18
ENDBRANCH   1  16
TORSDOF 3
ENDMDL
MODEL 8
REMARK VINA RESULT:      -6.3      1.744      3.361
REMARK  Name = 
REMARK  6 active torsions:
REMARK  status: ('A' for Active; 'I' for Inactive)
REMARK    1  A    between atoms: C_1  and  C_2
REMARK    2  A    between atoms: C_2  and  O_3
REMARK    3  A    between atoms: O_3  and  C_4
REMARK    4  A    between atoms: C_9  and  C_10
REMARK    5  A    between atoms: C_14  and  C_15
REMARK    6  A    between atoms: C_17  and  C_18
REMARK                            x       y       z     vdW  Elec       q    Type
REMARK                         _______ _______ _______ _____ _____    ______ ____
ROOT
ATOM      1  C   UNL     1       3.347   3.673  19.814  0.00  0.00    +0.000 A 
ATOM      2  C   UNL     1       2.053   3.718  20.361  0.00  0.00    +0.000 A 
ATOM      3  C   UNL     1       1.365   4.928  20.483  0.00  0.00    +0.000 A 
ATOM      4  C   UNL     1       1.965   6.112  20.076  0.00  0.00    +0.000 A 
ATOM      5  C   UNL     1       3.277   6.091  19.611  0.00  0.00    +0.000 A 
ATOM      6  C   UNL     1       3.990   4.880  19.513  0.00  0.00    +0.000 A 
ENDROOT
BRANCH   6   7
ATOM      7  C   UNL     1       5.388   5.000  19.022  0.00  0.00    +0.000 C 
ATOM      8  O   UNL     1       6.252   5.206  19.879  0.00  0.00    +0.000 OA
ATOM      9  N   UNL     1       5.831   4.798  17.688  0.00  0.00    +0.000 N 
ATOM     10  N   UNL     1       4.943   4.610  16.670  0.00  0.00    +0.000 NA
ATOM     11  C   UNL     1       5.689   4.506  15.566  0.00  0.00    +0.000 A 
ATOM     12  C   UNL     1       5.065   4.332  14.233  0.00  0.00    +0.000 C 
ATOM     13  C   UNL     1       7.065   4.531  15.856  0.00  0.00    +0.000 A 
ATOM     14  C   UNL     1       7.141   4.653  17.226  0.00  0.00    +0.000 A 
ATOM     15  C   UNL     1       8.334   4.590  18.111  0.00  0.00    +0.000 C 
ENDBRANCH   6   7
BRANCH   1  16
ATOM     16  O   UNL     1       3.987   2.505  19.492  0.00  0.00    +0.000 OA
BRANCH  16  18
ATOM     17  C   UNL     1       2.754   2.101  17.476  0.00  0.00    +0.000 C 
ATOM     18  C   UNL     1       3.215   1.522  18.797  0.00  0.00    +0.000 C 
ENDBRANCH  16  18
ENDBRANCH   1  16
TORSDOF 3
ENDMDL
MODEL 9
REMARK VINA RESULT:      -6.2      1.570      2.739
REMARK  Name = 
REMARK  6 active torsions:
REMARK  status: ('A' for Active; 'I' for Inactive)
REMARK    1  A    between atoms: C_1  and  C_2
REMARK    2  A    between atoms: C_2  and  O_3
REMARK    3  A    between atoms: O_3  and  C_4
REMARK    4  A    between atoms: C_9  and  C_10
REMARK    5  A    between atoms: C_14  and  C_15
REMARK    6  A    between atoms: C_17  and  C_18
REMARK                            x       y       z     vdW  Elec       q    Type
REMARK                         _______ _______ _______ _____ _____    ______ ____
ROOT
ATOM      1  C   UNL     1       2.708   4.418  19.853  0.00  0.00    +0.000 A 
ATOM      2  C   UNL     1       1.973   5.019  20.889  0.00  0.00    +0.000 A 
ATOM      3  C   UNL     1       1.603   6.365  20.821  0.00  0.00    +0.000 A 
ATOM      4  C   UNL     1       1.975   7.133  19.726  0.00  0.00    +0.000 A 
ATOM      5  C   UNL     1       2.775   6.571  18.734  0.00  0.00    +0.000 A 
ATOM      6  C   UNL     1       3.179   5.223  18.809  0.00  0.00    +0.000 A 
ENDROOT
BRANCH   6   7
ATOM      7  C   UNL     1       4.047   4.754  17.697  0.00  0.00    +0.000 C 
ATOM      8  O   UNL     1       3.575   3.873  16.972  0.00  0.00    +0.000 OA
ATOM      9  N   UNL     1       5.310   5.289  17.331  0.00  0.00    +0.000 N 
ATOM     10  N   UNL     1       5.927   6.232  18.101  0.00  0.00    +0.000 NA
ATOM     11  C   UNL     1       7.097   6.467  17.499  0.00  0.00    +0.000 A 
ATOM     12  C   UNL     1       8.075   7.421  18.073  0.00  0.00    +0.000 C 
ATOM     13  C   UNL     1       7.219   5.758  16.291  0.00  0.00    +0.000 A 
ATOM     14  C   UNL     1       6.041   5.058  16.164  0.00  0.00    +0.000 A 
ATOM     15  C   UNL     1       5.547   4.248  15.019  0.00  0.00    +0.000 C 
ENDBRANCH   6   7
BRANCH   1  16
ATOM     16  O   UNL     1       2.929   3.067  19.774  0.00  0.00    +0.000 OA
BRANCH  16  18
ATOM     17  C   UNL     1       0.867   2.419  18.739  0.00  0.00    +0.000 C 
ATOM     18  C   UNL     1       1.787   2.221  19.925  0.00  0.00    +0.000 C 
ENDBRANCH  16  18
ENDBRANCH   1  16
TORSDOF 3
ENDMDL
