MODEL 1
REMARK VINA RESULT:      -7.8      0.000      0.000
REMARK  Name = 
REMARK  8 active torsions:
REMARK  status: ('A' for Active; 'I' for Inactive)
REMARK    1  A    between atoms: C_1  and  N_2
REMARK    2  A    between atoms: N_2  and  C_20
REMARK    3  A    between atoms: C_3  and  C_5
REMARK    4  A    between atoms: C_5  and  C_6
REMARK    5  A    between atoms: C_5  and  C_7
REMARK    6  A    between atoms: C_5  and  N_8
REMARK    7  A    between atoms: N_8  and  C_9
REMARK    8  A    between atoms: C_12  and  C_13
REMARK                            x       y       z     vdW  Elec       q    Type
REMARK                         _______ _______ _______ _____ _____    ______ ____
ROOT
ATOM      1  C   UNL     1       6.893   6.326  17.926  0.00  0.00    +0.000 C 
ATOM      2  C   UNL     1       7.376   5.421  19.086  0.00  0.00    +0.000 C 
ATOM      3  C   UNL     1       7.619   7.680  17.739  0.00  0.00    +0.000 C 
ENDROOT
BRANCH   1   6
ATOM      4  C   UNL     1       5.346   6.848  15.337  0.00  0.00    +0.000 C 
ATOM      5  N   UNL     1       6.231   5.679  15.467  0.00  0.00    +0.000 N 
ATOM      6  C   UNL     1       6.978   5.393  16.643  0.00  0.00    +0.000 C 
ATOM      7  O   UNL     1       7.843   4.502  16.680  0.00  0.00    +0.000 OA
BRANCH   5   8
ATOM      8  C   UNL     1       6.260   4.795  14.301  0.00  0.00    +0.000 A 
ATOM      9  C   UNL     1       5.246   3.857  14.044  0.00  0.00    +0.000 A 
ATOM     10  C   UNL     1       5.302   2.981  12.946  0.00  0.00    +0.000 A 
ATOM     11  C   UNL     1       6.371   3.035  12.067  0.00  0.00    +0.000 A 
ATOM     12 CL   UNL     1       6.454   1.953  10.735  0.00  0.00    +0.000 Cl
ATOM     13  C   UNL     1       7.372   3.972  12.263  0.00  0.00    +0.000 A 
ATOM     14  C   UNL     1       7.311   4.845  13.360  0.00  0.00    +0.000 A 
ENDBRANCH   5   8
ENDBRANCH   1   6
BRANCH   1  15
ATOM     15  N   UNL     1       5.450   6.670  18.162  0.00  0.00    +0.000 N 
ATOM     16  H   UNL     1       5.139   7.486  17.637  0.00  0.00    +0.000 HD
BRANCH  15  17
ATOM     17  C   UNL     1       4.488   5.662  18.298  0.00  0.00    +0.000 A 
ATOM     18  N   UNL     1       4.914   4.422  18.619  0.00  0.00    +0.000 NA
ATOM     19  C   UNL     1       4.020   3.451  18.893  0.00  0.00    +0.000 A 
ATOM     20  C   UNL     1       2.655   3.648  18.876  0.00  0.00    +0.000 A 
ATOM     21  C   UNL     1       2.198   4.920  18.539  0.00  0.00    +0.000 A 
ATOM     22  C   UNL     1       3.116   5.936  18.238  0.00  0.00    +0.000 A 
ATOM     23 CL   UNL     1       2.508   7.503  17.843  0.00  0.00    +0.000 Cl
BRANCH  20  24
ATOM     24  C   UNL     1       1.739   2.517  19.229  0.00  0.00    +0.000 C 
ATOM     25  F   UNL     1       1.297   2.556  20.519  0.00  0.00    +0.000 F 
ATOM     26  F   UNL     1       0.618   2.494  18.458  0.00  0.00    +0.000 F 
ATOM     27  F   UNL     1       2.328   1.300  19.077  0.00  0.00    +0.000 F 
ENDBRANCH  20  24
ENDBRANCH  15  17
ENDBRANCH   1  15
TORSDOF 5
ENDMDL
MODEL 2
REMARK VINA RESULT:      -7.8      4.291      7.237
REMARK  Name = 
REMARK  8 active torsions:
REMARK  status: ('A' for Active; 'I' for Inactive)
REMARK    1  A    between atoms: C_1  and  N_2
REMARK    2  A    between atoms: N_2  and  C_20
REMARK    3  A    between atoms: C_3  and  C_5
REMARK    4  A    between atoms: C_5  and  C_6
REMARK    5  A    between atoms: C_5  and  C_7
REMARK    6  A    between atoms: C_5  and  N_8
REMARK    7  A    between atoms: N_8  and  C_9
REMARK    8  A    between atoms: C_12  and  C_13
REMARK                            x       y       z     vdW  Elec       q    Type
REMARK                         _______ _______ _______ _____ _____    ______ ____
ROOT
ATOM      1  C   UNL     1       3.755   2.811  19.109  0.00  0.00    +0.000 C 
ATOM      2  C   UNL     1       4.145   2.047  20.398  0.00  0.00    +0.000 C 
ATOM      3  C   UNL     1       2.713   2.141  18.180  0.00  0.00    +0.000 C 
ENDROOT
BRANCH   1   6
ATOM      4  C   UNL     1       1.938   4.695  17.522  0.00  0.00    +0.000 C 
ATOM      5  N   UNL     1       2.456   5.079  18.844  0.00  0.00    +0.000 N 
ATOM      6  C   UNL     1       3.296   4.242  19.627  0.00  0.00    +0.000 C 
ATOM      7  O   UNL     1       3.588   4.507  20.806  0.00  0.00    +0.000 OA
BRANCH   5   8
ATOM      8  C   UNL     1       2.074   6.421  19.289  0.00  0.00    +0.000 A 
ATOM      9  C   UNL     1       1.566   6.668  20.576  0.00  0.00    +0.000 A 
ATOM     10  C   UNL     1       1.160   7.951  20.982  0.00  0.00    +0.000 A 
ATOM     11  C   UNL     1       1.268   9.023  20.112  0.00  0.00    +0.000 A 
ATOM     12 CL   UNL     1       0.754  10.589  20.597  0.00  0.00    +0.000 Cl
ATOM     13  C   UNL     1       1.800   8.828  18.848  0.00  0.00    +0.000 A 
ATOM     14  C   UNL     1       2.204   7.545  18.447  0.00  0.00    +0.000 A 
ENDBRANCH   5   8
ENDBRANCH   1   6
BRANCH   1  15
ATOM     15  N   UNL     1       4.989   2.988  18.272  0.00  0.00    +0.000 N 
ATOM     16  H   UNL     1       4.986   2.422  17.425  0.00  0.00    +0.000 HD
BRANCH  15  17
ATOM     17  C   UNL     1       5.582   4.249  18.129  0.00  0.00    +0.000 A 
ATOM     18  N   UNL     1       6.255   4.752  19.186  0.00  0.00    +0.000 NA
ATOM     19  C   UNL     1       6.955   5.896  19.056  0.00  0.00    +0.000 A 
ATOM     20  C   UNL     1       7.041   6.606  17.877  0.00  0.00    +0.000 A 
ATOM     21  C   UNL     1       6.345   6.106  16.779  0.00  0.00    +0.000 A 
ATOM     22  C   UNL     1       5.601   4.923  16.902  0.00  0.00    +0.000 A 
ATOM     23 CL   UNL     1       4.768   4.327  15.512  0.00  0.00    +0.000 Cl
BRANCH  20  24
ATOM     24  C   UNL     1       7.872   7.851  17.819  0.00  0.00    +0.000 C 
ATOM     25  F   UNL     1       8.605   7.963  16.674  0.00  0.00    +0.000 F 
ATOM     26  F   UNL     1       7.121   8.984  17.886  0.00  0.00    +0.000 F 
ATOM     27  F   UNL     1       8.767   7.929  18.841  0.00  0.00    +0.000 F 
ENDBRANCH  20  24
ENDBRANCH  15  17
ENDBRANCH   1  15
TORSDOF 5
ENDMDL
MODEL 3
REMARK VINA RESULT:      -7.7      3.742      4.960
REMARK  Name = 
REMARK  8 active torsions:
REMARK  status: ('A' for Active; 'I' for Inactive)
REMARK    1  A    between atoms: C_1  and  N_2
REMARK    2  A    between atoms: N_2  and  C_20
REMARK    3  A    between atoms: C_3  and  C_5
REMARK    4  A    between atoms: C_5  and  C_6
REMARK    5  A    between atoms: C_5  and  C_7
REMARK    6  A    between atoms: C_5  and  N_8
REMARK    7  A    between atoms: N_8  and  C_9
REMARK    8  A    between atoms: C_12  and  C_13
REMARK                            x       y       z     vdW  Elec       q    Type
REMARK                         _______ _______ _______ _____ _____    ______ ____
ROOT
ATOM      1  C   UNL     1       3.002   4.248  19.263  0.00  0.00    +0.000 C 
ATOM      2  C   UNL     1       1.483   4.260  18.963  0.00  0.00    +0.000 C 
ATOM      3  C   UNL     1       3.523   3.149  20.221  0.00  0.00    +0.000 C 
ENDROOT
BRANCH   1   6
ATOM      4  C   UNL     1       5.964   4.835  18.763  0.00  0.00    +0.000 C 
ATOM      5  N   UNL     1       5.064   4.485  17.653  0.00  0.00    +0.000 N 
ATOM      6  C   UNL     1       3.683   4.196  17.829  0.00  0.00    +0.000 C 
ATOM      7  O   UNL     1       2.977   3.742  16.912  0.00  0.00    +0.000 OA
BRANCH   5   8
ATOM      8  C   UNL     1       5.687   4.494  16.328  0.00  0.00    +0.000 A 
ATOM      9  C   UNL     1       6.893   5.167  16.070  0.00  0.00    +0.000 A 
ATOM     10  C   UNL     1       7.463   5.209  14.786  0.00  0.00    +0.000 A 
ATOM     11  C   UNL     1       6.845   4.561  13.729  0.00  0.00    +0.000 A 
ATOM     12 CL   UNL     1       7.528   4.626  12.154  0.00  0.00    +0.000 Cl
ATOM     13  C   UNL     1       5.675   3.853  13.950  0.00  0.00    +0.000 A 
ATOM     14  C   UNL     1       5.110   3.815  15.234  0.00  0.00    +0.000 A 
ENDBRANCH   5   8
ENDBRANCH   1   6
BRANCH   1  15
ATOM     15  N   UNL     1       3.367   5.553  19.909  0.00  0.00    +0.000 N 
ATOM     16  H   UNL     1       4.353   5.792  19.807  0.00  0.00    +0.000 HD
BRANCH  15  17
ATOM     17  C   UNL     1       2.494   6.647  19.857  0.00  0.00    +0.000 A 
ATOM     18  N   UNL     1       1.673   6.849  20.909  0.00  0.00    +0.000 NA
ATOM     19  C   UNL     1       0.912   7.960  20.967  0.00  0.00    +0.000 A 
ATOM     20  C   UNL     1       0.923   8.941  19.998  0.00  0.00    +0.000 A 
ATOM     21  C   UNL     1       1.758   8.744  18.900  0.00  0.00    +0.000 A 
ATOM     22  C   UNL     1       2.545   7.586  18.820  0.00  0.00    +0.000 A 
ATOM     23 CL   UNL     1       3.581   7.389  17.452  0.00  0.00    +0.000 Cl
BRANCH  20  24
ATOM     24  C   UNL     1       0.067  10.159  20.165  0.00  0.00    +0.000 C 
ATOM     25  F   UNL     1       0.628  11.292  19.655  0.00  0.00    +0.000 F 
ATOM     26  F   UNL     1      -1.140  10.037  19.549  0.00  0.00    +0.000 F 
ATOM     27  F   UNL     1      -0.200  10.434  21.471  0.00  0.00    +0.000 F 
ENDBRANCH  20  24
ENDBRANCH  15  17
ENDBRANCH   1  15
TORSDOF 5
ENDMDL
MODEL 4
REMARK VINA RESULT:      -7.7      3.882      6.896
REMARK  Name = 
REMARK  8 active torsions:
REMARK  status: ('A' for Active; 'I' for Inactive)
REMARK    1  A    between atoms: C_1  and  N_2
REMARK    2  A    between atoms: N_2  and  C_20
REMARK    3  A    between atoms: C_3  and  C_5
REMARK    4  A    between atoms: C_5  and  C_6
REMARK    5  A    between atoms: C_5  and  C_7
REMARK    6  A    between atoms: C_5  and  N_8
REMARK    7  A    between atoms: N_8  and  C_9
REMARK    8  A    between atoms: C_12  and  C_13
REMARK                            x       y       z     vdW  Elec       q    Type
REMARK                         _______ _______ _______ _____ _____    ______ ____
ROOT
ATOM      1  C   UNL     1       6.865   6.233  17.842  0.00  0.00    +0.000 C 
ATOM      2  C   UNL     1       5.892   6.986  16.903  0.00  0.00    +0.000 C 
ATOM      3  C   UNL     1       7.934   7.079  18.576  0.00  0.00    +0.000 C 
ENDROOT
BRANCH   1   6
ATOM      4  C   UNL     1       3.861   5.864  17.387  0.00  0.00    +0.000 C 
ATOM      5  N   UNL     1       4.520   5.303  18.577  0.00  0.00    +0.000 N 
ATOM      6  C   UNL     1       5.912   5.438  18.835  0.00  0.00    +0.000 C 
ATOM      7  O   UNL     1       6.482   4.822  19.751  0.00  0.00    +0.000 OA
BRANCH   5   8
ATOM      8  C   UNL     1       3.626   4.621  19.514  0.00  0.00    +0.000 A 
ATOM      9  C   UNL     1       2.583   5.289  20.179  0.00  0.00    +0.000 A 
ATOM     10  C   UNL     1       1.756   4.637  21.110  0.00  0.00    +0.000 A 
ATOM     11  C   UNL     1       1.943   3.293  21.386  0.00  0.00    +0.000 A 
ATOM     12 CL   UNL     1       0.947   2.498  22.538  0.00  0.00    +0.000 Cl
ATOM     13  C   UNL     1       2.935   2.589  20.723  0.00  0.00    +0.000 A 
ATOM     14  C   UNL     1       3.758   3.244  19.794  0.00  0.00    +0.000 A 
ENDBRANCH   5   8
ENDBRANCH   1   6
BRANCH   1  15
ATOM     15  N   UNL     1       7.631   5.232  17.026  0.00  0.00    +0.000 N 
ATOM     16  H   UNL     1       7.984   4.449  17.575  0.00  0.00    +0.000 HD
BRANCH  15  17
ATOM     17  C   UNL     1       7.217   4.897  15.731  0.00  0.00    +0.000 A 
ATOM     18  N   UNL     1       7.822   5.517  14.695  0.00  0.00    +0.000 NA
ATOM     19  C   UNL     1       7.555   5.134  13.431  0.00  0.00    +0.000 A 
ATOM     20  C   UNL     1       6.686   4.111  13.114  0.00  0.00    +0.000 A 
ATOM     21  C   UNL     1       6.047   3.466  14.171  0.00  0.00    +0.000 A 
ATOM     22  C   UNL     1       6.304   3.863  15.491  0.00  0.00    +0.000 A 
ATOM     23 CL   UNL     1       5.505   3.026  16.772  0.00  0.00    +0.000 Cl
BRANCH  20  24
ATOM     24  C   UNL     1       6.479   3.732  11.680  0.00  0.00    +0.000 C 
ATOM     25  F   UNL     1       5.165   3.630  11.327  0.00  0.00    +0.000 F 
ATOM     26  F   UNL     1       7.022   4.634  10.818  0.00  0.00    +0.000 F 
ATOM     27  F   UNL     1       7.038   2.530  11.371  0.00  0.00    +0.000 F 
ENDBRANCH  20  24
ENDBRANCH  15  17
ENDBRANCH   1  15
TORSDOF 5
ENDMDL
MODEL 5
REMARK VINA RESULT:      -7.7      3.498      6.682
REMARK  Name = 
REMARK  8 active torsions:
REMARK  status: ('A' for Active; 'I' for Inactive)
REMARK    1  A    between atoms: C_1  and  N_2
REMARK    2  A    between atoms: N_2  and  C_20
REMARK    3  A    between atoms: C_3  and  C_5
REMARK    4  A    between atoms: C_5  and  C_6
REMARK    5  A    between atoms: C_5  and  C_7
REMARK    6  A    between atoms: C_5  and  N_8
REMARK    7  A    between atoms: N_8  and  C_9
REMARK    8  A    between atoms: C_12  and  C_13
REMARK                            x       y       z     vdW  Elec       q    Type
REMARK                         _______ _______ _______ _____ _____    ______ ____
ROOT
ATOM      1  C   UNL     1       6.636   6.281  16.832  0.00  0.00    +0.000 C 
ATOM      2  C   UNL     1       5.528   6.917  15.957  0.00  0.00    +0.000 C 
ATOM      3  C   UNL     1       7.639   7.245  17.510  0.00  0.00    +0.000 C 
ENDROOT
BRANCH   1   6
ATOM      4  C   UNL     1       3.682   6.681  17.525  0.00  0.00    +0.000 C 
ATOM      5  N   UNL     1       4.470   5.614  18.160  0.00  0.00    +0.000 N 
ATOM      6  C   UNL     1       5.842   5.379  17.871  0.00  0.00    +0.000 C 
ATOM      7  O   UNL     1       6.447   4.376  18.287  0.00  0.00    +0.000 OA
BRANCH   5   8
ATOM      8  C   UNL     1       3.745   4.822  19.156  0.00  0.00    +0.000 A 
ATOM      9  C   UNL     1       3.906   3.431  19.271  0.00  0.00    +0.000 A 
ATOM     10  C   UNL     1       3.175   2.671  20.200  0.00  0.00    +0.000 A 
ATOM     11  C   UNL     1       2.274   3.290  21.050  0.00  0.00    +0.000 A 
ATOM     12 CL   UNL     1       1.363   2.363  22.173  0.00  0.00    +0.000 Cl
ATOM     13  C   UNL     1       2.114   4.665  20.995  0.00  0.00    +0.000 A 
ATOM     14  C   UNL     1       2.847   5.420  20.066  0.00  0.00    +0.000 A 
ENDBRANCH   5   8
ENDBRANCH   1   6
BRANCH   1  15
ATOM     15  N   UNL     1       7.465   5.379  15.964  0.00  0.00    +0.000 N 
ATOM     16  H   UNL     1       8.125   4.808  16.491  0.00  0.00    +0.000 HD
BRANCH  15  17
ATOM     17  C   UNL     1       6.904   4.743  14.850  0.00  0.00    +0.000 A 
ATOM     18  N   UNL     1       5.787   4.008  15.040  0.00  0.00    +0.000 NA
ATOM     19  C   UNL     1       5.134   3.488  13.982  0.00  0.00    +0.000 A 
ATOM     20  C   UNL     1       5.537   3.670  12.675  0.00  0.00    +0.000 A 
ATOM     21  C   UNL     1       6.692   4.419  12.462  0.00  0.00    +0.000 A 
ATOM     22  C   UNL     1       7.390   4.955  13.554  0.00  0.00    +0.000 A 
ATOM     23 CL   UNL     1       8.806   5.892  13.245  0.00  0.00    +0.000 Cl
BRANCH  20  24
ATOM     24  C   UNL     1       4.726   3.082  11.561  0.00  0.00    +0.000 C 
ATOM     25  F   UNL     1       3.428   2.839  11.902  0.00  0.00    +0.000 F 
ATOM     26  F   UNL     1       4.674   3.894  10.470  0.00  0.00    +0.000 F 
ATOM     27  F   UNL     1       5.223   1.893  11.125  0.00  0.00    +0.000 F 
ENDBRANCH  20  24
ENDBRANCH  15  17
ENDBRANCH   1  15
TORSDOF 5
ENDMDL
MODEL 6
REMARK VINA RESULT:      -7.7      4.380      5.596
REMARK  Name = 
REMARK  8 active torsions:
REMARK  status: ('A' for Active; 'I' for Inactive)
REMARK    1  A    between atoms: C_1  and  N_2
REMARK    2  A    between atoms: N_2  and  C_20
REMARK    3  A    between atoms: C_3  and  C_5
REMARK    4  A    between atoms: C_5  and  C_6
REMARK    5  A    between atoms: C_5  and  C_7
REMARK    6  A    between atoms: C_5  and  N_8
REMARK    7  A    between atoms: N_8  and  C_9
REMARK    8  A    between atoms: C_12  and  C_13
REMARK                            x       y       z     vdW  Elec       q    Type
REMARK                         _______ _______ _______ _____ _____    ______ ____
ROOT
ATOM      1  C   UNL     1       2.369   5.090  19.975  0.00  0.00    +0.000 C 
ATOM      2  C   UNL     1       0.837   5.024  19.757  0.00  0.00    +0.000 C 
ATOM      3  C   UNL     1       2.968   4.157  21.055  0.00  0.00    +0.000 C 
ENDROOT
BRANCH   1   6
ATOM      4  C   UNL     1       5.354   5.292  19.331  0.00  0.00    +0.000 C 
ATOM      5  N   UNL     1       4.375   4.954  18.285  0.00  0.00    +0.000 N 
ATOM      6  C   UNL     1       2.979   4.840  18.530  0.00  0.00    +0.000 C 
ATOM      7  O   UNL     1       2.190   4.394  17.680  0.00  0.00    +0.000 OA
BRANCH   5   8
ATOM      8  C   UNL     1       4.940   4.781  16.945  0.00  0.00    +0.000 A 
ATOM      9  C   UNL     1       5.336   3.525  16.455  0.00  0.00    +0.000 A 
ATOM     10  C   UNL     1       5.918   3.371  15.185  0.00  0.00    +0.000 A 
ATOM     11  C   UNL     1       6.103   4.473  14.366  0.00  0.00    +0.000 A 
ATOM     12 CL   UNL     1       6.832   4.293  12.821  0.00  0.00    +0.000 Cl
ATOM     13  C   UNL     1       5.690   5.723  14.797  0.00  0.00    +0.000 A 
ATOM     14  C   UNL     1       5.109   5.871  16.066  0.00  0.00    +0.000 A 
ENDBRANCH   5   8
ENDBRANCH   1   6
BRANCH   1  15
ATOM     15  N   UNL     1       2.727   6.484  20.402  0.00  0.00    +0.000 N 
ATOM     16  H   UNL     1       3.698   6.727  20.213  0.00  0.00    +0.000 HD
BRANCH  15  17
ATOM     17  C   UNL     1       1.821   7.538  20.236  0.00  0.00    +0.000 A 
ATOM     18  N   UNL     1       0.983   7.817  21.259  0.00  0.00    +0.000 NA
ATOM     19  C   UNL     1       0.187   8.902  21.202  0.00  0.00    +0.000 A 
ATOM     20  C   UNL     1       0.176   9.783  20.140  0.00  0.00    +0.000 A 
ATOM     21  C   UNL     1       1.028   9.507  19.073  0.00  0.00    +0.000 A 
ATOM     22  C   UNL     1       1.852   8.372  19.112  0.00  0.00    +0.000 A 
ATOM     23 CL   UNL     1       2.906   8.076  17.777  0.00  0.00    +0.000 Cl
BRANCH  20  24
ATOM     24  C   UNL     1      -0.719  10.984  20.182  0.00  0.00    +0.000 C 
ATOM     25  F   UNL     1      -0.091  12.143  19.832  0.00  0.00    +0.000 F 
ATOM     26  F   UNL     1      -1.780  10.872  19.338  0.00  0.00    +0.000 F 
ATOM     27  F   UNL     1      -1.240  11.204  21.419  0.00  0.00    +0.000 F 
ENDBRANCH  20  24
ENDBRANCH  15  17
ENDBRANCH   1  15
TORSDOF 5
ENDMDL
MODEL 7
REMARK VINA RESULT:      -7.7      3.674      4.818
REMARK  Name = 
REMARK  8 active torsions:
REMARK  status: ('A' for Active; 'I' for Inactive)
REMARK    1  A    between atoms: C_1  and  N_2
REMARK    2  A    between atoms: N_2  and  C_20
REMARK    3  A    between atoms: C_3  and  C_5
REMARK    4  A    between atoms: C_5  and  C_6
REMARK    5  A    between atoms: C_5  and  C_7
REMARK    6  A    between atoms: C_5  and  N_8
REMARK    7  A    between atoms: N_8  and  C_9
REMARK    8  A    between atoms: C_12  and  C_13
REMARK                            x       y       z     vdW  Elec       q    Type
REMARK                         _______ _______ _______ _____ _____    ______ ____
ROOT
ATOM      1  C   UNL     1       3.112   4.178  19.252  0.00  0.00    +0.000 C 
ATOM      2  C   UNL     1       1.580   4.152  19.031  0.00  0.00    +0.000 C 
ATOM      3  C   UNL     1       3.709   3.091  20.178  0.00  0.00    +0.000 C 
ENDROOT
BRANCH   1   6
ATOM      4  C   UNL     1       6.041   4.788  18.607  0.00  0.00    +0.000 C 
ATOM      5  N   UNL     1       5.088   4.445  17.541  0.00  0.00    +0.000 N 
ATOM      6  C   UNL     1       3.719   4.146  17.784  0.00  0.00    +0.000 C 
ATOM      7  O   UNL     1       2.969   3.698  16.900  0.00  0.00    +0.000 OA
BRANCH   5   8
ATOM      8  C   UNL     1       5.642   4.472  16.186  0.00  0.00    +0.000 A 
ATOM      9  C   UNL     1       5.077   3.737  15.129  0.00  0.00    +0.000 A 
ATOM     10  C   UNL     1       5.640   3.732  13.841  0.00  0.00    +0.000 A 
ATOM     11  C   UNL     1       6.776   4.479  13.576  0.00  0.00    +0.000 A 
ATOM     12 CL   UNL     1       7.480   4.460  12.009  0.00  0.00    +0.000 Cl
ATOM     13  C   UNL     1       7.342   5.247  14.581  0.00  0.00    +0.000 A 
ATOM     14  C   UNL     1       6.775   5.248  15.865  0.00  0.00    +0.000 A 
ENDBRANCH   5   8
ENDBRANCH   1   6
BRANCH   1  15
ATOM     15  N   UNL     1       3.477   5.491  19.882  0.00  0.00    +0.000 N 
ATOM     16  H   UNL     1       4.454   5.748  19.743  0.00  0.00    +0.000 HD
BRANCH  15  17
ATOM     17  C   UNL     1       2.584   6.568  19.861  0.00  0.00    +0.000 A 
ATOM     18  N   UNL     1       1.766   6.731  20.924  0.00  0.00    +0.000 NA
ATOM     19  C   UNL     1       0.985   7.825  21.012  0.00  0.00    +0.000 A 
ATOM     20  C   UNL     1       0.969   8.828  20.065  0.00  0.00    +0.000 A 
ATOM     21  C   UNL     1       1.801   8.672  18.958  0.00  0.00    +0.000 A 
ATOM     22  C   UNL     1       2.609   7.532  18.845  0.00  0.00    +0.000 A 
ATOM     23 CL   UNL     1       3.638   7.387  17.466  0.00  0.00    +0.000 Cl
BRANCH  20  24
ATOM     24  C   UNL     1       0.092  10.025  20.267  0.00  0.00    +0.000 C 
ATOM     25  F   UNL     1      -0.908  10.128  19.346  0.00  0.00    +0.000 F 
ATOM     26  F   UNL     1      -0.524  10.022  21.480  0.00  0.00    +0.000 F 
ATOM     27  F   UNL     1       0.782  11.196  20.197  0.00  0.00    +0.000 F 
ENDBRANCH  20  24
ENDBRANCH  15  17
ENDBRANCH   1  15
TORSDOF 5
ENDMDL
MODEL 8
REMARK VINA RESULT:      -7.6      0.171      1.162
REMARK  Name = 
REMARK  8 active torsions:
REMARK  status: ('A' for Active; 'I' for Inactive)
REMARK    1  A    between atoms: C_1  and  N_2
REMARK    2  A    between atoms: N_2  and  C_20
REMARK    3  A    between atoms: C_3  and  C_5
REMARK    4  A    between atoms: C_5  and  C_6
REMARK    5  A    between atoms: C_5  and  C_7
REMARK    6  A    between atoms: C_5  and  N_8
REMARK    7  A    between atoms: N_8  and  C_9
REMARK    8  A    between atoms: C_12  and  C_13
REMARK                            x       y       z     vdW  Elec       q    Type
REMARK                         _______ _______ _______ _____ _____    ______ ____
ROOT
ATOM      1  C   UNL     1       6.914   6.358  17.934  0.00  0.00    +0.000 C 
ATOM      2  C   UNL     1       7.404   5.479  19.110  0.00  0.00    +0.000 C 
ATOM      3  C   UNL     1       7.625   7.716  17.724  0.00  0.00    +0.000 C 
ENDROOT
BRANCH   1   6
ATOM      4  C   UNL     1       5.371   6.823  15.331  0.00  0.00    +0.000 C 
ATOM      5  N   UNL     1       6.265   5.664  15.484  0.00  0.00    +0.000 N 
ATOM      6  C   UNL     1       7.010   5.404  16.667  0.00  0.00    +0.000 C 
ATOM      7  O   UNL     1       7.882   4.520  16.722  0.00  0.00    +0.000 OA
BRANCH   5   8
ATOM      8  C   UNL     1       6.305   4.760  14.333  0.00  0.00    +0.000 A 
ATOM      9  C   UNL     1       7.324   4.820  13.368  0.00  0.00    +0.000 A 
ATOM     10  C   UNL     1       7.333   3.979  12.241  0.00  0.00    +0.000 A 
ATOM     11  C   UNL     1       6.327   3.044  12.064  0.00  0.00    +0.000 A 
ATOM     12 CL   UNL     1       6.322   2.027  10.678  0.00  0.00    +0.000 Cl
ATOM     13  C   UNL     1       5.324   2.927  13.013  0.00  0.00    +0.000 A 
ATOM     14  C   UNL     1       5.320   3.769  14.136  0.00  0.00    +0.000 A 
ENDBRANCH   5   8
ENDBRANCH   1   6
BRANCH   1  15
ATOM     15  N   UNL     1       5.467   6.690  18.162  0.00  0.00    +0.000 N 
ATOM     16  H   UNL     1       5.140   7.476  17.602  0.00  0.00    +0.000 HD
BRANCH  15  17
ATOM     17  C   UNL     1       4.521   5.676  18.351  0.00  0.00    +0.000 A 
ATOM     18  N   UNL     1       4.970   4.452  18.704  0.00  0.00    +0.000 NA
ATOM     19  C   UNL     1       4.095   3.480  19.027  0.00  0.00    +0.000 A 
ATOM     20  C   UNL     1       2.727   3.658  19.031  0.00  0.00    +0.000 A 
ATOM     21  C   UNL     1       2.246   4.912  18.661  0.00  0.00    +0.000 A 
ATOM     22  C   UNL     1       3.145   5.930  18.309  0.00  0.00    +0.000 A 
ATOM     23 CL   UNL     1       2.508   7.475  17.874  0.00  0.00    +0.000 Cl
BRANCH  20  24
ATOM     24  C   UNL     1       1.833   2.527  19.439  0.00  0.00    +0.000 C 
ATOM     25  F   UNL     1       0.563   2.636  18.955  0.00  0.00    +0.000 F 
ATOM     26  F   UNL     1       2.289   1.320  19.007  0.00  0.00    +0.000 F 
ATOM     27  F   UNL     1       1.706   2.423  20.790  0.00  0.00    +0.000 F 
ENDBRANCH  20  24
ENDBRANCH  15  17
ENDBRANCH   1  15
TORSDOF 5
ENDMDL
MODEL 9
REMARK VINA RESULT:      -7.5      0.705      1.033
REMARK  Name = 
REMARK  8 active torsions:
REMARK  status: ('A' for Active; 'I' for Inactive)
REMARK    1  A    between atoms: C_1  and  N_2
REMARK    2  A    between atoms: N_2  and  C_20
REMARK    3  A    between atoms: C_3  and  C_5
REMARK    4  A    between atoms: C_5  and  C_6
REMARK    5  A    between atoms: C_5  and  C_7
REMARK    6  A    between atoms: C_5  and  N_8
REMARK    7  A    between atoms: N_8  and  C_9
REMARK    8  A    between atoms: C_12  and  C_13
REMARK                            x       y       z     vdW  Elec       q    Type
REMARK                         _______ _______ _______ _____ _____    ______ ____
ROOT
ATOM      1  C   UNL     1       6.273   6.303  17.767  0.00  0.00    +0.000 C 
ATOM      2  C   UNL     1       6.547   5.382  18.981  0.00  0.00    +0.000 C 
ATOM      3  C   UNL     1       6.995   7.672  17.743  0.00  0.00    +0.000 C 
ENDROOT
BRANCH   1   6
ATOM      4  C   UNL     1       5.118   6.770  14.972  0.00  0.00    +0.000 C 
ATOM      5  N   UNL     1       6.044   5.656  15.231  0.00  0.00    +0.000 N 
ATOM      6  C   UNL     1       6.615   5.398  16.507  0.00  0.00    +0.000 C 
ATOM      7  O   UNL     1       7.520   4.561  16.673  0.00  0.00    +0.000 OA
BRANCH   5   8
ATOM      8  C   UNL     1       6.310   4.795  14.077  0.00  0.00    +0.000 A 
ATOM      9  C   UNL     1       5.476   3.717  13.737  0.00  0.00    +0.000 A 
ATOM     10  C   UNL     1       5.762   2.867  12.654  0.00  0.00    +0.000 A 
ATOM     11  C   UNL     1       6.885   3.088  11.875  0.00  0.00    +0.000 A 
ATOM     12 CL   UNL     1       7.249   2.039  10.563  0.00  0.00    +0.000 Cl
ATOM     13  C   UNL     1       7.712   4.163  12.154  0.00  0.00    +0.000 A 
ATOM     14  C   UNL     1       7.422   5.008  13.236  0.00  0.00    +0.000 A 
ENDBRANCH   5   8
ENDBRANCH   1   6
BRANCH   1  15
ATOM     15  N   UNL     1       4.806   6.618  17.733  0.00  0.00    +0.000 N 
ATOM     16  H   UNL     1       4.535   7.193  16.937  0.00  0.00    +0.000 HD
BRANCH  15  17
ATOM     17  C   UNL     1       3.858   5.658  18.107  0.00  0.00    +0.000 A 
ATOM     18  N   UNL     1       4.062   4.383  17.710  0.00  0.00    +0.000 NA
ATOM     19  C   UNL     1       3.254   3.401  18.155  0.00  0.00    +0.000 A 
ATOM     20  C   UNL     1       2.205   3.614  19.024  0.00  0.00    +0.000 A 
ATOM     21  C   UNL     1       1.975   4.924  19.438  0.00  0.00    +0.000 A 
ATOM     22  C   UNL     1       2.799   5.959  18.972  0.00  0.00    +0.000 A 
ATOM     23 CL   UNL     1       2.492   7.566  19.524  0.00  0.00    +0.000 Cl
BRANCH  20  24
ATOM     24  C   UNL     1       1.382   2.453  19.493  0.00  0.00    +0.000 C 
ATOM     25  F   UNL     1       1.973   1.243  19.274  0.00  0.00    +0.000 F 
ATOM     26  F   UNL     1       1.126   2.500  20.828  0.00  0.00    +0.000 F 
ATOM     27  F   UNL     1       0.170   2.389  18.877  0.00  0.00    +0.000 F 
ENDBRANCH  20  24
ENDBRANCH  15  17
ENDBRANCH   1  15
TORSDOF 5
ENDMDL
