MODEL 1
REMARK VINA RESULT:      -7.4      0.000      0.000
REMARK  Name = 
REMARK  1 active torsions:
REMARK  status: ('A' for Active; 'I' for Inactive)
REMARK    1  A    between atoms: C_1  and  N_2
REMARK                            x       y       z     vdW  Elec       q    Type
REMARK                         _______ _______ _______ _____ _____    ______ ____
ROOT
ATOM      1  C   UNL     1       4.282   3.391  17.633  0.00  0.00    +0.000 C 
ATOM      2  N   UNL     1       3.794   4.713  17.904  0.00  0.00    +0.000 N 
ATOM      3  N   UNL     1       4.110   5.763  17.119  0.00  0.00    +0.000 NA
ATOM      4  N   UNL     1       3.547   6.844  17.654  0.00  0.00    +0.000 NA
ATOM      5  C   UNL     1       2.862   6.463  18.786  0.00  0.00    +0.000 A 
ATOM      6  C   UNL     1       2.099   7.149  19.760  0.00  0.00    +0.000 A 
ATOM      7  N   UNL     1       1.834   8.506  19.804  0.00  0.00    +0.000 N 
ATOM      8  C   UNL     1       1.921   9.409  18.660  0.00  0.00    +0.000 C 
ATOM      9  C   UNL     1       0.664  10.321  18.558  0.00  0.00    +0.000 C 
ATOM     10  C   UNL     1      -0.566   9.696  19.204  0.00  0.00    +0.000 C 
ATOM     11  C   UNL     1      -0.229   9.515  20.691  0.00  0.00    +0.000 C 
ATOM     12  C   UNL     1       1.215   9.051  20.997  0.00  0.00    +0.000 C 
ATOM     13  C   UNL     1      -0.357  10.892  21.269  0.00  0.00    +0.000 A 
ATOM     14  C   UNL     1      -1.051  11.122  22.388  0.00  0.00    +0.000 A 
ATOM     15  C   UNL     1      -1.134  12.455  22.935  0.00  0.00    +0.000 A 
ATOM     16  C   UNL     1      -0.507  13.462  22.326  0.00  0.00    +0.000 A 
ATOM     17  C   UNL     1       0.241  13.231  21.061  0.00  0.00    +0.000 A 
ATOM     18  O   UNL     1       0.754  14.196  20.488  0.00  0.00    +0.000 OA
ATOM     19  N   UNL     1       0.275  11.930  20.573  0.00  0.00    +0.000 N 
ATOM     20  C   UNL     1       0.805  11.732  19.194  0.00  0.00    +0.000 C 
ATOM     21  N   UNL     1       1.589   6.370  20.769  0.00  0.00    +0.000 NA
ATOM     22  C   UNL     1       1.814   5.045  20.800  0.00  0.00    +0.000 A 
ATOM     23  N   UNL     1       2.517   4.313  19.926  0.00  0.00    +0.000 NA
ATOM     24  C   UNL     1       3.011   5.095  18.954  0.00  0.00    +0.000 A 
ENDROOT
TORSDOF 0
ENDMDL
MODEL 2
REMARK VINA RESULT:      -7.3      1.108      1.302
REMARK  Name = 
REMARK  1 active torsions:
REMARK  status: ('A' for Active; 'I' for Inactive)
REMARK    1  A    between atoms: C_1  and  N_2
REMARK                            x       y       z     vdW  Elec       q    Type
REMARK                         _______ _______ _______ _____ _____    ______ ____
ROOT
ATOM      1  C   UNL     1       3.684   2.047  18.017  0.00  0.00    +0.000 C 
ATOM      2  N   UNL     1       3.468   3.464  18.093  0.00  0.00    +0.000 N 
ATOM      3  N   UNL     1       4.051   4.319  17.229  0.00  0.00    +0.000 NA
ATOM      4  N   UNL     1       3.693   5.550  17.585  0.00  0.00    +0.000 NA
ATOM      5  C   UNL     1       2.867   5.463  18.684  0.00  0.00    +0.000 A 
ATOM      6  C   UNL     1       2.201   6.408  19.500  0.00  0.00    +0.000 A 
ATOM      7  N   UNL     1       2.225   7.784  19.367  0.00  0.00    +0.000 N 
ATOM      8  C   UNL     1       2.579   8.498  18.143  0.00  0.00    +0.000 C 
ATOM      9  C   UNL     1       1.552   9.623  17.823  0.00  0.00    +0.000 C 
ATOM     10  C   UNL     1       0.177   9.345  18.417  0.00  0.00    +0.000 C 
ATOM     11  C   UNL     1       0.366   9.293  19.939  0.00  0.00    +0.000 C 
ATOM     12  C   UNL     1       1.654   8.591  20.429  0.00  0.00    +0.000 C 
ATOM     13  C   UNL     1       0.490  10.729  20.346  0.00  0.00    +0.000 A 
ATOM     14  C   UNL     1      -0.214  11.236  21.363  0.00  0.00    +0.000 A 
ATOM     15  C   UNL     1      -0.053  12.617  21.748  0.00  0.00    +0.000 A 
ATOM     16  C   UNL     1       0.813  13.392  21.091  0.00  0.00    +0.000 A 
ATOM     17  C   UNL     1       1.581  12.855  19.935  0.00  0.00    +0.000 A 
ATOM     18  O   UNL     1       2.324  13.615  19.310  0.00  0.00    +0.000 OA
ATOM     19  N   UNL     1       1.373  11.522  19.601  0.00  0.00    +0.000 N 
ATOM     20  C   UNL     1       1.944  11.046  18.308  0.00  0.00    +0.000 C 
ATOM     21  N   UNL     1       1.470   5.883  20.537  0.00  0.00    +0.000 NA
ATOM     22  C   UNL     1       1.408   4.555  20.735  0.00  0.00    +0.000 A 
ATOM     23  N   UNL     1       2.000   3.591  20.019  0.00  0.00    +0.000 NA
ATOM     24  C   UNL     1       2.713   4.127  19.016  0.00  0.00    +0.000 A 
ENDROOT
TORSDOF 0
ENDMDL
MODEL 3
REMARK VINA RESULT:      -6.8      3.173      7.845
REMARK  Name = 
REMARK  1 active torsions:
REMARK  status: ('A' for Active; 'I' for Inactive)
REMARK    1  A    between atoms: C_1  and  N_2
REMARK                            x       y       z     vdW  Elec       q    Type
REMARK                         _______ _______ _______ _____ _____    ______ ____
ROOT
ATOM      1  C   UNL     1      -1.491  11.131  21.641  0.00  0.00    +0.000 C 
ATOM      2  N   UNL     1      -0.450  10.212  21.278  0.00  0.00    +0.000 N 
ATOM      3  N   UNL     1       0.213   9.489  22.202  0.00  0.00    +0.000 NA
ATOM      4  N   UNL     1       1.135   8.774  21.562  0.00  0.00    +0.000 NA
ATOM      5  C   UNL     1       1.042   9.049  20.216  0.00  0.00    +0.000 A 
ATOM      6  C   UNL     1       1.745   8.619  19.066  0.00  0.00    +0.000 A 
ATOM      7  N   UNL     1       2.800   7.726  19.023  0.00  0.00    +0.000 N 
ATOM      8  C   UNL     1       3.110   6.751  20.065  0.00  0.00    +0.000 C 
ATOM      9  C   UNL     1       3.376   5.340  19.462  0.00  0.00    +0.000 C 
ATOM     10  C   UNL     1       2.680   5.135  18.123  0.00  0.00    +0.000 C 
ATOM     11  C   UNL     1       3.269   6.179  17.165  0.00  0.00    +0.000 C 
ATOM     12  C   UNL     1       3.529   7.577  17.776  0.00  0.00    +0.000 C 
ATOM     13  C   UNL     1       4.612   5.628  16.796  0.00  0.00    +0.000 A 
ATOM     14  C   UNL     1       5.020   5.561  15.525  0.00  0.00    +0.000 A 
ATOM     15  C   UNL     1       6.330   5.048  15.204  0.00  0.00    +0.000 A 
ATOM     16  C   UNL     1       7.144   4.648  16.182  0.00  0.00    +0.000 A 
ATOM     17  C   UNL     1       6.695   4.684  17.600  0.00  0.00    +0.000 A 
ATOM     18  O   UNL     1       7.447   4.246  18.474  0.00  0.00    +0.000 OA
ATOM     19  N   UNL     1       5.418   5.172  17.848  0.00  0.00    +0.000 N 
ATOM     20  C   UNL     1       4.870   4.985  19.222  0.00  0.00    +0.000 C 
ATOM     21  N   UNL     1       1.330   9.168  17.878  0.00  0.00    +0.000 NA
ATOM     22  C   UNL     1       0.317  10.052  17.843  0.00  0.00    +0.000 A 
ATOM     23  N   UNL     1      -0.404  10.514  18.872  0.00  0.00    +0.000 NA
ATOM     24  C   UNL     1       0.023   9.968  20.022  0.00  0.00    +0.000 A 
ENDROOT
TORSDOF 0
ENDMDL
MODEL 4
REMARK VINA RESULT:      -6.8      3.001      7.643
REMARK  Name = 
REMARK  1 active torsions:
REMARK  status: ('A' for Active; 'I' for Inactive)
REMARK    1  A    between atoms: C_1  and  N_2
REMARK                            x       y       z     vdW  Elec       q    Type
REMARK                         _______ _______ _______ _____ _____    ______ ____
ROOT
ATOM      1  C   UNL     1      -1.909  11.626  22.604  0.00  0.00    +0.000 C 
ATOM      2  N   UNL     1      -0.984  10.620  22.165  0.00  0.00    +0.000 N 
ATOM      3  N   UNL     1      -0.606   9.604  22.966  0.00  0.00    +0.000 NA
ATOM      4  N   UNL     1       0.281   8.875  22.293  0.00  0.00    +0.000 NA
ATOM      5  C   UNL     1       0.454   9.440  21.049  0.00  0.00    +0.000 A 
ATOM      6  C   UNL     1       1.258   9.134  19.925  0.00  0.00    +0.000 A 
ATOM      7  N   UNL     1       2.149   8.083  19.802  0.00  0.00    +0.000 N 
ATOM      8  C   UNL     1       2.123   6.869  20.614  0.00  0.00    +0.000 C 
ATOM      9  C   UNL     1       2.254   5.593  19.732  0.00  0.00    +0.000 C 
ATOM     10  C   UNL     1       1.762   5.813  18.307  0.00  0.00    +0.000 C 
ATOM     11  C   UNL     1       2.659   6.901  17.704  0.00  0.00    +0.000 C 
ATOM     12  C   UNL     1       3.037   8.061  18.655  0.00  0.00    +0.000 C 
ATOM     13  C   UNL     1       3.939   6.190  17.382  0.00  0.00    +0.000 A 
ATOM     14  C   UNL     1       4.532   6.314  16.192  0.00  0.00    +0.000 A 
ATOM     15  C   UNL     1       5.778   5.637  15.922  0.00  0.00    +0.000 A 
ATOM     16  C   UNL     1       6.346   4.890  16.870  0.00  0.00    +0.000 A 
ATOM     17  C   UNL     1       5.682   4.713  18.190  0.00  0.00    +0.000 A 
ATOM     18  O   UNL     1       6.202   3.963  19.020  0.00  0.00    +0.000 OA
ATOM     19  N   UNL     1       4.477   5.376  18.388  0.00  0.00    +0.000 N 
ATOM     20  C   UNL     1       3.689   5.013  19.600  0.00  0.00    +0.000 C 
ATOM     21  N   UNL     1       1.136   9.991  18.860  0.00  0.00    +0.000 NA
ATOM     22  C   UNL     1       0.299  11.041  18.910  0.00  0.00    +0.000 A 
ATOM     23  N   UNL     1      -0.497  11.406  19.923  0.00  0.00    +0.000 NA
ATOM     24  C   UNL     1      -0.357  10.559  20.955  0.00  0.00    +0.000 A 
ENDROOT
TORSDOF 0
ENDMDL
MODEL 5
REMARK VINA RESULT:      -6.6      2.885      7.773
REMARK  Name = 
REMARK  1 active torsions:
REMARK  status: ('A' for Active; 'I' for Inactive)
REMARK    1  A    between atoms: C_1  and  N_2
REMARK                            x       y       z     vdW  Elec       q    Type
REMARK                         _______ _______ _______ _____ _____    ______ ____
ROOT
ATOM      1  C   UNL     1      -1.156  12.316  22.592  0.00  0.00    +0.000 C 
ATOM      2  N   UNL     1      -0.450  11.109  22.274  0.00  0.00    +0.000 N 
ATOM      3  N   UNL     1      -0.181  10.175  23.209  0.00  0.00    +0.000 NA
ATOM      4  N   UNL     1       0.516   9.208  22.617  0.00  0.00    +0.000 NA
ATOM      5  C   UNL     1       0.679   9.539  21.290  0.00  0.00    +0.000 A 
ATOM      6  C   UNL     1       1.327   8.929  20.190  0.00  0.00    +0.000 A 
ATOM      7  N   UNL     1       2.019   7.732  20.192  0.00  0.00    +0.000 N 
ATOM      8  C   UNL     1       1.859   6.678  21.190  0.00  0.00    +0.000 C 
ATOM      9  C   UNL     1       1.705   5.281  20.523  0.00  0.00    +0.000 C 
ATOM     10  C   UNL     1       1.143   5.366  19.110  0.00  0.00    +0.000 C 
ATOM     11  C   UNL     1       2.156   6.175  18.289  0.00  0.00    +0.000 C 
ATOM     12  C   UNL     1       2.796   7.381  19.017  0.00  0.00    +0.000 C 
ATOM     13  C   UNL     1       3.270   5.210  18.020  0.00  0.00    +0.000 A 
ATOM     14  C   UNL     1       3.778   5.046  16.795  0.00  0.00    +0.000 A 
ATOM     15  C   UNL     1       4.868   4.127  16.572  0.00  0.00    +0.000 A 
ATOM     16  C   UNL     1       5.380   3.444  17.598  0.00  0.00    +0.000 A 
ATOM     17  C   UNL     1       4.805   3.588  18.963  0.00  0.00    +0.000 A 
ATOM     18  O   UNL     1       5.258   2.893  19.875  0.00  0.00    +0.000 OA
ATOM     19  N   UNL     1       3.746   4.475  19.114  0.00  0.00    +0.000 N 
ATOM     20  C   UNL     1       3.010   4.444  20.410  0.00  0.00    +0.000 C 
ATOM     21  N   UNL     1       1.264   9.623  19.007  0.00  0.00    +0.000 NA
ATOM     22  C   UNL     1       0.618  10.800  18.930  0.00  0.00    +0.000 A 
ATOM     23  N   UNL     1      -0.022  11.449  19.911  0.00  0.00    +0.000 NA
ATOM     24  C   UNL     1       0.059  10.756  21.058  0.00  0.00    +0.000 A 
ENDROOT
TORSDOF 0
ENDMDL
MODEL 6
REMARK VINA RESULT:      -6.6      7.779     10.665
REMARK  Name = 
REMARK  1 active torsions:
REMARK  status: ('A' for Active; 'I' for Inactive)
REMARK    1  A    between atoms: C_1  and  N_2
REMARK                            x       y       z     vdW  Elec       q    Type
REMARK                         _______ _______ _______ _____ _____    ______ ____
ROOT
ATOM      1  C   UNL     1       0.358  16.561  18.789  0.00  0.00    +0.000 C 
ATOM      2  N   UNL     1       1.787  16.526  18.663  0.00  0.00    +0.000 N 
ATOM      3  N   UNL     1       2.530  17.650  18.684  0.00  0.00    +0.000 NA
ATOM      4  N   UNL     1       3.799  17.292  18.502  0.00  0.00    +0.000 NA
ATOM      5  C   UNL     1       3.851  15.922  18.373  0.00  0.00    +0.000 A 
ATOM      6  C   UNL     1       4.888  14.986  18.150  0.00  0.00    +0.000 A 
ATOM      7  N   UNL     1       6.235  15.260  17.997  0.00  0.00    +0.000 N 
ATOM      8  C   UNL     1       6.894  16.482  18.449  0.00  0.00    +0.000 C 
ATOM      9  C   UNL     1       8.208  16.168  19.222  0.00  0.00    +0.000 C 
ATOM     10  C   UNL     1       8.195  14.785  19.860  0.00  0.00    +0.000 C 
ATOM     11  C   UNL     1       8.068  13.779  18.709  0.00  0.00    +0.000 C 
ATOM     12  C   UNL     1       7.113  14.189  17.563  0.00  0.00    +0.000 C 
ATOM     13  C   UNL     1       9.441  13.726  18.110  0.00  0.00    +0.000 A 
ATOM     14  C   UNL     1      10.052  12.566  17.852  0.00  0.00    +0.000 A 
ATOM     15  C   UNL     1      11.364  12.548  17.251  0.00  0.00    +0.000 A 
ATOM     16  C   UNL     1      11.967  13.698  16.941  0.00  0.00    +0.000 A 
ATOM     17  C   UNL     1      11.317  14.999  17.252  0.00  0.00    +0.000 A 
ATOM     18  O   UNL     1      11.930  16.042  17.012  0.00  0.00    +0.000 OA
ATOM     19  N   UNL     1      10.061  14.955  17.845  0.00  0.00    +0.000 N 
ATOM     20  C   UNL     1       9.513  16.234  18.380  0.00  0.00    +0.000 C 
ATOM     21  N   UNL     1       4.494  13.674  18.066  0.00  0.00    +0.000 NA
ATOM     22  C   UNL     1       3.200  13.332  18.194  0.00  0.00    +0.000 A 
ATOM     23  N   UNL     1       2.156  14.143  18.406  0.00  0.00    +0.000 NA
ATOM     24  C   UNL     1       2.564  15.420  18.479  0.00  0.00    +0.000 A 
ENDROOT
TORSDOF 0
ENDMDL
MODEL 7
REMARK VINA RESULT:      -6.3      5.154      7.165
REMARK  Name = 
REMARK  1 active torsions:
REMARK  status: ('A' for Active; 'I' for Inactive)
REMARK    1  A    between atoms: C_1  and  N_2
REMARK                            x       y       z     vdW  Elec       q    Type
REMARK                         _______ _______ _______ _____ _____    ______ ____
ROOT
ATOM      1  C   UNL     1      -3.016   9.717  15.734  0.00  0.00    +0.000 C 
ATOM      2  N   UNL     1      -3.302  10.504  16.899  0.00  0.00    +0.000 N 
ATOM      3  N   UNL     1      -4.555  10.901  17.199  0.00  0.00    +0.000 NA
ATOM      4  N   UNL     1      -4.485  11.643  18.302  0.00  0.00    +0.000 NA
ATOM      5  C   UNL     1      -3.168  11.706  18.701  0.00  0.00    +0.000 A 
ATOM      6  C   UNL     1      -2.485  12.342  19.764  0.00  0.00    +0.000 A 
ATOM      7  N   UNL     1      -3.040  13.131  20.755  0.00  0.00    +0.000 N 
ATOM      8  C   UNL     1      -4.448  13.114  21.143  0.00  0.00    +0.000 C 
ATOM      9  C   UNL     1      -4.611  13.041  22.689  0.00  0.00    +0.000 C 
ATOM     10  C   UNL     1      -3.413  12.398  23.375  0.00  0.00    +0.000 C 
ATOM     11  C   UNL     1      -2.206  13.294  23.065  0.00  0.00    +0.000 C 
ATOM     12  C   UNL     1      -2.150  13.870  21.631  0.00  0.00    +0.000 C 
ATOM     13  C   UNL     1      -2.372  14.468  23.981  0.00  0.00    +0.000 A 
ATOM     14  C   UNL     1      -1.366  14.921  24.734  0.00  0.00    +0.000 A 
ATOM     15  C   UNL     1      -1.550  16.071  25.587  0.00  0.00    +0.000 A 
ATOM     16  C   UNL     1      -2.731  16.693  25.615  0.00  0.00    +0.000 A 
ATOM     17  C   UNL     1      -3.872  16.183  24.809  0.00  0.00    +0.000 A 
ATOM     18  O   UNL     1      -4.967  16.742  24.909  0.00  0.00    +0.000 OA
ATOM     19  N   UNL     1      -3.640  15.063  24.019  0.00  0.00    +0.000 N 
ATOM     20  C   UNL     1      -4.828  14.403  23.405  0.00  0.00    +0.000 C 
ATOM     21  N   UNL     1      -1.125  12.156  19.789  0.00  0.00    +0.000 NA
ATOM     22  C   UNL     1      -0.513  11.411  18.852  0.00  0.00    +0.000 A 
ATOM     23  N   UNL     1      -1.074  10.773  17.817  0.00  0.00    +0.000 NA
ATOM     24  C   UNL     1      -2.401  10.974  17.809  0.00  0.00    +0.000 A 
ENDROOT
TORSDOF 0
ENDMDL
MODEL 8
REMARK VINA RESULT:      -6.3      3.145      7.965
REMARK  Name = 
REMARK  1 active torsions:
REMARK  status: ('A' for Active; 'I' for Inactive)
REMARK    1  A    between atoms: C_1  and  N_2
REMARK                            x       y       z     vdW  Elec       q    Type
REMARK                         _______ _______ _______ _____ _____    ______ ____
ROOT
ATOM      1  C   UNL     1       0.078  12.479  20.904  0.00  0.00    +0.000 C 
ATOM      2  N   UNL     1       0.541  11.122  20.960  0.00  0.00    +0.000 N 
ATOM      3  N   UNL     1       0.760  10.494  22.132  0.00  0.00    +0.000 NA
ATOM      4  N   UNL     1       1.221   9.277  21.852  0.00  0.00    +0.000 NA
ATOM      5  C   UNL     1       1.284   9.140  20.483  0.00  0.00    +0.000 A 
ATOM      6  C   UNL     1       1.697   8.107  19.609  0.00  0.00    +0.000 A 
ATOM      7  N   UNL     1       2.183   6.862  19.965  0.00  0.00    +0.000 N 
ATOM      8  C   UNL     1       1.970   6.223  21.261  0.00  0.00    +0.000 C 
ATOM      9  C   UNL     1       1.519   4.742  21.098  0.00  0.00    +0.000 C 
ATOM     10  C   UNL     1       0.821   4.487  19.768  0.00  0.00    +0.000 C 
ATOM     11  C   UNL     1       1.852   4.793  18.673  0.00  0.00    +0.000 C 
ATOM     12  C   UNL     1       2.756   6.022  18.930  0.00  0.00    +0.000 C 
ATOM     13  C   UNL     1       2.758   3.599  18.674  0.00  0.00    +0.000 A 
ATOM     14  C   UNL     1       3.091   2.969  17.544  0.00  0.00    +0.000 A 
ATOM     15  C   UNL     1       3.988   1.838  17.574  0.00  0.00    +0.000 A 
ATOM     16  C   UNL     1       4.495   1.426  18.737  0.00  0.00    +0.000 A 
ATOM     17  C   UNL     1       4.109   2.094  20.009  0.00  0.00    +0.000 A 
ATOM     18  O   UNL     1       4.546   1.646  21.073  0.00  0.00    +0.000 OA
ATOM     19  N   UNL     1       3.231   3.167  19.920  0.00  0.00    +0.000 N 
ATOM     20  C   UNL     1       2.651   3.682  21.193  0.00  0.00    +0.000 C 
ATOM     21  N   UNL     1       1.612   8.396  18.270  0.00  0.00    +0.000 NA
ATOM     22  C   UNL     1       1.159   9.589  17.848  0.00  0.00    +0.000 A 
ATOM     23  N   UNL     1       0.748  10.620  18.596  0.00  0.00    +0.000 NA
ATOM     24  C   UNL     1       0.845  10.318  19.900  0.00  0.00    +0.000 A 
ENDROOT
TORSDOF 0
ENDMDL
MODEL 9
REMARK VINA RESULT:      -6.3      2.990      7.323
REMARK  Name = 
REMARK  1 active torsions:
REMARK  status: ('A' for Active; 'I' for Inactive)
REMARK    1  A    between atoms: C_1  and  N_2
REMARK                            x       y       z     vdW  Elec       q    Type
REMARK                         _______ _______ _______ _____ _____    ______ ____
ROOT
ATOM      1  C   UNL     1       0.613  13.900  20.367  0.00  0.00    +0.000 C 
ATOM      2  N   UNL     1       0.896  12.560  19.936  0.00  0.00    +0.000 N 
ATOM      3  N   UNL     1       1.281  12.287  18.673  0.00  0.00    +0.000 NA
ATOM      4  N   UNL     1       1.421  10.966  18.577  0.00  0.00    +0.000 NA
ATOM      5  C   UNL     1       1.125  10.407  19.800  0.00  0.00    +0.000 A 
ATOM      6  C   UNL     1       1.082   9.084  20.300  0.00  0.00    +0.000 A 
ATOM      7  N   UNL     1       1.358   7.923  19.602  0.00  0.00    +0.000 N 
ATOM      8  C   UNL     1       2.141   7.856  18.372  0.00  0.00    +0.000 C 
ATOM      9  C   UNL     1       3.206   6.722  18.436  0.00  0.00    +0.000 C 
ATOM     10  C   UNL     1       3.618   6.387  19.864  0.00  0.00    +0.000 C 
ATOM     11  C   UNL     1       2.352   5.891  20.575  0.00  0.00    +0.000 C 
ATOM     12  C   UNL     1       1.049   6.650  20.228  0.00  0.00    +0.000 C 
ATOM     13  C   UNL     1       2.168   4.492  20.070  0.00  0.00    +0.000 A 
ATOM     14  C   UNL     1       1.938   3.470  20.900  0.00  0.00    +0.000 A 
ATOM     15  C   UNL     1       1.739   2.138  20.381  0.00  0.00    +0.000 A 
ATOM     16  C   UNL     1       1.774   1.927  19.064  0.00  0.00    +0.000 A 
ATOM     17  C   UNL     1       2.062   3.047  18.127  0.00  0.00    +0.000 A 
ATOM     18  O   UNL     1       2.152   2.805  16.921  0.00  0.00    +0.000 OA
ATOM     19  N   UNL     1       2.261   4.304  18.685  0.00  0.00    +0.000 N 
ATOM     20  C   UNL     1       2.788   5.373  17.789  0.00  0.00    +0.000 C 
ATOM     21  N   UNL     1       0.710   8.960  21.616  0.00  0.00    +0.000 NA
ATOM     22  C   UNL     1       0.415  10.044  22.355  0.00  0.00    +0.000 A 
ATOM     23  N   UNL     1       0.431  11.327  21.971  0.00  0.00    +0.000 NA
ATOM     24  C   UNL     1       0.790  11.423  20.682  0.00  0.00    +0.000 A 
ENDROOT
TORSDOF 0
ENDMDL
