MODEL 1
REMARK VINA RESULT:      -7.7      0.000      0.000
REMARK  Name = 
REMARK  5 active torsions:
REMARK  status: ('A' for Active; 'I' for Inactive)
REMARK    1  A    between atoms: C_4  and  C_5
REMARK    2  A    between atoms: N_8  and  C_9
REMARK    3  A    between atoms: C_9  and  C_10
REMARK    4  A    between atoms: C_10  and  N_11
REMARK    5  A    between atoms: N_18  and  C_19
REMARK                            x       y       z     vdW  Elec       q    Type
REMARK                         _______ _______ _______ _____ _____    ______ ____
ROOT
ATOM      1  C   UNL     1       2.676   6.271  18.319  0.00  0.00    +0.000 A 
ATOM      2  N   UNL     1       1.785   7.254  18.315  0.00  0.00    +0.000 NA
ATOM      3  C   UNL     1       2.378   8.386  17.800  0.00  0.00    +0.000 A 
ATOM      4  N   UNL     1       1.910   9.561  17.676  0.00  0.00    +0.000 NA
ATOM      5  S   UNL     1       4.032   8.157  17.312  0.00  0.00    +0.000 S 
ATOM      6  N   UNL     1       3.975   6.559  17.856  0.00  0.00    +0.000 N 
ENDROOT
BRANCH   1  10
ATOM      7  C   UNL     1       1.161   2.518  19.804  0.00  0.00    +0.000 A 
ATOM      8  C   UNL     1       1.554   3.514  20.698  0.00  0.00    +0.000 A 
ATOM      9  C   UNL     1       2.101   4.714  20.217  0.00  0.00    +0.000 A 
ATOM     10  C   UNL     1       2.258   4.919  18.840  0.00  0.00    +0.000 A 
ATOM     11  C   UNL     1       1.935   3.878  17.958  0.00  0.00    +0.000 A 
ATOM     12  C   UNL     1       1.365   2.691  18.438  0.00  0.00    +0.000 A 
ENDBRANCH   1  10
BRANCH   6  13
ATOM     13  C   UNL     1       5.040   5.716  17.430  0.00  0.00    +0.000 A 
ATOM     14  C   UNL     1       6.197   5.589  18.239  0.00  0.00    +0.000 A 
ATOM     15  C   UNL     1       7.315   4.863  17.833  0.00  0.00    +0.000 A 
ATOM     16  C   UNL     1       7.286   4.184  16.626  0.00  0.00    +0.000 A 
ATOM     17  C   UNL     1       6.149   4.248  15.826  0.00  0.00    +0.000 A 
ATOM     18  C   UNL     1       5.050   5.027  16.212  0.00  0.00    +0.000 A 
ENDBRANCH   6  13
BRANCH   4  19
ATOM     19  C   UNL     1       0.608   9.970  18.154  0.00  0.00    +0.000 C 
BRANCH  19  20
ATOM     20  C   UNL     1       0.715  10.069  19.695  0.00  0.00    +0.000 C 
BRANCH  20  21
ATOM     21  N   UNL     1      -0.516   9.759  20.443  0.00  0.00    +0.000 NA
ATOM     22  C   UNL     1      -1.115  10.995  21.004  0.00  0.00    +0.000 C 
ATOM     23  C   UNL     1      -0.358  11.571  22.218  0.00  0.00    +0.000 C 
ATOM     24  O   UNL     1      -0.161  10.588  23.243  0.00  0.00    +0.000 OA
ATOM     25  C   UNL     1       0.505   9.432  22.720  0.00  0.00    +0.000 C 
ATOM     26  C   UNL     1      -0.292   8.820  21.559  0.00  0.00    +0.000 C 
ENDBRANCH  20  21
ENDBRANCH  19  20
ENDBRANCH   4  19
TORSDOF 5
ENDMDL
MODEL 2
REMARK VINA RESULT:      -7.3      0.612      1.146
REMARK  Name = 
REMARK  5 active torsions:
REMARK  status: ('A' for Active; 'I' for Inactive)
REMARK    1  A    between atoms: C_4  and  C_5
REMARK    2  A    between atoms: N_8  and  C_9
REMARK    3  A    between atoms: C_9  and  C_10
REMARK    4  A    between atoms: C_10  and  N_11
REMARK    5  A    between atoms: N_18  and  C_19
REMARK                            x       y       z     vdW  Elec       q    Type
REMARK                         _______ _______ _______ _____ _____    ______ ____
ROOT
ATOM      1  C   UNL     1       2.505   6.286  18.481  0.00  0.00    +0.000 A 
ATOM      2  N   UNL     1       1.593   7.248  18.515  0.00  0.00    +0.000 NA
ATOM      3  C   UNL     1       2.148   8.402  18.009  0.00  0.00    +0.000 A 
ATOM      4  N   UNL     1       1.649   9.568  17.917  0.00  0.00    +0.000 NA
ATOM      5  S   UNL     1       3.795   8.222  17.482  0.00  0.00    +0.000 S 
ATOM      6  N   UNL     1       3.787   6.614  17.997  0.00  0.00    +0.000 N 
ENDROOT
BRANCH   1  10
ATOM      7  C   UNL     1       1.120   2.486  19.973  0.00  0.00    +0.000 A 
ATOM      8  C   UNL     1       1.672   3.421  20.850  0.00  0.00    +0.000 A 
ATOM      9  C   UNL     1       2.176   4.634  20.358  0.00  0.00    +0.000 A 
ATOM     10  C   UNL     1       2.131   4.915  18.986  0.00  0.00    +0.000 A 
ATOM     11  C   UNL     1       1.649   3.934  18.108  0.00  0.00    +0.000 A 
ATOM     12  C   UNL     1       1.123   2.734  18.603  0.00  0.00    +0.000 A 
ENDBRANCH   1  10
BRANCH   6  13
ATOM     13  C   UNL     1       4.863   5.804  17.532  0.00  0.00    +0.000 A 
ATOM     14  C   UNL     1       6.071   5.756  18.271  0.00  0.00    +0.000 A 
ATOM     15  C   UNL     1       7.194   5.066  17.820  0.00  0.00    +0.000 A 
ATOM     16  C   UNL     1       7.124   4.345  16.639  0.00  0.00    +0.000 A 
ATOM     17  C   UNL     1       5.938   4.331  15.910  0.00  0.00    +0.000 A 
ATOM     18  C   UNL     1       4.830   5.074  16.339  0.00  0.00    +0.000 A 
ENDBRANCH   6  13
BRANCH   4  19
ATOM     19  C   UNL     1       0.349   9.937  18.430  0.00  0.00    +0.000 C 
BRANCH  19  20
ATOM     20  C   UNL     1       0.306   9.464  19.903  0.00  0.00    +0.000 C 
BRANCH  20  21
ATOM     21  N   UNL     1       1.127  10.240  20.849  0.00  0.00    +0.000 NA
ATOM     22  C   UNL     1       1.289   9.506  22.129  0.00  0.00    +0.000 C 
ATOM     23  C   UNL     1       0.028   9.497  23.017  0.00  0.00    +0.000 C 
ATOM     24  O   UNL     1      -0.476  10.820  23.246  0.00  0.00    +0.000 OA
ATOM     25  C   UNL     1      -0.723  11.494  22.005  0.00  0.00    +0.000 C 
ATOM     26  C   UNL     1       0.555  11.564  21.157  0.00  0.00    +0.000 C 
ENDBRANCH  20  21
ENDBRANCH  19  20
ENDBRANCH   4  19
TORSDOF 5
ENDMDL
MODEL 3
REMARK VINA RESULT:      -7.2      1.030      1.699
REMARK  Name = 
REMARK  5 active torsions:
REMARK  status: ('A' for Active; 'I' for Inactive)
REMARK    1  A    between atoms: C_4  and  C_5
REMARK    2  A    between atoms: N_8  and  C_9
REMARK    3  A    between atoms: C_9  and  C_10
REMARK    4  A    between atoms: C_10  and  N_11
REMARK    5  A    between atoms: N_18  and  C_19
REMARK                            x       y       z     vdW  Elec       q    Type
REMARK                         _______ _______ _______ _____ _____    ______ ____
ROOT
ATOM      1  C   UNL     1       2.533   6.169  18.184  0.00  0.00    +0.000 A 
ATOM      2  N   UNL     1       1.593   7.106  18.176  0.00  0.00    +0.000 NA
ATOM      3  C   UNL     1       2.159   8.296  17.774  0.00  0.00    +0.000 A 
ATOM      4  N   UNL     1       1.638   9.452  17.688  0.00  0.00    +0.000 NA
ATOM      5  S   UNL     1       3.853   8.180  17.395  0.00  0.00    +0.000 S 
ATOM      6  N   UNL     1       3.844   6.550  17.835  0.00  0.00    +0.000 N 
ENDROOT
BRANCH   1  10
ATOM      7  C   UNL     1       1.775   2.107  19.409  0.00  0.00    +0.000 A 
ATOM      8  C   UNL     1       2.030   2.394  18.068  0.00  0.00    +0.000 A 
ATOM      9  C   UNL     1       2.220   3.723  17.659  0.00  0.00    +0.000 A 
ATOM     10  C   UNL     1       2.153   4.768  18.590  0.00  0.00    +0.000 A 
ATOM     11  C   UNL     1       1.815   4.472  19.918  0.00  0.00    +0.000 A 
ATOM     12  C   UNL     1       1.651   3.143  20.330  0.00  0.00    +0.000 A 
ENDBRANCH   1  10
BRANCH   6  13
ATOM     13  C   UNL     1       4.980   5.790  17.437  0.00  0.00    +0.000 A 
ATOM     14  C   UNL     1       5.980   5.477  18.390  0.00  0.00    +0.000 A 
ATOM     15  C   UNL     1       7.162   4.825  18.044  0.00  0.00    +0.000 A 
ATOM     16  C   UNL     1       7.354   4.407  16.738  0.00  0.00    +0.000 A 
ATOM     17  C   UNL     1       6.372   4.655  15.783  0.00  0.00    +0.000 A 
ATOM     18  C   UNL     1       5.211   5.362  16.124  0.00  0.00    +0.000 A 
ENDBRANCH   6  13
BRANCH   4  19
ATOM     19  C   UNL     1       0.286   9.765  18.094  0.00  0.00    +0.000 C 
BRANCH  19  20
ATOM     20  C   UNL     1       0.355  11.112  18.854  0.00  0.00    +0.000 C 
BRANCH  20  21
ATOM     21  N   UNL     1       1.281  11.154  20.000  0.00  0.00    +0.000 NA
ATOM     22  C   UNL     1       0.776  10.315  21.115  0.00  0.00    +0.000 C 
ATOM     23  C   UNL     1      -0.415  10.928  21.879  0.00  0.00    +0.000 C 
ATOM     24  O   UNL     1      -0.135  12.261  22.327  0.00  0.00    +0.000 OA
ATOM     25  C   UNL     1       0.261  13.096  21.232  0.00  0.00    +0.000 C 
ATOM     26  C   UNL     1       1.493  12.518  20.521  0.00  0.00    +0.000 C 
ENDBRANCH  20  21
ENDBRANCH  19  20
ENDBRANCH   4  19
TORSDOF 5
ENDMDL
MODEL 4
REMARK VINA RESULT:      -7.2      1.024      1.707
REMARK  Name = 
REMARK  5 active torsions:
REMARK  status: ('A' for Active; 'I' for Inactive)
REMARK    1  A    between atoms: C_4  and  C_5
REMARK    2  A    between atoms: N_8  and  C_9
REMARK    3  A    between atoms: C_9  and  C_10
REMARK    4  A    between atoms: C_10  and  N_11
REMARK    5  A    between atoms: N_18  and  C_19
REMARK                            x       y       z     vdW  Elec       q    Type
REMARK                         _______ _______ _______ _____ _____    ______ ____
ROOT
ATOM      1  C   UNL     1       2.586   6.341  18.326  0.00  0.00    +0.000 A 
ATOM      2  N   UNL     1       1.631   7.262  18.338  0.00  0.00    +0.000 NA
ATOM      3  C   UNL     1       2.147   8.441  17.847  0.00  0.00    +0.000 A 
ATOM      4  N   UNL     1       1.600   9.583  17.744  0.00  0.00    +0.000 NA
ATOM      5  S   UNL     1       3.813   8.334  17.360  0.00  0.00    +0.000 S 
ATOM      6  N   UNL     1       3.864   6.726  17.873  0.00  0.00    +0.000 N 
ENDROOT
BRANCH   1  10
ATOM      7  C   UNL     1       1.326   2.459  19.712  0.00  0.00    +0.000 A 
ATOM      8  C   UNL     1       1.573   3.481  20.629  0.00  0.00    +0.000 A 
ATOM      9  C   UNL     1       2.039   4.727  20.184  0.00  0.00    +0.000 A 
ATOM     10  C   UNL     1       2.260   4.954  18.819  0.00  0.00    +0.000 A 
ATOM     11  C   UNL     1       2.086   3.894  17.918  0.00  0.00    +0.000 A 
ATOM     12  C   UNL     1       1.597   2.658  18.361  0.00  0.00    +0.000 A 
ENDBRANCH   1  10
BRANCH   6  13
ATOM     13  C   UNL     1       4.985   5.966  17.434  0.00  0.00    +0.000 A 
ATOM     14  C   UNL     1       5.077   5.580  16.074  0.00  0.00    +0.000 A 
ATOM     15  C   UNL     1       6.094   4.752  15.600  0.00  0.00    +0.000 A 
ATOM     16  C   UNL     1       7.091   4.332  16.466  0.00  0.00    +0.000 A 
ATOM     17  C   UNL     1       7.058   4.730  17.799  0.00  0.00    +0.000 A 
ATOM     18  C   UNL     1       6.002   5.515  18.282  0.00  0.00    +0.000 A 
ENDBRANCH   6  13
BRANCH   4  19
ATOM     19  C   UNL     1       0.272   9.894  18.225  0.00  0.00    +0.000 C 
BRANCH  19  20
ATOM     20  C   UNL     1       0.364  11.280  18.908  0.00  0.00    +0.000 C 
BRANCH  20  21
ATOM     21  N   UNL     1       1.282  11.367  20.057  0.00  0.00    +0.000 NA
ATOM     22  C   UNL     1       0.825  10.489  21.163  0.00  0.00    +0.000 C 
ATOM     23  C   UNL     1      -0.403  11.022  21.928  0.00  0.00    +0.000 C 
ATOM     24  O   UNL     1      -0.206  12.366  22.390  0.00  0.00    +0.000 OA
ATOM     25  C   UNL     1       0.143  13.233  21.303  0.00  0.00    +0.000 C 
ATOM     26  C   UNL     1       1.409  12.737  20.592  0.00  0.00    +0.000 C 
ENDBRANCH  20  21
ENDBRANCH  19  20
ENDBRANCH   4  19
TORSDOF 5
ENDMDL
MODEL 5
REMARK VINA RESULT:      -7.2      0.714      1.503
REMARK  Name = 
REMARK  5 active torsions:
REMARK  status: ('A' for Active; 'I' for Inactive)
REMARK    1  A    between atoms: C_4  and  C_5
REMARK    2  A    between atoms: N_8  and  C_9
REMARK    3  A    between atoms: C_9  and  C_10
REMARK    4  A    between atoms: C_10  and  N_11
REMARK    5  A    between atoms: N_18  and  C_19
REMARK                            x       y       z     vdW  Elec       q    Type
REMARK                         _______ _______ _______ _____ _____    ______ ____
ROOT
ATOM      1  C   UNL     1       2.709   6.228  18.090  0.00  0.00    +0.000 A 
ATOM      2  N   UNL     1       1.790   7.182  18.164  0.00  0.00    +0.000 NA
ATOM      3  C   UNL     1       2.359   8.375  17.777  0.00  0.00    +0.000 A 
ATOM      4  N   UNL     1       1.858   9.543  17.759  0.00  0.00    +0.000 NA
ATOM      5  S   UNL     1       4.029   8.242  17.306  0.00  0.00    +0.000 S 
ATOM      6  N   UNL     1       4.009   6.597  17.688  0.00  0.00    +0.000 N 
ENDROOT
BRANCH   1  10
ATOM      7  C   UNL     1       1.932   2.140  19.213  0.00  0.00    +0.000 A 
ATOM      8  C   UNL     1       2.147   2.466  17.874  0.00  0.00    +0.000 A 
ATOM      9  C   UNL     1       2.344   3.804  17.500  0.00  0.00    +0.000 A 
ATOM     10  C   UNL     1       2.322   4.820  18.464  0.00  0.00    +0.000 A 
ATOM     11  C   UNL     1       2.024   4.487  19.793  0.00  0.00    +0.000 A 
ATOM     12  C   UNL     1       1.853   3.148  20.169  0.00  0.00    +0.000 A 
ENDBRANCH   1  10
BRANCH   6  13
ATOM     13  C   UNL     1       5.107   5.831  17.205  0.00  0.00    +0.000 A 
ATOM     14  C   UNL     1       5.181   5.508  15.827  0.00  0.00    +0.000 A 
ATOM     15  C   UNL     1       6.173   4.679  15.307  0.00  0.00    +0.000 A 
ATOM     16  C   UNL     1       7.165   4.194  16.144  0.00  0.00    +0.000 A 
ATOM     17  C   UNL     1       7.150   4.528  17.495  0.00  0.00    +0.000 A 
ATOM     18  C   UNL     1       6.118   5.315  18.023  0.00  0.00    +0.000 A 
ENDBRANCH   6  13
BRANCH   4  19
ATOM     19  C   UNL     1       0.535   9.866  18.245  0.00  0.00    +0.000 C 
BRANCH  19  20
ATOM     20  C   UNL     1       0.673  10.110  19.768  0.00  0.00    +0.000 C 
BRANCH  20  21
ATOM     21  N   UNL     1       0.092   9.071  20.637  0.00  0.00    +0.000 NA
ATOM     22  C   UNL     1      -0.935   9.653  21.537  0.00  0.00    +0.000 C 
ATOM     23  C   UNL     1      -0.360  10.495  22.694  0.00  0.00    +0.000 C 
ATOM     24  O   UNL     1       0.627   9.772  23.443  0.00  0.00    +0.000 OA
ATOM     25  C   UNL     1       1.669   9.292  22.585  0.00  0.00    +0.000 C 
ATOM     26  C   UNL     1       1.097   8.394  21.478  0.00  0.00    +0.000 C 
ENDBRANCH  20  21
ENDBRANCH  19  20
ENDBRANCH   4  19
TORSDOF 5
ENDMDL
MODEL 6
REMARK VINA RESULT:      -7.2      2.454      3.072
REMARK  Name = 
REMARK  5 active torsions:
REMARK  status: ('A' for Active; 'I' for Inactive)
REMARK    1  A    between atoms: C_4  and  C_5
REMARK    2  A    between atoms: N_8  and  C_9
REMARK    3  A    between atoms: C_9  and  C_10
REMARK    4  A    between atoms: C_10  and  N_11
REMARK    5  A    between atoms: N_18  and  C_19
REMARK                            x       y       z     vdW  Elec       q    Type
REMARK                         _______ _______ _______ _____ _____    ______ ____
ROOT
ATOM      1  C   UNL     1       2.436   6.443  18.735  0.00  0.00    +0.000 A 
ATOM      2  N   UNL     1       1.478   7.357  18.810  0.00  0.00    +0.000 NA
ATOM      3  C   UNL     1       1.907   8.500  18.171  0.00  0.00    +0.000 A 
ATOM      4  N   UNL     1       1.335   9.630  18.062  0.00  0.00    +0.000 NA
ATOM      5  S   UNL     1       3.496   8.367  17.475  0.00  0.00    +0.000 S 
ATOM      6  N   UNL     1       3.637   6.800  18.090  0.00  0.00    +0.000 N 
ENDROOT
BRANCH   1  10
ATOM      7  C   UNL     1       1.442   2.690  20.607  0.00  0.00    +0.000 A 
ATOM      8  C   UNL     1       2.010   3.716  21.362  0.00  0.00    +0.000 A 
ATOM      9  C   UNL     1       2.387   4.918  20.742  0.00  0.00    +0.000 A 
ATOM     10  C   UNL     1       2.199   5.094  19.365  0.00  0.00    +0.000 A 
ATOM     11  C   UNL     1       1.703   4.024  18.606  0.00  0.00    +0.000 A 
ATOM     12  C   UNL     1       1.303   2.835  19.230  0.00  0.00    +0.000 A 
ENDBRANCH   1  10
BRANCH   6  13
ATOM     13  C   UNL     1       4.701   6.016  17.560  0.00  0.00    +0.000 A 
ATOM     14  C   UNL     1       5.611   5.385  18.445  0.00  0.00    +0.000 A 
ATOM     15  C   UNL     1       6.729   4.688  17.992  0.00  0.00    +0.000 A 
ATOM     16  C   UNL     1       6.940   4.546  16.630  0.00  0.00    +0.000 A 
ATOM     17  C   UNL     1       6.041   5.113  15.731  0.00  0.00    +0.000 A 
ATOM     18  C   UNL     1       4.950   5.862  16.192  0.00  0.00    +0.000 A 
ENDBRANCH   6  13
BRANCH   4  19
ATOM     19  C   UNL     1       0.078   9.968  18.692  0.00  0.00    +0.000 C 
BRANCH  19  20
ATOM     20  C   UNL     1      -0.861  10.463  17.566  0.00  0.00    +0.000 C 
BRANCH  20  21
ATOM     21  N   UNL     1      -2.080   9.664  17.352  0.00  0.00    +0.000 NA
ATOM     22  C   UNL     1      -2.485   9.695  15.925  0.00  0.00    +0.000 C 
ATOM     23  C   UNL     1      -3.115  11.028  15.474  0.00  0.00    +0.000 C 
ATOM     24  O   UNL     1      -4.201  11.423  16.323  0.00  0.00    +0.000 OA
ATOM     25  C   UNL     1      -3.783  11.485  17.692  0.00  0.00    +0.000 C 
ATOM     26  C   UNL     1      -3.225  10.132  18.156  0.00  0.00    +0.000 C 
ENDBRANCH  20  21
ENDBRANCH  19  20
ENDBRANCH   4  19
TORSDOF 5
ENDMDL
MODEL 7
REMARK VINA RESULT:      -7.2      1.776      2.138
REMARK  Name = 
REMARK  5 active torsions:
REMARK  status: ('A' for Active; 'I' for Inactive)
REMARK    1  A    between atoms: C_4  and  C_5
REMARK    2  A    between atoms: N_8  and  C_9
REMARK    3  A    between atoms: C_9  and  C_10
REMARK    4  A    between atoms: C_10  and  N_11
REMARK    5  A    between atoms: N_18  and  C_19
REMARK                            x       y       z     vdW  Elec       q    Type
REMARK                         _______ _______ _______ _____ _____    ______ ____
ROOT
ATOM      1  C   UNL     1       2.641   6.368  18.591  0.00  0.00    +0.000 A 
ATOM      2  N   UNL     1       1.731   7.334  18.589  0.00  0.00    +0.000 NA
ATOM      3  C   UNL     1       2.250   8.429  17.934  0.00  0.00    +0.000 A 
ATOM      4  N   UNL     1       1.745   9.582  17.759  0.00  0.00    +0.000 NA
ATOM      5  S   UNL     1       3.859   8.188  17.319  0.00  0.00    +0.000 S 
ATOM      6  N   UNL     1       3.887   6.639  17.992  0.00  0.00    +0.000 N 
ENDROOT
BRANCH   1  10
ATOM      7  C   UNL     1       1.368   2.749  20.556  0.00  0.00    +0.000 A 
ATOM      8  C   UNL     1       2.021   3.745  21.283  0.00  0.00    +0.000 A 
ATOM      9  C   UNL     1       2.487   4.898  20.633  0.00  0.00    +0.000 A 
ATOM     10  C   UNL     1       2.303   5.057  19.253  0.00  0.00    +0.000 A 
ATOM     11  C   UNL     1       1.718   4.013  18.522  0.00  0.00    +0.000 A 
ATOM     12  C   UNL     1       1.231   2.874  19.176  0.00  0.00    +0.000 A 
ENDBRANCH   1  10
BRANCH   6  13
ATOM     13  C   UNL     1       4.930   5.781  17.540  0.00  0.00    +0.000 A 
ATOM     14  C   UNL     1       6.115   5.658  18.307  0.00  0.00    +0.000 A 
ATOM     15  C   UNL     1       7.212   4.916  17.873  0.00  0.00    +0.000 A 
ATOM     16  C   UNL     1       7.134   4.219  16.678  0.00  0.00    +0.000 A 
ATOM     17  C   UNL     1       5.969   4.280  15.920  0.00  0.00    +0.000 A 
ATOM     18  C   UNL     1       4.891   5.074  16.333  0.00  0.00    +0.000 A 
ENDBRANCH   6  13
BRANCH   4  19
ATOM     19  C   UNL     1       0.481  10.008  18.318  0.00  0.00    +0.000 C 
BRANCH  19  20
ATOM     20  C   UNL     1       0.810  10.751  19.636  0.00  0.00    +0.000 C 
BRANCH  20  21
ATOM     21  N   UNL     1       0.231  12.100  19.770  0.00  0.00    +0.000 NA
ATOM     22  C   UNL     1       0.445  12.890  18.532  0.00  0.00    +0.000 C 
ATOM     23  C   UNL     1       1.894  13.380  18.337  0.00  0.00    +0.000 C 
ATOM     24  O   UNL     1       2.380  14.088  19.486  0.00  0.00    +0.000 OA
ATOM     25  C   UNL     1       2.261  13.287  20.668  0.00  0.00    +0.000 C 
ATOM     26  C   UNL     1       0.803  12.863  20.896  0.00  0.00    +0.000 C 
ENDBRANCH  20  21
ENDBRANCH  19  20
ENDBRANCH   4  19
TORSDOF 5
ENDMDL
MODEL 8
REMARK VINA RESULT:      -7.1      1.951      2.502
REMARK  Name = 
REMARK  5 active torsions:
REMARK  status: ('A' for Active; 'I' for Inactive)
REMARK    1  A    between atoms: C_4  and  C_5
REMARK    2  A    between atoms: N_8  and  C_9
REMARK    3  A    between atoms: C_9  and  C_10
REMARK    4  A    between atoms: C_10  and  N_11
REMARK    5  A    between atoms: N_18  and  C_19
REMARK                            x       y       z     vdW  Elec       q    Type
REMARK                         _______ _______ _______ _____ _____    ______ ____
ROOT
ATOM      1  C   UNL     1       2.397   6.364  18.944  0.00  0.00    +0.000 A 
ATOM      2  N   UNL     1       1.611   7.388  19.253  0.00  0.00    +0.000 NA
ATOM      3  C   UNL     1       2.038   8.499  18.560  0.00  0.00    +0.000 A 
ATOM      4  N   UNL     1       1.612   9.696  18.606  0.00  0.00    +0.000 NA
ATOM      5  S   UNL     1       3.401   8.202  17.521  0.00  0.00    +0.000 S 
ATOM      6  N   UNL     1       3.462   6.601  18.053  0.00  0.00    +0.000 N 
ENDROOT
BRANCH   1  10
ATOM      7  C   UNL     1       1.339   2.673  20.901  0.00  0.00    +0.000 A 
ATOM      8  C   UNL     1       2.167   3.592  21.546  0.00  0.00    +0.000 A 
ATOM      9  C   UNL     1       2.559   4.768  20.888  0.00  0.00    +0.000 A 
ATOM     10  C   UNL     1       2.125   5.026  19.581  0.00  0.00    +0.000 A 
ATOM     11  C   UNL     1       1.361   4.056  18.916  0.00  0.00    +0.000 A 
ATOM     12  C   UNL     1       0.950   2.895  19.584  0.00  0.00    +0.000 A 
ENDBRANCH   1  10
BRANCH   6  13
ATOM     13  C   UNL     1       4.268   5.717  17.280  0.00  0.00    +0.000 A 
ATOM     14  C   UNL     1       4.963   6.213  16.150  0.00  0.00    +0.000 A 
ATOM     15  C   UNL     1       5.686   5.383  15.294  0.00  0.00    +0.000 A 
ATOM     16  C   UNL     1       5.787   4.032  15.580  0.00  0.00    +0.000 A 
ATOM     17  C   UNL     1       5.156   3.516  16.708  0.00  0.00    +0.000 A 
ATOM     18  C   UNL     1       4.383   4.345  17.532  0.00  0.00    +0.000 A 
ENDBRANCH   6  13
BRANCH   4  19
ATOM     19  C   UNL     1       0.583  10.156  19.512  0.00  0.00    +0.000 C 
BRANCH  19  20
ATOM     20  C   UNL     1      -0.730  10.212  18.693  0.00  0.00    +0.000 C 
BRANCH  20  21
ATOM     21  N   UNL     1      -1.098  11.537  18.164  0.00  0.00    +0.000 NA
ATOM     22  C   UNL     1      -1.217  12.527  19.263  0.00  0.00    +0.000 C 
ATOM     23  C   UNL     1      -2.486  12.367  20.125  0.00  0.00    +0.000 C 
ATOM     24  O   UNL     1      -3.677  12.343  19.326  0.00  0.00    +0.000 OA
ATOM     25  C   UNL     1      -3.600  11.321  18.325  0.00  0.00    +0.000 C 
ATOM     26  C   UNL     1      -2.374  11.529  17.424  0.00  0.00    +0.000 C 
ENDBRANCH  20  21
ENDBRANCH  19  20
ENDBRANCH   4  19
TORSDOF 5
ENDMDL
MODEL 9
REMARK VINA RESULT:      -7.1      1.442      1.778
REMARK  Name = 
REMARK  5 active torsions:
REMARK  status: ('A' for Active; 'I' for Inactive)
REMARK    1  A    between atoms: C_4  and  C_5
REMARK    2  A    between atoms: N_8  and  C_9
REMARK    3  A    between atoms: C_9  and  C_10
REMARK    4  A    between atoms: C_10  and  N_11
REMARK    5  A    between atoms: N_18  and  C_19
REMARK                            x       y       z     vdW  Elec       q    Type
REMARK                         _______ _______ _______ _____ _____    ______ ____
ROOT
ATOM      1  C   UNL     1       2.663   6.239  18.219  0.00  0.00    +0.000 A 
ATOM      2  N   UNL     1       1.753   7.204  18.238  0.00  0.00    +0.000 NA
ATOM      3  C   UNL     1       2.330   8.365  17.770  0.00  0.00    +0.000 A 
ATOM      4  N   UNL     1       1.839   9.534  17.680  0.00  0.00    +0.000 NA
ATOM      5  S   UNL     1       3.994   8.185  17.297  0.00  0.00    +0.000 S 
ATOM      6  N   UNL     1       3.962   6.569  17.785  0.00  0.00    +0.000 N 
ENDROOT
BRANCH   1  10
ATOM      7  C   UNL     1       1.211   2.374  19.459  0.00  0.00    +0.000 A 
ATOM      8  C   UNL     1       1.228   3.436  20.363  0.00  0.00    +0.000 A 
ATOM      9  C   UNL     1       1.753   4.679  19.979  0.00  0.00    +0.000 A 
ATOM     10  C   UNL     1       2.266   4.862  18.687  0.00  0.00    +0.000 A 
ATOM     11  C   UNL     1       2.317   3.765  17.816  0.00  0.00    +0.000 A 
ATOM     12  C   UNL     1       1.769   2.532  18.193  0.00  0.00    +0.000 A 
ENDBRANCH   1  10
BRANCH   6  13
ATOM     13  C   UNL     1       5.050   5.763  17.345  0.00  0.00    +0.000 A 
ATOM     14  C   UNL     1       6.102   5.457  18.244  0.00  0.00    +0.000 A 
ATOM     15  C   UNL     1       7.242   4.759  17.849  0.00  0.00    +0.000 A 
ATOM     16  C   UNL     1       7.337   4.288  16.550  0.00  0.00    +0.000 A 
ATOM     17  C   UNL     1       6.303   4.529  15.651  0.00  0.00    +0.000 A 
ATOM     18  C   UNL     1       5.185   5.281  16.038  0.00  0.00    +0.000 A 
ENDBRANCH   6  13
BRANCH   4  19
ATOM     19  C   UNL     1       0.523   9.900  18.153  0.00  0.00    +0.000 C 
BRANCH  19  20
ATOM     20  C   UNL     1       0.737  10.811  19.387  0.00  0.00    +0.000 C 
BRANCH  20  21
ATOM     21  N   UNL     1       0.424  12.237  19.191  0.00  0.00    +0.000 NA
ATOM     22  C   UNL     1       1.655  13.062  19.276  0.00  0.00    +0.000 C 
ATOM     23  C   UNL     1       2.203  13.237  20.707  0.00  0.00    +0.000 C 
ATOM     24  O   UNL     1       1.199  13.721  21.610  0.00  0.00    +0.000 OA
ATOM     25  C   UNL     1       0.047  12.869  21.598  0.00  0.00    +0.000 C 
ATOM     26  C   UNL     1      -0.537  12.759  20.182  0.00  0.00    +0.000 C 
ENDBRANCH  20  21
ENDBRANCH  19  20
ENDBRANCH   4  19
TORSDOF 5
ENDMDL
