MODEL 1
REMARK VINA RESULT:      -9.2      0.000      0.000
REMARK  Name = 
REMARK  6 active torsions:
REMARK  status: ('A' for Active; 'I' for Inactive)
REMARK    1  A    between atoms: C_1  and  N_2
REMARK    2  A    between atoms: C_3  and  C_5
REMARK    3  A    between atoms: C_6  and  C_7
REMARK    4  A    between atoms: C_8  and  O_9
REMARK    5  A    between atoms: C_14  and  C_15
REMARK    6  A    between atoms: C_19  and  O_20
REMARK                            x       y       z     vdW  Elec       q    Type
REMARK                         _______ _______ _______ _____ _____    ______ ____
ROOT
ATOM      1  C   UNL     1       3.775   3.997  17.951  0.00  0.00    +0.000 A 
ATOM      2  C   UNL     1       3.669   2.752  18.597  0.00  0.00    +0.000 A 
ATOM      3  C   UNL     1       2.962   2.620  19.787  0.00  0.00    +0.000 A 
ATOM      4  C   UNL     1       2.360   3.736  20.360  0.00  0.00    +0.000 A 
ATOM      5  C   UNL     1       2.451   4.996  19.752  0.00  0.00    +0.000 A 
ATOM      6  C   UNL     1       1.841   6.114  20.355  0.00  0.00    +0.000 A 
ATOM      7  C   UNL     1       1.911   7.406  19.807  0.00  0.00    +0.000 A 
ATOM      8  C   UNL     1       2.619   7.540  18.604  0.00  0.00    +0.000 A 
ATOM      9  C   UNL     1       3.222   6.439  17.980  0.00  0.00    +0.000 A 
ATOM     10  C   UNL     1       3.160   5.143  18.534  0.00  0.00    +0.000 A 
ENDROOT
BRANCH   7  11
ATOM     11  C   UNL     1       1.263   8.566  20.466  0.00  0.00    +0.000 A 
ATOM     12  C   UNL     1       0.795   9.671  19.728  0.00  0.00    +0.000 A 
ATOM     13  C   UNL     1       0.204  10.777  20.351  0.00  0.00    +0.000 A 
ATOM     14  C   UNL     1       0.050  10.799  21.735  0.00  0.00    +0.000 A 
ATOM     15  C   UNL     1       0.493   9.715  22.478  0.00  0.00    +0.000 A 
ATOM     16  C   UNL     1       1.094   8.617  21.862  0.00  0.00    +0.000 A 
BRANCH  15  17
ATOM     17  O   UNL     1       0.361   9.685  23.836  0.00  0.00    +0.000 OA
ATOM     18  H   UNL     1      -0.004   8.822  24.093  0.00  0.00    +0.000 HD
ENDBRANCH  15  17
ENDBRANCH   7  11
BRANCH   1  20
ATOM     19  C   UNL     1       5.821   4.492  16.651  0.00  0.00    +0.000 C 
ATOM     20  C   UNL     1       4.538   4.104  16.694  0.00  0.00    +0.000 C 
BRANCH  19  23
ATOM     21  C   UNL     1       6.433   3.825  13.013  0.00  0.00    +0.000 C 
ATOM     22  N   UNL     1       5.891   3.856  14.349  0.00  0.00    +0.000 N 
ATOM     23  C   UNL     1       6.499   4.592  15.333  0.00  0.00    +0.000 C 
ATOM     24  O   UNL     1       7.508   5.263  15.164  0.00  0.00    +0.000 OA
ATOM     25  H   UNL     1       5.059   3.317  14.547  0.00  0.00    +0.000 HD
ENDBRANCH  19  23
ENDBRANCH   1  20
BRANCH   2  26
ATOM     26  O   UNL     1       4.255   1.609  18.125  0.00  0.00    +0.000 OA
ATOM     27  H   UNL     1       4.998   1.855  17.550  0.00  0.00    +0.000 HD
ENDBRANCH   2  26
TORSDOF 5
ENDMDL
MODEL 2
REMARK VINA RESULT:      -8.8      0.956      1.368
REMARK  Name = 
REMARK  6 active torsions:
REMARK  status: ('A' for Active; 'I' for Inactive)
REMARK    1  A    between atoms: C_1  and  N_2
REMARK    2  A    between atoms: C_3  and  C_5
REMARK    3  A    between atoms: C_6  and  C_7
REMARK    4  A    between atoms: C_8  and  O_9
REMARK    5  A    between atoms: C_14  and  C_15
REMARK    6  A    between atoms: C_19  and  O_20
REMARK                            x       y       z     vdW  Elec       q    Type
REMARK                         _______ _______ _______ _____ _____    ______ ____
ROOT
ATOM      1  C   UNL     1       3.773   4.008  17.891  0.00  0.00    +0.000 A 
ATOM      2  C   UNL     1       3.679   2.750  18.513  0.00  0.00    +0.000 A 
ATOM      3  C   UNL     1       2.985   2.589  19.706  0.00  0.00    +0.000 A 
ATOM      4  C   UNL     1       2.384   3.690  20.309  0.00  0.00    +0.000 A 
ATOM      5  C   UNL     1       2.463   4.963  19.727  0.00  0.00    +0.000 A 
ATOM      6  C   UNL     1       1.854   6.064  20.360  0.00  0.00    +0.000 A 
ATOM      7  C   UNL     1       1.913   7.368  19.839  0.00  0.00    +0.000 A 
ATOM      8  C   UNL     1       2.607   7.531  18.631  0.00  0.00    +0.000 A 
ATOM      9  C   UNL     1       3.209   6.447  17.978  0.00  0.00    +0.000 A 
ATOM     10  C   UNL     1       3.159   5.139  18.506  0.00  0.00    +0.000 A 
ENDROOT
BRANCH   7  11
ATOM     11  C   UNL     1       1.266   8.511  20.530  0.00  0.00    +0.000 A 
ATOM     12  C   UNL     1       1.070   8.518  21.925  0.00  0.00    +0.000 A 
ATOM     13  C   UNL     1       0.439   9.585  22.575  0.00  0.00    +0.000 A 
ATOM     14  C   UNL     1      -0.001  10.686  21.846  0.00  0.00    +0.000 A 
ATOM     15  C   UNL     1       0.194  10.704  20.472  0.00  0.00    +0.000 A 
ATOM     16  C   UNL     1       0.811   9.637  19.819  0.00  0.00    +0.000 A 
BRANCH  15  17
ATOM     17  O   UNL     1      -0.213  11.761  19.712  0.00  0.00    +0.000 OA
ATOM     18  H   UNL     1       0.068  12.582  20.147  0.00  0.00    +0.000 HD
ENDBRANCH  15  17
ENDBRANCH   7  11
BRANCH   1  20
ATOM     19  C   UNL     1       5.846   4.354  16.587  0.00  0.00    +0.000 C 
ATOM     20  C   UNL     1       4.522   4.146  16.629  0.00  0.00    +0.000 C 
BRANCH  19  23
ATOM     21  C   UNL     1       6.528   3.689  12.960  0.00  0.00    +0.000 C 
ATOM     22  N   UNL     1       5.986   3.686  14.297  0.00  0.00    +0.000 N 
ATOM     23  C   UNL     1       6.509   4.503  15.266  0.00  0.00    +0.000 C 
ATOM     24  O   UNL     1       7.438   5.278  15.081  0.00  0.00    +0.000 OA
ATOM     25  H   UNL     1       5.218   3.062  14.506  0.00  0.00    +0.000 HD
ENDBRANCH  19  23
ENDBRANCH   1  20
BRANCH   2  26
ATOM     26  O   UNL     1       4.266   1.620  18.010  0.00  0.00    +0.000 OA
ATOM     27  H   UNL     1       4.042   1.547  17.067  0.00  0.00    +0.000 HD
ENDBRANCH   2  26
TORSDOF 5
ENDMDL
MODEL 3
REMARK VINA RESULT:      -8.5      1.568      1.941
REMARK  Name = 
REMARK  6 active torsions:
REMARK  status: ('A' for Active; 'I' for Inactive)
REMARK    1  A    between atoms: C_1  and  N_2
REMARK    2  A    between atoms: C_3  and  C_5
REMARK    3  A    between atoms: C_6  and  C_7
REMARK    4  A    between atoms: C_8  and  O_9
REMARK    5  A    between atoms: C_14  and  C_15
REMARK    6  A    between atoms: C_19  and  O_20
REMARK                            x       y       z     vdW  Elec       q    Type
REMARK                         _______ _______ _______ _____ _____    ______ ____
ROOT
ATOM      1  C   UNL     1       3.956   4.693  17.961  0.00  0.00    +0.000 A 
ATOM      2  C   UNL     1       3.959   3.612  18.860  0.00  0.00    +0.000 A 
ATOM      3  C   UNL     1       3.293   3.690  20.077  0.00  0.00    +0.000 A 
ATOM      4  C   UNL     1       2.622   4.858  20.424  0.00  0.00    +0.000 A 
ATOM      5  C   UNL     1       2.603   5.962  19.559  0.00  0.00    +0.000 A 
ATOM      6  C   UNL     1       1.925   7.138  19.936  0.00  0.00    +0.000 A 
ATOM      7  C   UNL     1       1.884   8.285  19.124  0.00  0.00    +0.000 A 
ATOM      8  C   UNL     1       2.551   8.206  17.893  0.00  0.00    +0.000 A 
ATOM      9  C   UNL     1       3.221   7.041  17.493  0.00  0.00    +0.000 A 
ATOM     10  C   UNL     1       3.270   5.893  18.312  0.00  0.00    +0.000 A 
ENDROOT
BRANCH   7  11
ATOM     11  C   UNL     1       1.165   9.512  19.547  0.00  0.00    +0.000 A 
ATOM     12  C   UNL     1       0.756   9.706  20.881  0.00  0.00    +0.000 A 
ATOM     13  C   UNL     1       0.057  10.853  21.278  0.00  0.00    +0.000 A 
ATOM     14  C   UNL     1      -0.238  11.847  20.350  0.00  0.00    +0.000 A 
ATOM     15  C   UNL     1       0.168  11.680  19.033  0.00  0.00    +0.000 A 
ATOM     16  C   UNL     1       0.853  10.533  18.632  0.00  0.00    +0.000 A 
BRANCH  15  17
ATOM     17  O   UNL     1      -0.091  12.626  18.086  0.00  0.00    +0.000 OA
ATOM     18  H   UNL     1      -0.259  12.180  17.239  0.00  0.00    +0.000 HD
ENDBRANCH  15  17
ENDBRANCH   7  11
BRANCH   1  20
ATOM     19  C   UNL     1       5.970   4.917  16.541  0.00  0.00    +0.000 C 
ATOM     20  C   UNL     1       4.679   4.582  16.681  0.00  0.00    +0.000 C 
BRANCH  19  23
ATOM     21  C   UNL     1       6.388   3.751  13.002  0.00  0.00    +0.000 C 
ATOM     22  N   UNL     1       5.900   3.997  14.337  0.00  0.00    +0.000 N 
ATOM     23  C   UNL     1       6.605   4.791  15.204  0.00  0.00    +0.000 C 
ATOM     24  O   UNL     1       7.662   5.342  14.925  0.00  0.00    +0.000 OA
ATOM     25  H   UNL     1       5.032   3.564  14.622  0.00  0.00    +0.000 HD
ENDBRANCH  19  23
ENDBRANCH   1  20
BRANCH   2  26
ATOM     26  O   UNL     1       4.619   2.437  18.618  0.00  0.00    +0.000 OA
ATOM     27  H   UNL     1       5.423   2.414  19.162  0.00  0.00    +0.000 HD
ENDBRANCH   2  26
TORSDOF 5
ENDMDL
MODEL 4
REMARK VINA RESULT:      -8.3      1.242      1.486
REMARK  Name = 
REMARK  6 active torsions:
REMARK  status: ('A' for Active; 'I' for Inactive)
REMARK    1  A    between atoms: C_1  and  N_2
REMARK    2  A    between atoms: C_3  and  C_5
REMARK    3  A    between atoms: C_6  and  C_7
REMARK    4  A    between atoms: C_8  and  O_9
REMARK    5  A    between atoms: C_14  and  C_15
REMARK    6  A    between atoms: C_19  and  O_20
REMARK                            x       y       z     vdW  Elec       q    Type
REMARK                         _______ _______ _______ _____ _____    ______ ____
ROOT
ATOM      1  C   UNL     1       4.423   4.990  18.253  0.00  0.00    +0.000 A 
ATOM      2  C   UNL     1       4.354   3.895  19.133  0.00  0.00    +0.000 A 
ATOM      3  C   UNL     1       3.460   3.886  20.197  0.00  0.00    +0.000 A 
ATOM      4  C   UNL     1       2.627   4.981  20.409  0.00  0.00    +0.000 A 
ATOM      5  C   UNL     1       2.672   6.095  19.560  0.00  0.00    +0.000 A 
ATOM      6  C   UNL     1       1.826   7.196  19.800  0.00  0.00    +0.000 A 
ATOM      7  C   UNL     1       1.835   8.350  18.998  0.00  0.00    +0.000 A 
ATOM      8  C   UNL     1       2.732   8.359  17.920  0.00  0.00    +0.000 A 
ATOM      9  C   UNL     1       3.574   7.269  17.657  0.00  0.00    +0.000 A 
ATOM     10  C   UNL     1       3.572   6.114  18.466  0.00  0.00    +0.000 A 
ENDROOT
BRANCH   7  11
ATOM     11  C   UNL     1       0.936   9.497  19.277  0.00  0.00    +0.000 A 
ATOM     12  C   UNL     1       0.077  10.021  18.290  0.00  0.00    +0.000 A 
ATOM     13  C   UNL     1      -0.755  11.117  18.544  0.00  0.00    +0.000 A 
ATOM     14  C   UNL     1      -0.763  11.712  19.803  0.00  0.00    +0.000 A 
ATOM     15  C   UNL     1       0.067  11.202  20.792  0.00  0.00    +0.000 A 
ATOM     16  C   UNL     1       0.907  10.118  20.539  0.00  0.00    +0.000 A 
BRANCH  15  17
ATOM     17  O   UNL     1       0.094  11.744  22.043  0.00  0.00    +0.000 OA
ATOM     18  H   UNL     1       0.840  11.359  22.532  0.00  0.00    +0.000 HD
ENDBRANCH  15  17
ENDBRANCH   7  11
BRANCH   1  20
ATOM     19  C   UNL     1       5.163   4.315  15.990  0.00  0.00    +0.000 C 
ATOM     20  C   UNL     1       5.387   4.971  17.138  0.00  0.00    +0.000 C 
BRANCH  19  23
ATOM     21  C   UNL     1       6.653   3.824  12.585  0.00  0.00    +0.000 C 
ATOM     22  N   UNL     1       5.761   3.887  13.717  0.00  0.00    +0.000 N 
ATOM     23  C   UNL     1       6.206   4.337  14.933  0.00  0.00    +0.000 C 
ATOM     24  O   UNL     1       7.350   4.713  15.149  0.00  0.00    +0.000 OA
ATOM     25  H   UNL     1       4.804   3.586  13.596  0.00  0.00    +0.000 HD
ENDBRANCH  19  23
ENDBRANCH   1  20
BRANCH   2  26
ATOM     26  O   UNL     1       5.156   2.792  19.021  0.00  0.00    +0.000 OA
ATOM     27  H   UNL     1       5.615   2.654  19.866  0.00  0.00    +0.000 HD
ENDBRANCH   2  26
TORSDOF 5
ENDMDL
MODEL 5
REMARK VINA RESULT:      -8.2      2.585      7.942
REMARK  Name = 
REMARK  6 active torsions:
REMARK  status: ('A' for Active; 'I' for Inactive)
REMARK    1  A    between atoms: C_1  and  N_2
REMARK    2  A    between atoms: C_3  and  C_5
REMARK    3  A    between atoms: C_6  and  C_7
REMARK    4  A    between atoms: C_8  and  O_9
REMARK    5  A    between atoms: C_14  and  C_15
REMARK    6  A    between atoms: C_19  and  O_20
REMARK                            x       y       z     vdW  Elec       q    Type
REMARK                         _______ _______ _______ _____ _____    ______ ____
ROOT
ATOM      1  C   UNL     1       2.607   4.741  19.358  0.00  0.00    +0.000 A 
ATOM      2  C   UNL     1       2.072   3.537  19.847  0.00  0.00    +0.000 A 
ATOM      3  C   UNL     1       2.337   2.326  19.218  0.00  0.00    +0.000 A 
ATOM      4  C   UNL     1       3.132   2.301  18.076  0.00  0.00    +0.000 A 
ATOM      5  C   UNL     1       3.676   3.482  17.550  0.00  0.00    +0.000 A 
ATOM      6  C   UNL     1       4.470   3.433  16.388  0.00  0.00    +0.000 A 
ATOM      7  C   UNL     1       5.029   4.582  15.801  0.00  0.00    +0.000 A 
ATOM      8  C   UNL     1       4.768   5.803  16.438  0.00  0.00    +0.000 A 
ATOM      9  C   UNL     1       3.991   5.872  17.603  0.00  0.00    +0.000 A 
ATOM     10  C   UNL     1       3.422   4.721  18.188  0.00  0.00    +0.000 A 
ENDROOT
BRANCH   7  11
ATOM     11  C   UNL     1       5.858   4.502  14.573  0.00  0.00    +0.000 A 
ATOM     12  C   UNL     1       5.522   3.644  13.507  0.00  0.00    +0.000 A 
ATOM     13  C   UNL     1       6.315   3.550  12.358  0.00  0.00    +0.000 A 
ATOM     14  C   UNL     1       7.464   4.328  12.237  0.00  0.00    +0.000 A 
ATOM     15  C   UNL     1       7.805   5.188  13.271  0.00  0.00    +0.000 A 
ATOM     16  C   UNL     1       7.024   5.275  14.423  0.00  0.00    +0.000 A 
BRANCH  15  17
ATOM     17  O   UNL     1       8.917   5.975  13.200  0.00  0.00    +0.000 OA
ATOM     18  H   UNL     1       8.767   6.665  12.533  0.00  0.00    +0.000 HD
ENDBRANCH  15  17
ENDBRANCH   7  11
BRANCH   1  20
ATOM     19  C   UNL     1       1.834   7.091  19.405  0.00  0.00    +0.000 C 
ATOM     20  C   UNL     1       2.301   6.009  20.045  0.00  0.00    +0.000 C 
BRANCH  19  23
ATOM     21  C   UNL     1       1.374   9.243  22.441  0.00  0.00    +0.000 C 
ATOM     22  N   UNL     1       1.622   8.145  21.539  0.00  0.00    +0.000 N 
ATOM     23  C   UNL     1       1.576   8.331  20.182  0.00  0.00    +0.000 C 
ATOM     24  O   UNL     1       1.338   9.404  19.644  0.00  0.00    +0.000 OA
ATOM     25  H   UNL     1       1.822   7.234  21.929  0.00  0.00    +0.000 HD
ENDBRANCH  19  23
ENDBRANCH   1  20
BRANCH   2  26
ATOM     26  O   UNL     1       1.255   3.469  20.944  0.00  0.00    +0.000 OA
ATOM     27  H   UNL     1       1.225   2.549  21.253  0.00  0.00    +0.000 HD
ENDBRANCH   2  26
TORSDOF 5
ENDMDL
MODEL 6
REMARK VINA RESULT:      -7.9      1.477      1.870
REMARK  Name = 
REMARK  6 active torsions:
REMARK  status: ('A' for Active; 'I' for Inactive)
REMARK    1  A    between atoms: C_1  and  N_2
REMARK    2  A    between atoms: C_3  and  C_5
REMARK    3  A    between atoms: C_6  and  C_7
REMARK    4  A    between atoms: C_8  and  O_9
REMARK    5  A    between atoms: C_14  and  C_15
REMARK    6  A    between atoms: C_19  and  O_20
REMARK                            x       y       z     vdW  Elec       q    Type
REMARK                         _______ _______ _______ _____ _____    ______ ____
ROOT
ATOM      1  C   UNL     1       3.602   5.271  18.411  0.00  0.00    +0.000 A 
ATOM      2  C   UNL     1       3.565   4.231  19.356  0.00  0.00    +0.000 A 
ATOM      3  C   UNL     1       2.823   4.351  20.526  0.00  0.00    +0.000 A 
ATOM      4  C   UNL     1       2.116   5.522  20.778  0.00  0.00    +0.000 A 
ATOM      5  C   UNL     1       2.135   6.587  19.865  0.00  0.00    +0.000 A 
ATOM      6  C   UNL     1       1.419   7.766  20.146  0.00  0.00    +0.000 A 
ATOM      7  C   UNL     1       1.413   8.875  19.282  0.00  0.00    +0.000 A 
ATOM      8  C   UNL     1       2.156   8.754  18.099  0.00  0.00    +0.000 A 
ATOM      9  C   UNL     1       2.865   7.584  17.795  0.00  0.00    +0.000 A 
ATOM     10  C   UNL     1       2.879   6.474  18.665  0.00  0.00    +0.000 A 
ENDROOT
BRANCH   7  11
ATOM     11  C   UNL     1       0.653  10.108  19.605  0.00  0.00    +0.000 A 
ATOM     12  C   UNL     1      -0.619  10.360  19.053  0.00  0.00    +0.000 A 
ATOM     13  C   UNL     1      -1.327  11.533  19.339  0.00  0.00    +0.000 A 
ATOM     14  C   UNL     1      -0.787  12.482  20.202  0.00  0.00    +0.000 A 
ATOM     15  C   UNL     1       0.459  12.247  20.766  0.00  0.00    +0.000 A 
ATOM     16  C   UNL     1       1.173  11.085  20.473  0.00  0.00    +0.000 A 
BRANCH  15  17
ATOM     17  O   UNL     1       1.030  13.143  21.621  0.00  0.00    +0.000 OA
ATOM     18  H   UNL     1       0.424  13.894  21.734  0.00  0.00    +0.000 HD
ENDBRANCH  15  17
ENDBRANCH   7  11
BRANCH   1  20
ATOM     19  C   UNL     1       5.721   5.367  17.137  0.00  0.00    +0.000 C 
ATOM     20  C   UNL     1       4.405   5.115  17.184  0.00  0.00    +0.000 C 
BRANCH  19  23
ATOM     21  C   UNL     1       6.396   4.046  13.694  0.00  0.00    +0.000 C 
ATOM     22  N   UNL     1       5.820   4.336  14.984  0.00  0.00    +0.000 N 
ATOM     23  C   UNL     1       6.439   5.202  15.847  0.00  0.00    +0.000 C 
ATOM     24  O   UNL     1       7.487   5.784  15.600  0.00  0.00    +0.000 OA
ATOM     25  H   UNL     1       4.955   3.880  15.241  0.00  0.00    +0.000 HD
ENDBRANCH  19  23
ENDBRANCH   1  20
BRANCH   2  26
ATOM     26  O   UNL     1       4.254   3.057  19.208  0.00  0.00    +0.000 OA
ATOM     27  H   UNL     1       3.849   2.547  18.489  0.00  0.00    +0.000 HD
ENDBRANCH   2  26
TORSDOF 5
ENDMDL
MODEL 7
REMARK VINA RESULT:      -7.9      2.092      2.881
REMARK  Name = 
REMARK  6 active torsions:
REMARK  status: ('A' for Active; 'I' for Inactive)
REMARK    1  A    between atoms: C_1  and  N_2
REMARK    2  A    between atoms: C_3  and  C_5
REMARK    3  A    between atoms: C_6  and  C_7
REMARK    4  A    between atoms: C_8  and  O_9
REMARK    5  A    between atoms: C_14  and  C_15
REMARK    6  A    between atoms: C_19  and  O_20
REMARK                            x       y       z     vdW  Elec       q    Type
REMARK                         _______ _______ _______ _____ _____    ______ ____
ROOT
ATOM      1  C   UNL     1       3.325   5.860  18.568  0.00  0.00    +0.000 A 
ATOM      2  C   UNL     1       3.153   4.942  19.619  0.00  0.00    +0.000 A 
ATOM      3  C   UNL     1       2.342   5.241  20.708  0.00  0.00    +0.000 A 
ATOM      4  C   UNL     1       1.698   6.473  20.771  0.00  0.00    +0.000 A 
ATOM      5  C   UNL     1       1.851   7.420  19.748  0.00  0.00    +0.000 A 
ATOM      6  C   UNL     1       1.197   8.664  19.839  0.00  0.00    +0.000 A 
ATOM      7  C   UNL     1       1.324   9.662  18.857  0.00  0.00    +0.000 A 
ATOM      8  C   UNL     1       2.137   9.360  17.756  0.00  0.00    +0.000 A 
ATOM      9  C   UNL     1       2.787   8.123  17.640  0.00  0.00    +0.000 A 
ATOM     10  C   UNL     1       2.667   7.124  18.629  0.00  0.00    +0.000 A 
ENDROOT
BRANCH   7  11
ATOM     11  C   UNL     1       0.626  10.966  18.981  0.00  0.00    +0.000 A 
ATOM     12  C   UNL     1       1.307  12.136  19.373  0.00  0.00    +0.000 A 
ATOM     13  C   UNL     1       0.646  13.362  19.512  0.00  0.00    +0.000 A 
ATOM     14  C   UNL     1      -0.718  13.454  19.246  0.00  0.00    +0.000 A 
ATOM     15  C   UNL     1      -1.403  12.316  18.847  0.00  0.00    +0.000 A 
ATOM     16  C   UNL     1      -0.751  11.090  18.719  0.00  0.00    +0.000 A 
BRANCH  15  17
ATOM     17  O   UNL     1      -2.738  12.353  18.569  0.00  0.00    +0.000 OA
ATOM     18  H   UNL     1      -3.169  12.958  19.196  0.00  0.00    +0.000 HD
ENDBRANCH  15  17
ENDBRANCH   7  11
BRANCH   1  20
ATOM     19  C   UNL     1       5.491   5.868  17.371  0.00  0.00    +0.000 C 
ATOM     20  C   UNL     1       4.198   5.515  17.431  0.00  0.00    +0.000 C 
BRANCH  19  23
ATOM     21  C   UNL     1       6.289   4.106  14.159  0.00  0.00    +0.000 C 
ATOM     22  N   UNL     1       5.649   4.592  15.358  0.00  0.00    +0.000 N 
ATOM     23  C   UNL     1       6.283   5.493  16.173  0.00  0.00    +0.000 C 
ATOM     24  O   UNL     1       7.399   5.947  15.956  0.00  0.00    +0.000 OA
ATOM     25  H   UNL     1       4.726   4.248  15.587  0.00  0.00    +0.000 HD
ENDBRANCH  19  23
ENDBRANCH   1  20
BRANCH   2  26
ATOM     26  O   UNL     1       3.773   3.721  19.657  0.00  0.00    +0.000 OA
ATOM     27  H   UNL     1       3.601   3.260  18.821  0.00  0.00    +0.000 HD
ENDBRANCH   2  26
TORSDOF 5
ENDMDL
MODEL 8
REMARK VINA RESULT:      -7.8      2.754      8.117
REMARK  Name = 
REMARK  6 active torsions:
REMARK  status: ('A' for Active; 'I' for Inactive)
REMARK    1  A    between atoms: C_1  and  N_2
REMARK    2  A    between atoms: C_3  and  C_5
REMARK    3  A    between atoms: C_6  and  C_7
REMARK    4  A    between atoms: C_8  and  O_9
REMARK    5  A    between atoms: C_14  and  C_15
REMARK    6  A    between atoms: C_19  and  O_20
REMARK                            x       y       z     vdW  Elec       q    Type
REMARK                         _______ _______ _______ _____ _____    ______ ____
ROOT
ATOM      1  C   UNL     1       3.111   4.975  19.530  0.00  0.00    +0.000 A 
ATOM      2  C   UNL     1       2.708   3.794  20.178  0.00  0.00    +0.000 A 
ATOM      3  C   UNL     1       3.003   2.546  19.642  0.00  0.00    +0.000 A 
ATOM      4  C   UNL     1       3.695   2.457  18.438  0.00  0.00    +0.000 A 
ATOM      5  C   UNL     1       4.106   3.612  17.756  0.00  0.00    +0.000 A 
ATOM      6  C   UNL     1       4.797   3.497  16.534  0.00  0.00    +0.000 A 
ATOM      7  C   UNL     1       5.220   4.614  15.793  0.00  0.00    +0.000 A 
ATOM      8  C   UNL     1       4.928   5.874  16.335  0.00  0.00    +0.000 A 
ATOM      9  C   UNL     1       4.253   6.010  17.556  0.00  0.00    +0.000 A 
ATOM     10  C   UNL     1       3.820   4.890  18.296  0.00  0.00    +0.000 A 
ENDROOT
BRANCH   7  11
ATOM     11  C   UNL     1       5.943   4.465  14.506  0.00  0.00    +0.000 A 
ATOM     12  C   UNL     1       7.092   5.224  14.210  0.00  0.00    +0.000 A 
ATOM     13  C   UNL     1       7.762   5.101  12.987  0.00  0.00    +0.000 A 
ATOM     14  C   UNL     1       7.307   4.198  12.029  0.00  0.00    +0.000 A 
ATOM     15  C   UNL     1       6.184   3.432  12.307  0.00  0.00    +0.000 A 
ATOM     16  C   UNL     1       5.507   3.561  13.520  0.00  0.00    +0.000 A 
BRANCH  15  17
ATOM     17  O   UNL     1       5.701   2.530  11.406  0.00  0.00    +0.000 OA
ATOM     18  H   UNL     1       6.279   1.749  11.408  0.00  0.00    +0.000 HD
ENDBRANCH  15  17
ENDBRANCH   7  11
BRANCH   1  20
ATOM     19  C   UNL     1       1.733   7.022  19.715  0.00  0.00    +0.000 C 
ATOM     20  C   UNL     1       2.776   6.283  20.121  0.00  0.00    +0.000 C 
BRANCH  19  23
ATOM     21  C   UNL     1       1.316   9.488  22.508  0.00  0.00    +0.000 C 
ATOM     22  N   UNL     1       1.549   8.298  21.726  0.00  0.00    +0.000 N 
ATOM     23  C   UNL     1       1.490   8.338  20.357  0.00  0.00    +0.000 C 
ATOM     24  O   UNL     1       1.251   9.350  19.711  0.00  0.00    +0.000 OA
ATOM     25  H   UNL     1       1.748   7.433  22.209  0.00  0.00    +0.000 HD
ENDBRANCH  19  23
ENDBRANCH   1  20
BRANCH   2  26
ATOM     26  O   UNL     1       1.996   3.785  21.347  0.00  0.00    +0.000 OA
ATOM     27  H   UNL     1       1.800   4.702  21.599  0.00  0.00    +0.000 HD
ENDBRANCH   2  26
TORSDOF 5
ENDMDL
MODEL 9
REMARK VINA RESULT:      -7.7      2.078      2.839
REMARK  Name = 
REMARK  6 active torsions:
REMARK  status: ('A' for Active; 'I' for Inactive)
REMARK    1  A    between atoms: C_1  and  N_2
REMARK    2  A    between atoms: C_3  and  C_5
REMARK    3  A    between atoms: C_6  and  C_7
REMARK    4  A    between atoms: C_8  and  O_9
REMARK    5  A    between atoms: C_14  and  C_15
REMARK    6  A    between atoms: C_19  and  O_20
REMARK                            x       y       z     vdW  Elec       q    Type
REMARK                         _______ _______ _______ _____ _____    ______ ____
ROOT
ATOM      1  C   UNL     1       3.366   5.833  18.472  0.00  0.00    +0.000 A 
ATOM      2  C   UNL     1       3.241   4.878  19.497  0.00  0.00    +0.000 A 
ATOM      3  C   UNL     1       2.456   5.126  20.617  0.00  0.00    +0.000 A 
ATOM      4  C   UNL     1       1.792   6.343  20.739  0.00  0.00    +0.000 A 
ATOM      5  C   UNL     1       1.898   7.325  19.744  0.00  0.00    +0.000 A 
ATOM      6  C   UNL     1       1.225   8.553  19.894  0.00  0.00    +0.000 A 
ATOM      7  C   UNL     1       1.305   9.585  18.943  0.00  0.00    +0.000 A 
ATOM      8  C   UNL     1       2.092   9.335  17.810  0.00  0.00    +0.000 A 
ATOM      9  C   UNL     1       2.760   8.115  17.635  0.00  0.00    +0.000 A 
ATOM     10  C   UNL     1       2.687   7.082  18.593  0.00  0.00    +0.000 A 
ENDROOT
BRANCH   7  11
ATOM     11  C   UNL     1       0.588  10.871  19.129  0.00  0.00    +0.000 A 
ATOM     12  C   UNL     1      -0.736  10.917  19.609  0.00  0.00    +0.000 A 
ATOM     13  C   UNL     1      -1.422  12.127  19.763  0.00  0.00    +0.000 A 
ATOM     14  C   UNL     1      -0.794  13.331  19.455  0.00  0.00    +0.000 A 
ATOM     15  C   UNL     1       0.515  13.307  18.992  0.00  0.00    +0.000 A 
ATOM     16  C   UNL     1       1.197  12.102  18.825  0.00  0.00    +0.000 A 
BRANCH  15  17
ATOM     17  O   UNL     1       1.177  14.458  18.681  0.00  0.00    +0.000 OA
ATOM     18  H   UNL     1       1.497  14.864  19.503  0.00  0.00    +0.000 HD
ENDBRANCH  15  17
ENDBRANCH   7  11
BRANCH   1  20
ATOM     19  C   UNL     1       5.542   5.715  17.300  0.00  0.00    +0.000 C 
ATOM     20  C   UNL     1       4.212   5.542  17.301  0.00  0.00    +0.000 C 
BRANCH  19  23
ATOM     21  C   UNL     1       6.280   4.127  13.986  0.00  0.00    +0.000 C 
ATOM     22  N   UNL     1       5.666   4.541  15.224  0.00  0.00    +0.000 N 
ATOM     23  C   UNL     1       6.306   5.416  16.063  0.00  0.00    +0.000 C 
ATOM     24  O   UNL     1       7.405   5.904  15.836  0.00  0.00    +0.000 OA
ATOM     25  H   UNL     1       4.758   4.166  15.463  0.00  0.00    +0.000 HD
ENDBRANCH  19  23
ENDBRANCH   1  20
BRANCH   2  26
ATOM     26  O   UNL     1       3.883   3.669  19.477  0.00  0.00    +0.000 OA
ATOM     27  H   UNL     1       4.047   3.389  20.392  0.00  0.00    +0.000 HD
ENDBRANCH   2  26
TORSDOF 5
ENDMDL
