MODEL 1
REMARK VINA RESULT:      -7.8      0.000      0.000
REMARK  Name = 
REMARK  9 active torsions:
REMARK  status: ('A' for Active; 'I' for Inactive)
REMARK    1  A    between atoms: C_1  and  O_2
REMARK    2  A    between atoms: O_2  and  C_3
REMARK    3  A    between atoms: C_9  and  C_10
REMARK    4  A    between atoms: C_16  and  O_17
REMARK    5  A    between atoms: O_17  and  C_18
REMARK    6  A    between atoms: C_18  and  C_19
REMARK    7  A    between atoms: C_19  and  C_20
REMARK    8  A    between atoms: C_20  and  S_21
REMARK    9  A    between atoms: S_21  and  C_22
REMARK                            x       y       z     vdW  Elec       q    Type
REMARK                         _______ _______ _______ _____ _____    ______ ____
ROOT
ATOM      1  C   UNL     1       2.251   5.475  20.101  0.00  0.00    +0.000 A 
ATOM      2  C   UNL     1       2.041   4.563  21.116  0.00  0.00    +0.000 A 
ATOM      3  N   UNL     1       2.531   3.320  20.791  0.00  0.00    +0.000 NA
ATOM      4  C   UNL     1       3.051   3.461  19.591  0.00  0.00    +0.000 A 
ATOM      5  C   UNL     1       3.720   2.535  18.755  0.00  0.00    +0.000 A 
ATOM      6  C   UNL     1       4.175   2.935  17.558  0.00  0.00    +0.000 A 
ATOM      7  C   UNL     1       3.961   4.352  17.223  0.00  0.00    +0.000 A 
ATOM      8  N   UNL     1       3.348   5.245  17.921  0.00  0.00    +0.000 NA
ATOM      9  N   UNL     1       2.900   4.757  19.118  0.00  0.00    +0.000 N 
ENDROOT
BRANCH   1  16
ATOM     10  C   UNL     1       0.759  10.210  20.935  0.00  0.00    +0.000 A 
ATOM     11  N   UNL     1       0.686  11.265  20.083  0.00  0.00    +0.000 NA
ATOM     12  C   UNL     1       1.081  11.099  18.796  0.00  0.00    +0.000 A 
ATOM     13  C   UNL     1       1.568   9.920  18.250  0.00  0.00    +0.000 A 
ATOM     14  C   UNL     1       1.620   8.873  19.155  0.00  0.00    +0.000 A 
ATOM     15  O   UNL     1       2.044   7.606  18.888  0.00  0.00    +0.000 OA
ATOM     16  C   UNL     1       1.923   6.867  20.042  0.00  0.00    +0.000 A 
ATOM     17  C   UNL     1       1.442   7.698  21.040  0.00  0.00    +0.000 A 
ATOM     18  C   UNL     1       1.233   8.980  20.479  0.00  0.00    +0.000 A 
BRANCH  10  20
ATOM     19  C   UNL     1      -0.617  11.361  22.433  0.00  0.00    +0.000 C 
ATOM     20  O   UNL     1       0.352  10.336  22.250  0.00  0.00    +0.000 OA
ENDBRANCH  10  20
ENDBRANCH   1  16
BRANCH   7  21
ATOM     21  O   UNL     1       4.562   4.631  16.041  0.00  0.00    +0.000 OA
BRANCH  21  22
ATOM     22  C   UNL     1       5.904   4.131  15.859  0.00  0.00    +0.000 C 
BRANCH  22  23
ATOM     23  C   UNL     1       6.894   5.097  16.504  0.00  0.00    +0.000 C 
BRANCH  23  24
ATOM     24  C   UNL     1       7.656   4.479  17.665  0.00  0.00    +0.000 C 
BRANCH  24  25
ATOM     25  S   UNL     1       7.580   5.552  19.097  0.00  0.00    +0.000 S 
ATOM     26  C   UNL     1       7.990   7.146  18.436  0.00  0.00    +0.000 C 
ATOM     27  O   UNL     1       6.200   5.608  19.545  0.00  0.00    +0.000 OA
ATOM     28  O   UNL     1       8.646   5.166  20.001  0.00  0.00    +0.000 OA
ENDBRANCH  24  25
ENDBRANCH  23  24
ENDBRANCH  22  23
ENDBRANCH  21  22
ENDBRANCH   7  21
TORSDOF 7
ENDMDL
MODEL 2
REMARK VINA RESULT:      -7.7      2.925      3.801
REMARK  Name = 
REMARK  9 active torsions:
REMARK  status: ('A' for Active; 'I' for Inactive)
REMARK    1  A    between atoms: C_1  and  O_2
REMARK    2  A    between atoms: O_2  and  C_3
REMARK    3  A    between atoms: C_9  and  C_10
REMARK    4  A    between atoms: C_16  and  O_17
REMARK    5  A    between atoms: O_17  and  C_18
REMARK    6  A    between atoms: C_18  and  C_19
REMARK    7  A    between atoms: C_19  and  C_20
REMARK    8  A    between atoms: C_20  and  S_21
REMARK    9  A    between atoms: S_21  and  C_22
REMARK                            x       y       z     vdW  Elec       q    Type
REMARK                         _______ _______ _______ _____ _____    ______ ____
ROOT
ATOM      1  C   UNL     1       3.302   5.756  17.781  0.00  0.00    +0.000 A 
ATOM      2  C   UNL     1       2.788   4.484  17.625  0.00  0.00    +0.000 A 
ATOM      3  N   UNL     1       3.719   3.622  17.094  0.00  0.00    +0.000 NA
ATOM      4  C   UNL     1       4.803   4.349  16.931  0.00  0.00    +0.000 A 
ATOM      5  C   UNL     1       6.087   4.004  16.446  0.00  0.00    +0.000 A 
ATOM      6  C   UNL     1       7.045   4.941  16.387  0.00  0.00    +0.000 A 
ATOM      7  C   UNL     1       6.674   6.279  16.878  0.00  0.00    +0.000 A 
ATOM      8  N   UNL     1       5.527   6.671  17.314  0.00  0.00    +0.000 NA
ATOM      9  N   UNL     1       4.600   5.664  17.328  0.00  0.00    +0.000 N 
ENDROOT
BRANCH   1  16
ATOM     10  C   UNL     1       0.853   9.214  20.500  0.00  0.00    +0.000 A 
ATOM     11  N   UNL     1       0.538  10.499  20.196  0.00  0.00    +0.000 NA
ATOM     12  C   UNL     1       0.931  11.009  19.002  0.00  0.00    +0.000 A 
ATOM     13  C   UNL     1       1.645  10.322  18.032  0.00  0.00    +0.000 A 
ATOM     14  C   UNL     1       1.940   9.015  18.384  0.00  0.00    +0.000 A 
ATOM     15  O   UNL     1       2.618   8.114  17.619  0.00  0.00    +0.000 OA
ATOM     16  C   UNL     1       2.683   6.931  18.317  0.00  0.00    +0.000 A 
ATOM     17  C   UNL     1       2.059   7.114  19.540  0.00  0.00    +0.000 A 
ATOM     18  C   UNL     1       1.569   8.440  19.586  0.00  0.00    +0.000 A 
BRANCH  10  20
ATOM     19  C   UNL     1       1.008   9.325  22.829  0.00  0.00    +0.000 C 
ATOM     20  O   UNL     1       0.458   8.656  21.702  0.00  0.00    +0.000 OA
ENDBRANCH  10  20
ENDBRANCH   1  16
BRANCH   7  21
ATOM     21  O   UNL     1       7.764   7.084  16.856  0.00  0.00    +0.000 OA
BRANCH  21  22
ATOM     22  C   UNL     1       8.098   7.762  18.086  0.00  0.00    +0.000 C 
BRANCH  22  23
ATOM     23  C   UNL     1       8.119   9.268  17.841  0.00  0.00    +0.000 C 
BRANCH  23  24
ATOM     24  C   UNL     1       8.982  10.020  18.843  0.00  0.00    +0.000 C 
BRANCH  24  25
ATOM     25  S   UNL     1       9.410  11.636  18.200  0.00  0.00    +0.000 S 
ATOM     26  C   UNL     1       9.582  12.625  19.663  0.00  0.00    +0.000 C 
ATOM     27  O   UNL     1      10.719  11.542  17.582  0.00  0.00    +0.000 OA
ATOM     28  O   UNL     1       8.267  12.140  17.464  0.00  0.00    +0.000 OA
ENDBRANCH  24  25
ENDBRANCH  23  24
ENDBRANCH  22  23
ENDBRANCH  21  22
ENDBRANCH   7  21
TORSDOF 7
ENDMDL
MODEL 3
REMARK VINA RESULT:      -7.5      2.948      3.936
REMARK  Name = 
REMARK  9 active torsions:
REMARK  status: ('A' for Active; 'I' for Inactive)
REMARK    1  A    between atoms: C_1  and  O_2
REMARK    2  A    between atoms: O_2  and  C_3
REMARK    3  A    between atoms: C_9  and  C_10
REMARK    4  A    between atoms: C_16  and  O_17
REMARK    5  A    between atoms: O_17  and  C_18
REMARK    6  A    between atoms: C_18  and  C_19
REMARK    7  A    between atoms: C_19  and  C_20
REMARK    8  A    between atoms: C_20  and  S_21
REMARK    9  A    between atoms: S_21  and  C_22
REMARK                            x       y       z     vdW  Elec       q    Type
REMARK                         _______ _______ _______ _____ _____    ______ ____
ROOT
ATOM      1  C   UNL     1       2.930   5.961  18.110  0.00  0.00    +0.000 A 
ATOM      2  C   UNL     1       2.451   4.678  17.937  0.00  0.00    +0.000 A 
ATOM      3  N   UNL     1       3.339   3.895  17.237  0.00  0.00    +0.000 NA
ATOM      4  C   UNL     1       4.364   4.681  16.988  0.00  0.00    +0.000 A 
ATOM      5  C   UNL     1       5.588   4.427  16.325  0.00  0.00    +0.000 A 
ATOM      6  C   UNL     1       6.493   5.411  16.208  0.00  0.00    +0.000 A 
ATOM      7  C   UNL     1       6.135   6.697  16.829  0.00  0.00    +0.000 A 
ATOM      8  N   UNL     1       5.039   7.007  17.430  0.00  0.00    +0.000 NA
ATOM      9  N   UNL     1       4.162   5.958  17.493  0.00  0.00    +0.000 N 
ENDROOT
BRANCH   1  16
ATOM     10  C   UNL     1       1.024  10.389  19.564  0.00  0.00    +0.000 A 
ATOM     11  N   UNL     1       0.589  10.792  20.786  0.00  0.00    +0.000 NA
ATOM     12  C   UNL     1       0.620   9.913  21.818  0.00  0.00    +0.000 A 
ATOM     13  C   UNL     1       1.067   8.603  21.745  0.00  0.00    +0.000 A 
ATOM     14  C   UNL     1       1.505   8.238  20.482  0.00  0.00    +0.000 A 
ATOM     15  O   UNL     1       2.003   7.020  20.129  0.00  0.00    +0.000 OA
ATOM     16  C   UNL     1       2.339   7.070  18.796  0.00  0.00    +0.000 A 
ATOM     17  C   UNL     1       2.018   8.330  18.316  0.00  0.00    +0.000 A 
ATOM     18  C   UNL     1       1.496   9.087  19.390  0.00  0.00    +0.000 A 
BRANCH  10  20
ATOM     19  C   UNL     1       0.211  12.408  18.713  0.00  0.00    +0.000 C 
ATOM     20  O   UNL     1       1.021  11.260  18.491  0.00  0.00    +0.000 OA
ENDBRANCH  10  20
ENDBRANCH   1  16
BRANCH   7  21
ATOM     21  O   UNL     1       7.181   7.553  16.723  0.00  0.00    +0.000 OA
BRANCH  21  22
ATOM     22  C   UNL     1       7.892   7.865  17.940  0.00  0.00    +0.000 C 
BRANCH  22  23
ATOM     23  C   UNL     1       8.248   9.348  17.950  0.00  0.00    +0.000 C 
BRANCH  23  24
ATOM     24  C   UNL     1       9.076   9.752  19.160  0.00  0.00    +0.000 C 
BRANCH  24  25
ATOM     25  S   UNL     1       9.690  11.423  18.959  0.00  0.00    +0.000 S 
ATOM     26  C   UNL     1       9.397  12.159  20.546  0.00  0.00    +0.000 C 
ATOM     27  O   UNL     1      11.127  11.354  18.770  0.00  0.00    +0.000 OA
ATOM     28  O   UNL     1       8.838  12.099  18.000  0.00  0.00    +0.000 OA
ENDBRANCH  24  25
ENDBRANCH  23  24
ENDBRANCH  22  23
ENDBRANCH  21  22
ENDBRANCH   7  21
TORSDOF 7
ENDMDL
MODEL 4
REMARK VINA RESULT:      -7.3      1.403      2.318
REMARK  Name = 
REMARK  9 active torsions:
REMARK  status: ('A' for Active; 'I' for Inactive)
REMARK    1  A    between atoms: C_1  and  O_2
REMARK    2  A    between atoms: O_2  and  C_3
REMARK    3  A    between atoms: C_9  and  C_10
REMARK    4  A    between atoms: C_16  and  O_17
REMARK    5  A    between atoms: O_17  and  C_18
REMARK    6  A    between atoms: C_18  and  C_19
REMARK    7  A    between atoms: C_19  and  C_20
REMARK    8  A    between atoms: C_20  and  S_21
REMARK    9  A    between atoms: S_21  and  C_22
REMARK                            x       y       z     vdW  Elec       q    Type
REMARK                         _______ _______ _______ _____ _____    ______ ____
ROOT
ATOM      1  C   UNL     1       1.840   5.367  20.157  0.00  0.00    +0.000 A 
ATOM      2  C   UNL     1       0.922   4.429  20.585  0.00  0.00    +0.000 A 
ATOM      3  N   UNL     1       1.448   3.159  20.568  0.00  0.00    +0.000 NA
ATOM      4  C   UNL     1       2.684   3.307  20.143  0.00  0.00    +0.000 A 
ATOM      5  C   UNL     1       3.717   2.360  19.944  0.00  0.00    +0.000 A 
ATOM      6  C   UNL     1       4.916   2.772  19.507  0.00  0.00    +0.000 A 
ATOM      7  C   UNL     1       5.067   4.222  19.296  0.00  0.00    +0.000 A 
ATOM      8  N   UNL     1       4.172   5.137  19.437  0.00  0.00    +0.000 NA
ATOM      9  N   UNL     1       2.974   4.637  19.869  0.00  0.00    +0.000 N 
ENDROOT
BRANCH   1  16
ATOM     10  C   UNL     1       1.031  10.291  20.825  0.00  0.00    +0.000 A 
ATOM     11  N   UNL     1       1.101  11.315  19.935  0.00  0.00    +0.000 NA
ATOM     12  C   UNL     1       1.463  11.051  18.655  0.00  0.00    +0.000 A 
ATOM     13  C   UNL     1       1.776   9.798  18.151  0.00  0.00    +0.000 A 
ATOM     14  C   UNL     1       1.686   8.785  19.092  0.00  0.00    +0.000 A 
ATOM     15  O   UNL     1       1.927   7.463  18.870  0.00  0.00    +0.000 OA
ATOM     16  C   UNL     1       1.710   6.789  20.049  0.00  0.00    +0.000 A 
ATOM     17  C   UNL     1       1.356   7.714  21.018  0.00  0.00    +0.000 A 
ATOM     18  C   UNL     1       1.325   8.991  20.411  0.00  0.00    +0.000 A 
BRANCH  10  20
ATOM     19  C   UNL     1      -0.624  11.137  22.241  0.00  0.00    +0.000 C 
ATOM     20  O   UNL     1       0.652  10.519  22.134  0.00  0.00    +0.000 OA
ENDBRANCH  10  20
ENDBRANCH   1  16
BRANCH   7  21
ATOM     21  O   UNL     1       6.350   4.496  18.960  0.00  0.00    +0.000 OA
BRANCH  21  22
ATOM     22  C   UNL     1       6.770   5.874  19.061  0.00  0.00    +0.000 C 
BRANCH  22  23
ATOM     23  C   UNL     1       6.752   6.509  17.674  0.00  0.00    +0.000 C 
BRANCH  23  24
ATOM     24  C   UNL     1       7.387   5.628  16.610  0.00  0.00    +0.000 C 
BRANCH  24  25
ATOM     25  S   UNL     1       6.261   5.410  15.234  0.00  0.00    +0.000 S 
ATOM     26  C   UNL     1       5.430   3.892  15.623  0.00  0.00    +0.000 C 
ATOM     27  O   UNL     1       5.274   6.473  15.288  0.00  0.00    +0.000 OA
ATOM     28  O   UNL     1       7.053   5.181  14.041  0.00  0.00    +0.000 OA
ENDBRANCH  24  25
ENDBRANCH  23  24
ENDBRANCH  22  23
ENDBRANCH  21  22
ENDBRANCH   7  21
TORSDOF 7
ENDMDL
MODEL 5
REMARK VINA RESULT:      -7.2      3.053      3.946
REMARK  Name = 
REMARK  9 active torsions:
REMARK  status: ('A' for Active; 'I' for Inactive)
REMARK    1  A    between atoms: C_1  and  O_2
REMARK    2  A    between atoms: O_2  and  C_3
REMARK    3  A    between atoms: C_9  and  C_10
REMARK    4  A    between atoms: C_16  and  O_17
REMARK    5  A    between atoms: O_17  and  C_18
REMARK    6  A    between atoms: C_18  and  C_19
REMARK    7  A    between atoms: C_19  and  C_20
REMARK    8  A    between atoms: C_20  and  S_21
REMARK    9  A    between atoms: S_21  and  C_22
REMARK                            x       y       z     vdW  Elec       q    Type
REMARK                         _______ _______ _______ _____ _____    ______ ____
ROOT
ATOM      1  C   UNL     1       3.682   5.816  18.317  0.00  0.00    +0.000 A 
ATOM      2  C   UNL     1       3.398   4.465  18.333  0.00  0.00    +0.000 A 
ATOM      3  N   UNL     1       4.461   3.717  17.884  0.00  0.00    +0.000 NA
ATOM      4  C   UNL     1       5.400   4.594  17.603  0.00  0.00    +0.000 A 
ATOM      5  C   UNL     1       6.722   4.418  17.127  0.00  0.00    +0.000 A 
ATOM      6  C   UNL     1       7.500   5.491  16.927  0.00  0.00    +0.000 A 
ATOM      7  C   UNL     1       6.905   6.796  17.261  0.00  0.00    +0.000 A 
ATOM      8  N   UNL     1       5.710   7.035  17.678  0.00  0.00    +0.000 NA
ATOM      9  N   UNL     1       4.974   5.894  17.841  0.00  0.00    +0.000 N 
ENDROOT
BRANCH   1  16
ATOM     10  C   UNL     1       0.648   9.093  20.641  0.00  0.00    +0.000 A 
ATOM     11  N   UNL     1       0.139  10.274  20.202  0.00  0.00    +0.000 NA
ATOM     12  C   UNL     1       0.476  10.716  18.964  0.00  0.00    +0.000 A 
ATOM     13  C   UNL     1       1.314  10.058  18.077  0.00  0.00    +0.000 A 
ATOM     14  C   UNL     1       1.804   8.858  18.565  0.00  0.00    +0.000 A 
ATOM     15  O   UNL     1       2.636   8.005  17.904  0.00  0.00    +0.000 OA
ATOM     16  C   UNL     1       2.872   6.924  18.722  0.00  0.00    +0.000 A 
ATOM     17  C   UNL     1       2.195   7.128  19.914  0.00  0.00    +0.000 A 
ATOM     18  C   UNL     1       1.499   8.356  19.818  0.00  0.00    +0.000 A 
BRANCH  10  20
ATOM     19  C   UNL     1       0.086   9.633  22.844  0.00  0.00    +0.000 C 
ATOM     20  O   UNL     1       0.316   8.604  21.890  0.00  0.00    +0.000 OA
ENDBRANCH  10  20
ENDBRANCH   1  16
BRANCH   7  21
ATOM     21  O   UNL     1       7.837   7.768  17.109  0.00  0.00    +0.000 OA
BRANCH  21  22
ATOM     22  C   UNL     1       7.543   9.050  17.703  0.00  0.00    +0.000 C 
BRANCH  22  23
ATOM     23  C   UNL     1       8.754   9.526  18.500  0.00  0.00    +0.000 C 
BRANCH  23  24
ATOM     24  C   UNL     1       9.300  10.859  18.012  0.00  0.00    +0.000 C 
BRANCH  24  25
ATOM     25  S   UNL     1      10.013  11.773  19.377  0.00  0.00    +0.000 S 
ATOM     26  C   UNL     1       9.312  10.989  20.805  0.00  0.00    +0.000 C 
ATOM     27  O   UNL     1      11.441  11.513  19.395  0.00  0.00    +0.000 OA
ATOM     28  O   UNL     1       9.498  13.127  19.324  0.00  0.00    +0.000 OA
ENDBRANCH  24  25
ENDBRANCH  23  24
ENDBRANCH  22  23
ENDBRANCH  21  22
ENDBRANCH   7  21
TORSDOF 7
ENDMDL
MODEL 6
REMARK VINA RESULT:      -7.2      2.626      4.267
REMARK  Name = 
REMARK  9 active torsions:
REMARK  status: ('A' for Active; 'I' for Inactive)
REMARK    1  A    between atoms: C_1  and  O_2
REMARK    2  A    between atoms: O_2  and  C_3
REMARK    3  A    between atoms: C_9  and  C_10
REMARK    4  A    between atoms: C_16  and  O_17
REMARK    5  A    between atoms: O_17  and  C_18
REMARK    6  A    between atoms: C_18  and  C_19
REMARK    7  A    between atoms: C_19  and  C_20
REMARK    8  A    between atoms: C_20  and  S_21
REMARK    9  A    between atoms: S_21  and  C_22
REMARK                            x       y       z     vdW  Elec       q    Type
REMARK                         _______ _______ _______ _____ _____    ______ ____
ROOT
ATOM      1  C   UNL     1       4.040   7.160  17.447  0.00  0.00    +0.000 A 
ATOM      2  C   UNL     1       5.113   7.751  16.811  0.00  0.00    +0.000 A 
ATOM      3  N   UNL     1       5.883   6.825  16.148  0.00  0.00    +0.000 NA
ATOM      4  C   UNL     1       5.288   5.671  16.360  0.00  0.00    +0.000 A 
ATOM      5  C   UNL     1       5.604   4.367  15.909  0.00  0.00    +0.000 A 
ATOM      6  C   UNL     1       4.818   3.338  16.261  0.00  0.00    +0.000 A 
ATOM      7  C   UNL     1       3.642   3.671  17.081  0.00  0.00    +0.000 A 
ATOM      8  N   UNL     1       3.301   4.825  17.542  0.00  0.00    +0.000 NA
ATOM      9  N   UNL     1       4.159   5.818  17.155  0.00  0.00    +0.000 N 
ENDROOT
BRANCH   1  16
ATOM     10  C   UNL     1       0.304   9.977  19.306  0.00  0.00    +0.000 A 
ATOM     11  N   UNL     1      -0.308   9.925  20.518  0.00  0.00    +0.000 NA
ATOM     12  C   UNL     1       0.078   8.979  21.409  0.00  0.00    +0.000 A 
ATOM     13  C   UNL     1       1.067   8.030  21.197  0.00  0.00    +0.000 A 
ATOM     14  C   UNL     1       1.665   8.124  19.951  0.00  0.00    +0.000 A 
ATOM     15  O   UNL     1       2.668   7.330  19.483  0.00  0.00    +0.000 OA
ATOM     16  C   UNL     1       2.992   7.759  18.216  0.00  0.00    +0.000 A 
ATOM     17  C   UNL     1       2.158   8.816  17.891  0.00  0.00    +0.000 A 
ATOM     18  C   UNL     1       1.315   9.065  18.999  0.00  0.00    +0.000 A 
BRANCH  10  20
ATOM     19  C   UNL     1       0.336  12.249  18.761  0.00  0.00    +0.000 C 
ATOM     20  O   UNL     1      -0.052  10.936  18.376  0.00  0.00    +0.000 OA
ENDBRANCH  10  20
ENDBRANCH   1  16
BRANCH   7  21
ATOM     21  O   UNL     1       2.892   2.557  17.266  0.00  0.00    +0.000 OA
BRANCH  21  22
ATOM     22  C   UNL     1       3.440   1.540  18.131  0.00  0.00    +0.000 C 
BRANCH  22  23
ATOM     23  C   UNL     1       2.684   1.545  19.456  0.00  0.00    +0.000 C 
BRANCH  23  24
ATOM     24  C   UNL     1       3.264   2.523  20.466  0.00  0.00    +0.000 C 
BRANCH  24  25
ATOM     25  S   UNL     1       1.949   3.445  21.259  0.00  0.00    +0.000 S 
ATOM     26  C   UNL     1       0.724   3.590  19.985  0.00  0.00    +0.000 C 
ATOM     27  O   UNL     1       1.388   2.615  22.310  0.00  0.00    +0.000 OA
ATOM     28  O   UNL     1       2.446   4.777  21.541  0.00  0.00    +0.000 OA
ENDBRANCH  24  25
ENDBRANCH  23  24
ENDBRANCH  22  23
ENDBRANCH  21  22
ENDBRANCH   7  21
TORSDOF 7
ENDMDL
MODEL 7
REMARK VINA RESULT:      -7.1      3.022      4.142
REMARK  Name = 
REMARK  9 active torsions:
REMARK  status: ('A' for Active; 'I' for Inactive)
REMARK    1  A    between atoms: C_1  and  O_2
REMARK    2  A    between atoms: O_2  and  C_3
REMARK    3  A    between atoms: C_9  and  C_10
REMARK    4  A    between atoms: C_16  and  O_17
REMARK    5  A    between atoms: O_17  and  C_18
REMARK    6  A    between atoms: C_18  and  C_19
REMARK    7  A    between atoms: C_19  and  C_20
REMARK    8  A    between atoms: C_20  and  S_21
REMARK    9  A    between atoms: S_21  and  C_22
REMARK                            x       y       z     vdW  Elec       q    Type
REMARK                         _______ _______ _______ _____ _____    ______ ____
ROOT
ATOM      1  C   UNL     1       3.395   5.832  17.897  0.00  0.00    +0.000 A 
ATOM      2  C   UNL     1       2.958   4.575  17.529  0.00  0.00    +0.000 A 
ATOM      3  N   UNL     1       3.944   3.862  16.888  0.00  0.00    +0.000 NA
ATOM      4  C   UNL     1       4.986   4.664  16.868  0.00  0.00    +0.000 A 
ATOM      5  C   UNL     1       6.295   4.473  16.363  0.00  0.00    +0.000 A 
ATOM      6  C   UNL     1       7.198   5.459  16.477  0.00  0.00    +0.000 A 
ATOM      7  C   UNL     1       6.744   6.678  17.166  0.00  0.00    +0.000 A 
ATOM      8  N   UNL     1       5.570   6.931  17.633  0.00  0.00    +0.000 NA
ATOM      9  N   UNL     1       4.703   5.886  17.465  0.00  0.00    +0.000 N 
ENDROOT
BRANCH   1  16
ATOM     10  C   UNL     1       1.084  10.038  19.421  0.00  0.00    +0.000 A 
ATOM     11  N   UNL     1       0.610  10.377  20.647  0.00  0.00    +0.000 NA
ATOM     12  C   UNL     1       0.720   9.486  21.665  0.00  0.00    +0.000 A 
ATOM     13  C   UNL     1       1.286   8.224  21.570  0.00  0.00    +0.000 A 
ATOM     14  C   UNL     1       1.759   7.924  20.303  0.00  0.00    +0.000 A 
ATOM     15  O   UNL     1       2.369   6.764  19.930  0.00  0.00    +0.000 OA
ATOM     16  C   UNL     1       2.703   6.870  18.599  0.00  0.00    +0.000 A 
ATOM     17  C   UNL     1       2.268   8.102  18.140  0.00  0.00    +0.000 A 
ATOM     18  C   UNL     1       1.675   8.789  19.226  0.00  0.00    +0.000 A 
BRANCH  10  20
ATOM     19  C   UNL     1       1.890  12.028  18.498  0.00  0.00    +0.000 C 
ATOM     20  O   UNL     1       1.003  10.924  18.363  0.00  0.00    +0.000 OA
ENDBRANCH  10  20
ENDBRANCH   1  16
BRANCH   7  21
ATOM     21  O   UNL     1       7.785   7.535  17.298  0.00  0.00    +0.000 OA
BRANCH  21  22
ATOM     22  C   UNL     1       7.467   8.897  17.652  0.00  0.00    +0.000 C 
BRANCH  22  23
ATOM     23  C   UNL     1       8.760   9.686  17.833  0.00  0.00    +0.000 C 
BRANCH  23  24
ATOM     24  C   UNL     1       9.119   9.911  19.294  0.00  0.00    +0.000 C 
BRANCH  24  25
ATOM     25  S   UNL     1       9.587  11.619  19.560  0.00  0.00    +0.000 S 
ATOM     26  C   UNL     1      11.341  11.608  19.293  0.00  0.00    +0.000 C 
ATOM     27  O   UNL     1       8.991  12.419  18.506  0.00  0.00    +0.000 OA
ATOM     28  O   UNL     1       9.360  11.931  20.958  0.00  0.00    +0.000 OA
ENDBRANCH  24  25
ENDBRANCH  23  24
ENDBRANCH  22  23
ENDBRANCH  21  22
ENDBRANCH   7  21
TORSDOF 7
ENDMDL
MODEL 8
REMARK VINA RESULT:      -7.1      4.463      9.042
REMARK  Name = 
REMARK  9 active torsions:
REMARK  status: ('A' for Active; 'I' for Inactive)
REMARK    1  A    between atoms: C_1  and  O_2
REMARK    2  A    between atoms: O_2  and  C_3
REMARK    3  A    between atoms: C_9  and  C_10
REMARK    4  A    between atoms: C_16  and  O_17
REMARK    5  A    between atoms: O_17  and  C_18
REMARK    6  A    between atoms: C_18  and  C_19
REMARK    7  A    between atoms: C_19  and  C_20
REMARK    8  A    between atoms: C_20  and  S_21
REMARK    9  A    between atoms: S_21  and  C_22
REMARK                            x       y       z     vdW  Elec       q    Type
REMARK                         _______ _______ _______ _____ _____    ______ ____
ROOT
ATOM      1  C   UNL     1       1.002   8.861  21.152  0.00  0.00    +0.000 A 
ATOM      2  C   UNL     1       1.028   9.185  22.494  0.00  0.00    +0.000 A 
ATOM      3  N   UNL     1       0.289  10.314  22.758  0.00  0.00    +0.000 NA
ATOM      4  C   UNL     1      -0.201  10.681  21.594  0.00  0.00    +0.000 A 
ATOM      5  C   UNL     1      -1.054  11.755  21.243  0.00  0.00    +0.000 A 
ATOM      6  C   UNL     1      -1.427  11.911  19.964  0.00  0.00    +0.000 A 
ATOM      7  C   UNL     1      -0.928  10.903  19.015  0.00  0.00    +0.000 A 
ATOM      8  N   UNL     1      -0.138   9.914  19.255  0.00  0.00    +0.000 NA
ATOM      9  N   UNL     1       0.210   9.831  20.576  0.00  0.00    +0.000 N 
ENDROOT
BRANCH   1  16
ATOM     10  C   UNL     1       2.808   4.416  19.626  0.00  0.00    +0.000 A 
ATOM     11  N   UNL     1       3.569   4.109  18.544  0.00  0.00    +0.000 NA
ATOM     12  C   UNL     1       3.916   5.097  17.682  0.00  0.00    +0.000 A 
ATOM     13  C   UNL     1       3.558   6.431  17.803  0.00  0.00    +0.000 A 
ATOM     14  C   UNL     1       2.787   6.697  18.922  0.00  0.00    +0.000 A 
ATOM     15  O   UNL     1       2.308   7.918  19.292  0.00  0.00    +0.000 OA
ATOM     16  C   UNL     1       1.609   7.761  20.467  0.00  0.00    +0.000 A 
ATOM     17  C   UNL     1       1.638   6.419  20.811  0.00  0.00    +0.000 A 
ATOM     18  C   UNL     1       2.400   5.734  19.837  0.00  0.00    +0.000 A 
BRANCH  10  20
ATOM     19  C   UNL     1       1.223   2.797  20.198  0.00  0.00    +0.000 C 
ATOM     20  O   UNL     1       2.447   3.439  20.535  0.00  0.00    +0.000 OA
ENDBRANCH  10  20
ENDBRANCH   1  16
BRANCH   7  21
ATOM     21  O   UNL     1      -1.470  11.129  17.793  0.00  0.00    +0.000 OA
BRANCH  21  22
ATOM     22  C   UNL     1      -2.269  10.067  17.229  0.00  0.00    +0.000 C 
BRANCH  22  23
ATOM     23  C   UNL     1      -3.694  10.170  17.765  0.00  0.00    +0.000 C 
BRANCH  23  24
ATOM     24  C   UNL     1      -4.346  11.510  17.464  0.00  0.00    +0.000 C 
BRANCH  24  25
ATOM     25  S   UNL     1      -5.886  11.665  18.366  0.00  0.00    +0.000 S 
ATOM     26  C   UNL     1      -6.866  12.715  17.326  0.00  0.00    +0.000 C 
ATOM     27  O   UNL     1      -6.524  10.362  18.395  0.00  0.00    +0.000 OA
ATOM     28  O   UNL     1      -5.614  12.394  19.590  0.00  0.00    +0.000 OA
ENDBRANCH  24  25
ENDBRANCH  23  24
ENDBRANCH  22  23
ENDBRANCH  21  22
ENDBRANCH   7  21
TORSDOF 7
ENDMDL
MODEL 9
REMARK VINA RESULT:      -7.1      3.059      4.229
REMARK  Name = 
REMARK  9 active torsions:
REMARK  status: ('A' for Active; 'I' for Inactive)
REMARK    1  A    between atoms: C_1  and  O_2
REMARK    2  A    between atoms: O_2  and  C_3
REMARK    3  A    between atoms: C_9  and  C_10
REMARK    4  A    between atoms: C_16  and  O_17
REMARK    5  A    between atoms: O_17  and  C_18
REMARK    6  A    between atoms: C_18  and  C_19
REMARK    7  A    between atoms: C_19  and  C_20
REMARK    8  A    between atoms: C_20  and  S_21
REMARK    9  A    between atoms: S_21  and  C_22
REMARK                            x       y       z     vdW  Elec       q    Type
REMARK                         _______ _______ _______ _____ _____    ______ ____
ROOT
ATOM      1  C   UNL     1       3.434   5.726  17.899  0.00  0.00    +0.000 A 
ATOM      2  C   UNL     1       2.990   4.526  17.379  0.00  0.00    +0.000 A 
ATOM      3  N   UNL     1       4.017   3.806  16.815  0.00  0.00    +0.000 NA
ATOM      4  C   UNL     1       5.090   4.546  16.993  0.00  0.00    +0.000 A 
ATOM      5  C   UNL     1       6.444   4.317  16.647  0.00  0.00    +0.000 A 
ATOM      6  C   UNL     1       7.369   5.238  16.953  0.00  0.00    +0.000 A 
ATOM      7  C   UNL     1       6.886   6.428  17.674  0.00  0.00    +0.000 A 
ATOM      8  N   UNL     1       5.674   6.713  18.004  0.00  0.00    +0.000 NA
ATOM      9  N   UNL     1       4.788   5.735  17.644  0.00  0.00    +0.000 N 
ENDROOT
BRANCH   1  16
ATOM     10  C   UNL     1       0.807   9.780  19.315  0.00  0.00    +0.000 A 
ATOM     11  N   UNL     1       0.444  10.195  20.557  0.00  0.00    +0.000 NA
ATOM     12  C   UNL     1       0.787   9.438  21.629  0.00  0.00    +0.000 A 
ATOM     13  C   UNL     1       1.494   8.246  21.579  0.00  0.00    +0.000 A 
ATOM     14  C   UNL     1       1.846   7.866  20.294  0.00  0.00    +0.000 A 
ATOM     15  O   UNL     1       2.549   6.750  19.954  0.00  0.00    +0.000 OA
ATOM     16  C   UNL     1       2.705   6.748  18.587  0.00  0.00    +0.000 A 
ATOM     17  C   UNL     1       2.065   7.865  18.076  0.00  0.00    +0.000 A 
ATOM     18  C   UNL     1       1.524   8.593  19.162  0.00  0.00    +0.000 A 
BRANCH  10  20
ATOM     19  C   UNL     1      -0.904  10.523  17.907  0.00  0.00    +0.000 C 
ATOM     20  O   UNL     1       0.488  10.532  18.200  0.00  0.00    +0.000 OA
ENDBRANCH  10  20
ENDBRANCH   1  16
BRANCH   7  21
ATOM     21  O   UNL     1       7.941   7.212  18.006  0.00  0.00    +0.000 OA
BRANCH  21  22
ATOM     22  C   UNL     1       7.850   8.609  17.654  0.00  0.00    +0.000 C 
BRANCH  22  23
ATOM     23  C   UNL     1       8.790   9.415  18.546  0.00  0.00    +0.000 C 
BRANCH  23  24
ATOM     24  C   UNL     1       8.734  10.909  18.270  0.00  0.00    +0.000 C 
BRANCH  24  25
ATOM     25  S   UNL     1      10.143  11.729  19.012  0.00  0.00    +0.000 S 
ATOM     26  C   UNL     1       9.790  13.449  18.770  0.00  0.00    +0.000 C 
ATOM     27  O   UNL     1      10.111  11.474  20.441  0.00  0.00    +0.000 OA
ATOM     28  O   UNL     1      11.314  11.407  18.220  0.00  0.00    +0.000 OA
ENDBRANCH  24  25
ENDBRANCH  23  24
ENDBRANCH  22  23
ENDBRANCH  21  22
ENDBRANCH   7  21
TORSDOF 7
ENDMDL
