MODEL 1
REMARK VINA RESULT:      -8.2      0.000      0.000
REMARK  Name = 
REMARK  10 active torsions:
REMARK  status: ('A' for Active; 'I' for Inactive)
REMARK    1  A    between atoms: C_1  and  O_2
REMARK    2  A    between atoms: O_2  and  C_3
REMARK    3  A    between atoms: C_7  and  C_8
REMARK    4  A    between atoms: N_12  and  C_13
REMARK    5  A    between atoms: C_15  and  O_16
REMARK    6  A    between atoms: O_16  and  C_17
REMARK    7  A    between atoms: C_18  and  O_19
REMARK    8  A    between atoms: O_19  and  C_20
REMARK    9  A    between atoms: C_21  and  O_22
REMARK   10  A    between atoms: O_22  and  C_23
REMARK                            x       y       z     vdW  Elec       q    Type
REMARK                         _______ _______ _______ _____ _____    ______ ____
ROOT
ATOM      1  C   UNL     1       6.948   6.557  17.527  0.00  0.00    +0.000 A 
ATOM      2  N   UNL     1       6.955   7.674  16.829  0.00  0.00    +0.000 NA
ATOM      3  N   UNL     1       7.788   8.596  17.390  0.00  0.00    +0.000 NA
ATOM      4  C   UNL     1       8.430   8.173  18.464  0.00  0.00    +0.000 A 
ATOM      5  N   UNL     1       9.332   8.885  19.198  0.00  0.00    +0.000 N 
ATOM      6  S   UNL     1       8.006   6.568  18.882  0.00  0.00    +0.000 S 
ATOM      7  H   UNL     1       9.906   8.395  19.856  0.00  0.00    +0.000 HD
ENDROOT
BRANCH   1  12
ATOM      8  C   UNL     1       2.113   4.170  17.778  0.00  0.00    +0.000 A 
ATOM      9  C   UNL     1       2.462   5.401  18.338  0.00  0.00    +0.000 A 
ATOM     10  C   UNL     1       3.760   5.898  18.220  0.00  0.00    +0.000 A 
ATOM     11  C   UNL     1       4.728   5.171  17.506  0.00  0.00    +0.000 A 
ATOM     12  C   UNL     1       6.090   5.388  17.161  0.00  0.00    +0.000 A 
ATOM     13  C   UNL     1       6.506   4.323  16.383  0.00  0.00    +0.000 A 
ATOM     14  N   UNL     1       5.466   3.440  16.302  0.00  0.00    +0.000 N 
ATOM     15  C   UNL     1       4.356   3.938  16.949  0.00  0.00    +0.000 A 
ATOM     16  C   UNL     1       3.067   3.419  17.082  0.00  0.00    +0.000 A 
ATOM     17  H   UNL     1       5.490   2.549  15.817  0.00  0.00    +0.000 HD
BRANCH   8  19
ATOM     18  C   UNL     1       0.754   2.516  18.793  0.00  0.00    +0.000 C 
ATOM     19  O   UNL     1       0.869   3.607  17.878  0.00  0.00    +0.000 OA
ENDBRANCH   8  19
ENDBRANCH   1  12
BRANCH   5  20
ATOM     20  C   UNL     1       9.264  10.282  19.392  0.00  0.00    +0.000 A 
ATOM     21  C   UNL     1       9.023  10.824  20.625  0.00  0.00    +0.000 A 
ATOM     22  C   UNL     1       9.029  12.187  20.878  0.00  0.00    +0.000 A 
ATOM     23  C   UNL     1       9.306  13.089  19.813  0.00  0.00    +0.000 A 
ATOM     24  C   UNL     1       9.450  12.561  18.507  0.00  0.00    +0.000 A 
ATOM     25  C   UNL     1       9.414  11.166  18.310  0.00  0.00    +0.000 A 
BRANCH  22  26
ATOM     26  O   UNL     1       8.775  12.623  22.167  0.00  0.00    +0.000 OA
ATOM     27  C   UNL     1       8.058  11.662  22.986  0.00  0.00    +0.000 C 
ENDBRANCH  22  26
BRANCH  23  28
ATOM     28  O   UNL     1       9.406  14.415  20.158  0.00  0.00    +0.000 OA
ATOM     29  C   UNL     1       8.273  15.275  19.978  0.00  0.00    +0.000 C 
ENDBRANCH  23  28
BRANCH  24  30
ATOM     30  O   UNL     1       9.616  13.447  17.469  0.00  0.00    +0.000 OA
ATOM     31  C   UNL     1      10.929  13.749  17.014  0.00  0.00    +0.000 C 
ENDBRANCH  24  30
ENDBRANCH   5  20
TORSDOF 6
ENDMDL
MODEL 2
REMARK VINA RESULT:      -8.2      0.303      2.395
REMARK  Name = 
REMARK  10 active torsions:
REMARK  status: ('A' for Active; 'I' for Inactive)
REMARK    1  A    between atoms: C_1  and  O_2
REMARK    2  A    between atoms: O_2  and  C_3
REMARK    3  A    between atoms: C_7  and  C_8
REMARK    4  A    between atoms: N_12  and  C_13
REMARK    5  A    between atoms: C_15  and  O_16
REMARK    6  A    between atoms: O_16  and  C_17
REMARK    7  A    between atoms: C_18  and  O_19
REMARK    8  A    between atoms: O_19  and  C_20
REMARK    9  A    between atoms: C_21  and  O_22
REMARK   10  A    between atoms: O_22  and  C_23
REMARK                            x       y       z     vdW  Elec       q    Type
REMARK                         _______ _______ _______ _____ _____    ______ ____
ROOT
ATOM      1  C   UNL     1       6.910   6.554  17.521  0.00  0.00    +0.000 A 
ATOM      2  N   UNL     1       6.902   7.684  16.844  0.00  0.00    +0.000 NA
ATOM      3  N   UNL     1       7.746   8.596  17.404  0.00  0.00    +0.000 NA
ATOM      4  C   UNL     1       8.412   8.154  18.457  0.00  0.00    +0.000 A 
ATOM      5  N   UNL     1       9.328   8.852  19.184  0.00  0.00    +0.000 N 
ATOM      6  S   UNL     1       7.996   6.541  18.854  0.00  0.00    +0.000 S 
ATOM      7  H   UNL     1       9.916   8.352  19.821  0.00  0.00    +0.000 HD
ENDROOT
BRANCH   1  12
ATOM      8  C   UNL     1       2.076   4.171  17.816  0.00  0.00    +0.000 A 
ATOM      9  C   UNL     1       2.436   5.393  18.387  0.00  0.00    +0.000 A 
ATOM     10  C   UNL     1       3.733   5.889  18.256  0.00  0.00    +0.000 A 
ATOM     11  C   UNL     1       4.687   5.172  17.516  0.00  0.00    +0.000 A 
ATOM     12  C   UNL     1       6.044   5.392  17.153  0.00  0.00    +0.000 A 
ATOM     13  C   UNL     1       6.446   4.337  16.354  0.00  0.00    +0.000 A 
ATOM     14  N   UNL     1       5.404   3.458  16.277  0.00  0.00    +0.000 N 
ATOM     15  C   UNL     1       4.305   3.948  16.948  0.00  0.00    +0.000 A 
ATOM     16  C   UNL     1       3.017   3.428  17.094  0.00  0.00    +0.000 A 
ATOM     17  H   UNL     1       5.419   2.573  15.779  0.00  0.00    +0.000 HD
BRANCH   8  19
ATOM     18  C   UNL     1       0.746   2.457  18.771  0.00  0.00    +0.000 C 
ATOM     19  O   UNL     1       0.833   3.608  17.928  0.00  0.00    +0.000 OA
ENDBRANCH   8  19
ENDBRANCH   1  12
BRANCH   5  20
ATOM     20  C   UNL     1       9.264  10.247  19.404  0.00  0.00    +0.000 A 
ATOM     21  C   UNL     1       9.406  11.141  18.379  0.00  0.00    +0.000 A 
ATOM     22  C   UNL     1       9.268  12.513  18.533  0.00  0.00    +0.000 A 
ATOM     23  C   UNL     1       8.956  13.038  19.818  0.00  0.00    +0.000 A 
ATOM     24  C   UNL     1       8.911  12.145  20.916  0.00  0.00    +0.000 A 
ATOM     25  C   UNL     1       9.079  10.762  20.698  0.00  0.00    +0.000 A 
BRANCH  22  26
ATOM     26  O   UNL     1       9.431  13.323  17.423  0.00  0.00    +0.000 OA
ATOM     27  C   UNL     1      10.815  13.519  17.030  0.00  0.00    +0.000 C 
ENDBRANCH  22  26
BRANCH  23  28
ATOM     28  O   UNL     1       8.724  14.390  19.875  0.00  0.00    +0.000 OA
ATOM     29  C   UNL     1       7.384  14.880  19.728  0.00  0.00    +0.000 C 
ENDBRANCH  23  28
BRANCH  24  30
ATOM     30  O   UNL     1       8.710  12.673  22.168  0.00  0.00    +0.000 OA
ATOM     31  C   UNL     1       7.529  12.335  22.885  0.00  0.00    +0.000 C 
ENDBRANCH  24  30
ENDBRANCH   5  20
TORSDOF 6
ENDMDL
MODEL 3
REMARK VINA RESULT:      -8.2      6.106      9.804
REMARK  Name = 
REMARK  10 active torsions:
REMARK  status: ('A' for Active; 'I' for Inactive)
REMARK    1  A    between atoms: C_1  and  O_2
REMARK    2  A    between atoms: O_2  and  C_3
REMARK    3  A    between atoms: C_7  and  C_8
REMARK    4  A    between atoms: N_12  and  C_13
REMARK    5  A    between atoms: C_15  and  O_16
REMARK    6  A    between atoms: O_16  and  C_17
REMARK    7  A    between atoms: C_18  and  O_19
REMARK    8  A    between atoms: O_19  and  C_20
REMARK    9  A    between atoms: C_21  and  O_22
REMARK   10  A    between atoms: O_22  and  C_23
REMARK                            x       y       z     vdW  Elec       q    Type
REMARK                         _______ _______ _______ _____ _____    ______ ____
ROOT
ATOM      1  C   UNL     1       0.531   9.622  19.300  0.00  0.00    +0.000 A 
ATOM      2  N   UNL     1       1.025   8.895  20.281  0.00  0.00    +0.000 NA
ATOM      3  N   UNL     1       2.015   8.072  19.830  0.00  0.00    +0.000 NA
ATOM      4  C   UNL     1       2.294   8.205  18.545  0.00  0.00    +0.000 A 
ATOM      5  N   UNL     1       3.249   7.522  17.853  0.00  0.00    +0.000 N 
ATOM      6  S   UNL     1       1.295   9.367  17.781  0.00  0.00    +0.000 S 
ATOM      7  H   UNL     1       3.511   7.853  16.945  0.00  0.00    +0.000 HD
ENDROOT
BRANCH   1  12
ATOM      8  C   UNL     1      -4.323  11.382  17.729  0.00  0.00    +0.000 A 
ATOM      9  C   UNL     1      -3.597  10.333  17.163  0.00  0.00    +0.000 A 
ATOM     10  C   UNL     1      -2.335   9.991  17.651  0.00  0.00    +0.000 A 
ATOM     11  C   UNL     1      -1.794  10.687  18.744  0.00  0.00    +0.000 A 
ATOM     12  C   UNL     1      -0.596  10.584  19.503  0.00  0.00    +0.000 A 
ATOM     13  C   UNL     1      -0.649  11.528  20.512  0.00  0.00    +0.000 A 
ATOM     14  N   UNL     1      -1.804  12.240  20.350  0.00  0.00    +0.000 N 
ATOM     15  C   UNL     1      -2.541  11.736  19.300  0.00  0.00    +0.000 A 
ATOM     16  C   UNL     1      -3.793  12.104  18.805  0.00  0.00    +0.000 A 
ATOM     17  H   UNL     1      -2.098  13.020  20.929  0.00  0.00    +0.000 HD
BRANCH   8  19
ATOM     18  C   UNL     1      -6.663  11.417  18.101  0.00  0.00    +0.000 C 
ATOM     19  O   UNL     1      -5.552  11.792  17.285  0.00  0.00    +0.000 OA
ENDBRANCH   8  19
ENDBRANCH   1  12
BRANCH   5  20
ATOM     20  C   UNL     1       3.621   6.187  18.129  0.00  0.00    +0.000 A 
ATOM     21  C   UNL     1       4.927   5.837  18.340  0.00  0.00    +0.000 A 
ATOM     22  C   UNL     1       5.330   4.558  18.695  0.00  0.00    +0.000 A 
ATOM     23  C   UNL     1       4.347   3.543  18.862  0.00  0.00    +0.000 A 
ATOM     24  C   UNL     1       3.002   3.851  18.544  0.00  0.00    +0.000 A 
ATOM     25  C   UNL     1       2.658   5.165  18.169  0.00  0.00    +0.000 A 
BRANCH  22  26
ATOM     26  O   UNL     1       6.679   4.318  18.886  0.00  0.00    +0.000 OA
ATOM     27  C   UNL     1       7.509   4.657  17.744  0.00  0.00    +0.000 C 
ENDBRANCH  22  26
BRANCH  23  28
ATOM     28  O   UNL     1       4.805   2.332  19.322  0.00  0.00    +0.000 OA
ATOM     29  C   UNL     1       4.567   1.965  20.688  0.00  0.00    +0.000 C 
ENDBRANCH  23  28
BRANCH  24  30
ATOM     30  O   UNL     1       2.076   2.838  18.610  0.00  0.00    +0.000 OA
ATOM     31  C   UNL     1       0.927   2.997  19.432  0.00  0.00    +0.000 C 
ENDBRANCH  24  30
ENDBRANCH   5  20
TORSDOF 6
ENDMDL
MODEL 4
REMARK VINA RESULT:      -8.0      6.432     10.126
REMARK  Name = 
REMARK  10 active torsions:
REMARK  status: ('A' for Active; 'I' for Inactive)
REMARK    1  A    between atoms: C_1  and  O_2
REMARK    2  A    between atoms: O_2  and  C_3
REMARK    3  A    between atoms: C_7  and  C_8
REMARK    4  A    between atoms: N_12  and  C_13
REMARK    5  A    between atoms: C_15  and  O_16
REMARK    6  A    between atoms: O_16  and  C_17
REMARK    7  A    between atoms: C_18  and  O_19
REMARK    8  A    between atoms: O_19  and  C_20
REMARK    9  A    between atoms: C_21  and  O_22
REMARK   10  A    between atoms: O_22  and  C_23
REMARK                            x       y       z     vdW  Elec       q    Type
REMARK                         _______ _______ _______ _____ _____    ______ ____
ROOT
ATOM      1  C   UNL     1       0.498   9.899  19.317  0.00  0.00    +0.000 A 
ATOM      2  N   UNL     1       0.881   9.071  20.267  0.00  0.00    +0.000 NA
ATOM      3  N   UNL     1       1.838   8.213  19.811  0.00  0.00    +0.000 NA
ATOM      4  C   UNL     1       2.202   8.414  18.557  0.00  0.00    +0.000 A 
ATOM      5  N   UNL     1       3.148   7.713  17.870  0.00  0.00    +0.000 N 
ATOM      6  S   UNL     1       1.333   9.696  17.828  0.00  0.00    +0.000 S 
ATOM      7  H   UNL     1       3.485   8.087  17.005  0.00  0.00    +0.000 HD
ENDROOT
BRANCH   1  12
ATOM      8  C   UNL     1      -2.592  12.641  22.791  0.00  0.00    +0.000 A 
ATOM      9  C   UNL     1      -1.629  11.683  23.113  0.00  0.00    +0.000 A 
ATOM     10  C   UNL     1      -0.911  11.026  22.113  0.00  0.00    +0.000 A 
ATOM     11  C   UNL     1      -1.132  11.348  20.764  0.00  0.00    +0.000 A 
ATOM     12  C   UNL     1      -0.571  10.924  19.528  0.00  0.00    +0.000 A 
ATOM     13  C   UNL     1      -1.169  11.652  18.517  0.00  0.00    +0.000 A 
ATOM     14  N   UNL     1      -2.118  12.452  19.091  0.00  0.00    +0.000 N 
ATOM     15  C   UNL     1      -2.103  12.315  20.461  0.00  0.00    +0.000 A 
ATOM     16  C   UNL     1      -2.846  12.961  21.452  0.00  0.00    +0.000 A 
ATOM     17  H   UNL     1      -2.738  13.079  18.588  0.00  0.00    +0.000 HD
BRANCH   8  19
ATOM     18  C   UNL     1      -4.194  12.483  24.530  0.00  0.00    +0.000 C 
ATOM     19  O   UNL     1      -3.355  13.304  23.715  0.00  0.00    +0.000 OA
ENDBRANCH   8  19
ENDBRANCH   1  12
BRANCH   5  20
ATOM     20  C   UNL     1       3.410   6.339  18.067  0.00  0.00    +0.000 A 
ATOM     21  C   UNL     1       4.679   5.876  18.287  0.00  0.00    +0.000 A 
ATOM     22  C   UNL     1       4.974   4.550  18.567  0.00  0.00    +0.000 A 
ATOM     23  C   UNL     1       3.913   3.605  18.642  0.00  0.00    +0.000 A 
ATOM     24  C   UNL     1       2.605   4.036  18.312  0.00  0.00    +0.000 A 
ATOM     25  C   UNL     1       2.372   5.393  18.016  0.00  0.00    +0.000 A 
BRANCH  22  26
ATOM     26  O   UNL     1       6.296   4.195  18.774  0.00  0.00    +0.000 OA
ATOM     27  C   UNL     1       7.227   4.811  17.846  0.00  0.00    +0.000 C 
ENDBRANCH  22  26
BRANCH  23  28
ATOM     28  O   UNL     1       4.265   2.336  19.033  0.00  0.00    +0.000 OA
ATOM     29  C   UNL     1       4.341   2.028  20.431  0.00  0.00    +0.000 C 
ENDBRANCH  23  28
BRANCH  24  30
ATOM     30  O   UNL     1       1.604   3.094  18.289  0.00  0.00    +0.000 OA
ATOM     31  C   UNL     1       0.825   2.877  19.459  0.00  0.00    +0.000 C 
ENDBRANCH  24  30
ENDBRANCH   5  20
TORSDOF 6
ENDMDL
MODEL 5
REMARK VINA RESULT:      -7.8      6.222      9.951
REMARK  Name = 
REMARK  10 active torsions:
REMARK  status: ('A' for Active; 'I' for Inactive)
REMARK    1  A    between atoms: C_1  and  O_2
REMARK    2  A    between atoms: O_2  and  C_3
REMARK    3  A    between atoms: C_7  and  C_8
REMARK    4  A    between atoms: N_12  and  C_13
REMARK    5  A    between atoms: C_15  and  O_16
REMARK    6  A    between atoms: O_16  and  C_17
REMARK    7  A    between atoms: C_18  and  O_19
REMARK    8  A    between atoms: O_19  and  C_20
REMARK    9  A    between atoms: C_21  and  O_22
REMARK   10  A    between atoms: O_22  and  C_23
REMARK                            x       y       z     vdW  Elec       q    Type
REMARK                         _______ _______ _______ _____ _____    ______ ____
ROOT
ATOM      1  C   UNL     1       0.425   9.819  19.505  0.00  0.00    +0.000 A 
ATOM      2  N   UNL     1       0.839   8.944  20.398  0.00  0.00    +0.000 NA
ATOM      3  N   UNL     1       1.791   8.121  19.872  0.00  0.00    +0.000 NA
ATOM      4  C   UNL     1       2.121   8.393  18.621  0.00  0.00    +0.000 A 
ATOM      5  N   UNL     1       3.054   7.740  17.873  0.00  0.00    +0.000 N 
ATOM      6  S   UNL     1       1.222   9.705  17.986  0.00  0.00    +0.000 S 
ATOM      7  H   UNL     1       3.365   8.164  17.022  0.00  0.00    +0.000 HD
ENDROOT
BRANCH   1  12
ATOM      8  C   UNL     1      -4.447  11.800  18.291  0.00  0.00    +0.000 A 
ATOM      9  C   UNL     1      -3.803  10.734  17.659  0.00  0.00    +0.000 A 
ATOM     10  C   UNL     1      -2.527  10.333  18.056  0.00  0.00    +0.000 A 
ATOM     11  C   UNL     1      -1.887  10.986  19.123  0.00  0.00    +0.000 A 
ATOM     12  C   UNL     1      -0.647  10.820  19.799  0.00  0.00    +0.000 A 
ATOM     13  C   UNL     1      -0.595  11.745  20.825  0.00  0.00    +0.000 A 
ATOM     14  N   UNL     1      -1.728  12.506  20.752  0.00  0.00    +0.000 N 
ATOM     15  C   UNL     1      -2.552  12.052  19.745  0.00  0.00    +0.000 A 
ATOM     16  C   UNL     1      -3.819  12.479  19.341  0.00  0.00    +0.000 A 
ATOM     17  H   UNL     1      -1.951  13.285  21.363  0.00  0.00    +0.000 HD
BRANCH   8  19
ATOM     18  C   UNL     1      -6.781  11.393  18.217  0.00  0.00    +0.000 C 
ATOM     19  O   UNL     1      -5.685  12.266  17.936  0.00  0.00    +0.000 OA
ENDBRANCH   8  19
ENDBRANCH   1  12
BRANCH   5  20
ATOM     20  C   UNL     1       3.333   6.360  17.988  0.00  0.00    +0.000 A 
ATOM     21  C   UNL     1       2.348   5.418  17.870  0.00  0.00    +0.000 A 
ATOM     22  C   UNL     1       2.587   4.052  17.893  0.00  0.00    +0.000 A 
ATOM     23  C   UNL     1       3.922   3.584  18.040  0.00  0.00    +0.000 A 
ATOM     24  C   UNL     1       4.945   4.535  18.274  0.00  0.00    +0.000 A 
ATOM     25  C   UNL     1       4.636   5.910  18.258  0.00  0.00    +0.000 A 
BRANCH  22  26
ATOM     26  O   UNL     1       1.512   3.189  17.762  0.00  0.00    +0.000 OA
ATOM     27  C   UNL     1       0.829   2.900  19.009  0.00  0.00    +0.000 C 
ENDBRANCH  22  26
BRANCH  23  28
ATOM     28  O   UNL     1       4.098   2.225  17.942  0.00  0.00    +0.000 OA
ATOM     29  C   UNL     1       4.164   1.438  19.139  0.00  0.00    +0.000 C 
ENDBRANCH  23  28
BRANCH  24  30
ATOM     30  O   UNL     1       6.215   4.069  18.515  0.00  0.00    +0.000 OA
ATOM     31  C   UNL     1       7.316   4.668  17.844  0.00  0.00    +0.000 C 
ENDBRANCH  24  30
ENDBRANCH   5  20
TORSDOF 6
ENDMDL
MODEL 6
REMARK VINA RESULT:      -7.5      6.609     10.143
REMARK  Name = 
REMARK  10 active torsions:
REMARK  status: ('A' for Active; 'I' for Inactive)
REMARK    1  A    between atoms: C_1  and  O_2
REMARK    2  A    between atoms: O_2  and  C_3
REMARK    3  A    between atoms: C_7  and  C_8
REMARK    4  A    between atoms: N_12  and  C_13
REMARK    5  A    between atoms: C_15  and  O_16
REMARK    6  A    between atoms: O_16  and  C_17
REMARK    7  A    between atoms: C_18  and  O_19
REMARK    8  A    between atoms: O_19  and  C_20
REMARK    9  A    between atoms: C_21  and  O_22
REMARK   10  A    between atoms: O_22  and  C_23
REMARK                            x       y       z     vdW  Elec       q    Type
REMARK                         _______ _______ _______ _____ _____    ______ ____
ROOT
ATOM      1  C   UNL     1       0.323   9.998  19.356  0.00  0.00    +0.000 A 
ATOM      2  N   UNL     1       0.820   9.286  20.347  0.00  0.00    +0.000 NA
ATOM      3  N   UNL     1       1.770   8.418  19.897  0.00  0.00    +0.000 NA
ATOM      4  C   UNL     1       2.019   8.500  18.601  0.00  0.00    +0.000 A 
ATOM      5  N   UNL     1       2.932   7.765  17.907  0.00  0.00    +0.000 N 
ATOM      6  S   UNL     1       1.037   9.670  17.827  0.00  0.00    +0.000 S 
ATOM      7  H   UNL     1       3.180   8.059  16.983  0.00  0.00    +0.000 HD
ENDROOT
BRANCH   1  12
ATOM      8  C   UNL     1      -2.525  13.036  22.790  0.00  0.00    +0.000 A 
ATOM      9  C   UNL     1      -1.489  12.160  23.119  0.00  0.00    +0.000 A 
ATOM     10  C   UNL     1      -0.846  11.411  22.133  0.00  0.00    +0.000 A 
ATOM     11  C   UNL     1      -1.219  11.555  20.787  0.00  0.00    +0.000 A 
ATOM     12  C   UNL     1      -0.767  11.002  19.557  0.00  0.00    +0.000 A 
ATOM     13  C   UNL     1      -1.500  11.578  18.537  0.00  0.00    +0.000 A 
ATOM     14  N   UNL     1      -2.423  12.408  19.109  0.00  0.00    +0.000 N 
ATOM     15  C   UNL     1      -2.261  12.442  20.477  0.00  0.00    +0.000 A 
ATOM     16  C   UNL     1      -2.929  13.178  21.458  0.00  0.00    +0.000 A 
ATOM     17  H   UNL     1      -3.120  12.945  18.605  0.00  0.00    +0.000 HD
BRANCH   8  19
ATOM     18  C   UNL     1      -3.812  14.982  23.207  0.00  0.00    +0.000 C 
ATOM     19  O   UNL     1      -3.221  13.780  23.706  0.00  0.00    +0.000 OA
ENDBRANCH   8  19
ENDBRANCH   1  12
BRANCH   5  20
ATOM     20  C   UNL     1       3.269   6.428  18.217  0.00  0.00    +0.000 A 
ATOM     21  C   UNL     1       2.309   5.469  18.391  0.00  0.00    +0.000 A 
ATOM     22  C   UNL     1       2.594   4.130  18.614  0.00  0.00    +0.000 A 
ATOM     23  C   UNL     1       3.952   3.709  18.660  0.00  0.00    +0.000 A 
ATOM     24  C   UNL     1       4.964   4.697  18.592  0.00  0.00    +0.000 A 
ATOM     25  C   UNL     1       4.611   6.045  18.385  0.00  0.00    +0.000 A 
BRANCH  22  26
ATOM     26  O   UNL     1       1.540   3.247  18.773  0.00  0.00    +0.000 OA
ATOM     27  C   UNL     1       0.923   3.292  20.087  0.00  0.00    +0.000 C 
ENDBRANCH  22  26
BRANCH  23  28
ATOM     28  O   UNL     1       4.158   2.356  18.772  0.00  0.00    +0.000 OA
ATOM     29  C   UNL     1       4.448   1.794  20.059  0.00  0.00    +0.000 C 
ENDBRANCH  23  28
BRANCH  24  30
ATOM     30  O   UNL     1       6.269   4.292  18.740  0.00  0.00    +0.000 OA
ATOM     31  C   UNL     1       7.241   4.715  17.791  0.00  0.00    +0.000 C 
ENDBRANCH  24  30
ENDBRANCH   5  20
TORSDOF 6
ENDMDL
MODEL 7
REMARK VINA RESULT:      -7.4      6.358      9.803
REMARK  Name = 
REMARK  10 active torsions:
REMARK  status: ('A' for Active; 'I' for Inactive)
REMARK    1  A    between atoms: C_1  and  O_2
REMARK    2  A    between atoms: O_2  and  C_3
REMARK    3  A    between atoms: C_7  and  C_8
REMARK    4  A    between atoms: N_12  and  C_13
REMARK    5  A    between atoms: C_15  and  O_16
REMARK    6  A    between atoms: O_16  and  C_17
REMARK    7  A    between atoms: C_18  and  O_19
REMARK    8  A    between atoms: O_19  and  C_20
REMARK    9  A    between atoms: C_21  and  O_22
REMARK   10  A    between atoms: O_22  and  C_23
REMARK                            x       y       z     vdW  Elec       q    Type
REMARK                         _______ _______ _______ _____ _____    ______ ____
ROOT
ATOM      1  C   UNL     1       0.179   9.923  19.399  0.00  0.00    +0.000 A 
ATOM      2  N   UNL     1       0.671   9.232  20.406  0.00  0.00    +0.000 NA
ATOM      3  N   UNL     1       1.700   8.436  19.997  0.00  0.00    +0.000 NA
ATOM      4  C   UNL     1       2.010   8.555  18.717  0.00  0.00    +0.000 A 
ATOM      5  N   UNL     1       3.006   7.893  18.064  0.00  0.00    +0.000 N 
ATOM      6  S   UNL     1       0.992   9.667  17.906  0.00  0.00    +0.000 S 
ATOM      7  H   UNL     1       3.280   8.216  17.158  0.00  0.00    +0.000 HD
ENDROOT
BRANCH   1  12
ATOM      8  C   UNL     1      -4.676  11.501  17.648  0.00  0.00    +0.000 A 
ATOM      9  C   UNL     1      -3.897  10.471  17.118  0.00  0.00    +0.000 A 
ATOM     10  C   UNL     1      -2.642  10.177  17.652  0.00  0.00    +0.000 A 
ATOM     11  C   UNL     1      -2.161  10.903  18.754  0.00  0.00    +0.000 A 
ATOM     12  C   UNL     1      -0.986  10.848  19.553  0.00  0.00    +0.000 A 
ATOM     13  C   UNL     1      -1.104  11.800  20.548  0.00  0.00    +0.000 A 
ATOM     14  N   UNL     1      -2.276  12.472  20.340  0.00  0.00    +0.000 N 
ATOM     15  C   UNL     1      -2.960  11.932  19.273  0.00  0.00    +0.000 A 
ATOM     16  C   UNL     1      -4.207  12.252  18.732  0.00  0.00    +0.000 A 
ATOM     17  H   UNL     1      -2.615  13.248  20.900  0.00  0.00    +0.000 HD
BRANCH   8  19
ATOM     18  C   UNL     1      -6.845  12.327  18.129  0.00  0.00    +0.000 C 
ATOM     19  O   UNL     1      -5.903  11.864  17.159  0.00  0.00    +0.000 OA
ENDBRANCH   8  19
ENDBRANCH   1  12
BRANCH   5  20
ATOM     20  C   UNL     1       3.416   6.577  18.376  0.00  0.00    +0.000 A 
ATOM     21  C   UNL     1       2.841   5.870  19.397  0.00  0.00    +0.000 A 
ATOM     22  C   UNL     1       3.153   4.550  19.686  0.00  0.00    +0.000 A 
ATOM     23  C   UNL     1       4.116   3.874  18.886  0.00  0.00    +0.000 A 
ATOM     24  C   UNL     1       4.804   4.614  17.894  0.00  0.00    +0.000 A 
ATOM     25  C   UNL     1       4.456   5.960  17.660  0.00  0.00    +0.000 A 
BRANCH  22  26
ATOM     26  O   UNL     1       2.506   3.933  20.742  0.00  0.00    +0.000 OA
ATOM     27  C   UNL     1       1.087   3.716  20.522  0.00  0.00    +0.000 C 
ENDBRANCH  22  26
BRANCH  23  28
ATOM     28  O   UNL     1       4.292   2.539  19.158  0.00  0.00    +0.000 OA
ATOM     29  C   UNL     1       3.535   1.567  18.424  0.00  0.00    +0.000 C 
ENDBRANCH  23  28
BRANCH  24  30
ATOM     30  O   UNL     1       5.802   3.980  17.195  0.00  0.00    +0.000 OA
ATOM     31  C   UNL     1       7.029   4.660  16.962  0.00  0.00    +0.000 C 
ENDBRANCH  24  30
ENDBRANCH   5  20
TORSDOF 6
ENDMDL
MODEL 8
REMARK VINA RESULT:      -7.2      5.372      9.675
REMARK  Name = 
REMARK  10 active torsions:
REMARK  status: ('A' for Active; 'I' for Inactive)
REMARK    1  A    between atoms: C_1  and  O_2
REMARK    2  A    between atoms: O_2  and  C_3
REMARK    3  A    between atoms: C_7  and  C_8
REMARK    4  A    between atoms: N_12  and  C_13
REMARK    5  A    between atoms: C_15  and  O_16
REMARK    6  A    between atoms: O_16  and  C_17
REMARK    7  A    between atoms: C_18  and  O_19
REMARK    8  A    between atoms: O_19  and  C_20
REMARK    9  A    between atoms: C_21  and  O_22
REMARK   10  A    between atoms: O_22  and  C_23
REMARK                            x       y       z     vdW  Elec       q    Type
REMARK                         _______ _______ _______ _____ _____    ______ ____
ROOT
ATOM      1  C   UNL     1       1.230  10.098  18.805  0.00  0.00    +0.000 A 
ATOM      2  N   UNL     1       1.500   9.679  17.586  0.00  0.00    +0.000 NA
ATOM      3  N   UNL     1       1.980   8.402  17.603  0.00  0.00    +0.000 NA
ATOM      4  C   UNL     1       2.032   7.852  18.803  0.00  0.00    +0.000 A 
ATOM      5  N   UNL     1       2.449   6.587  19.093  0.00  0.00    +0.000 N 
ATOM      6  S   UNL     1       1.507   8.924  20.030  0.00  0.00    +0.000 S 
ATOM      7  H   UNL     1       2.247   6.213  19.998  0.00  0.00    +0.000 HD
ENDROOT
BRANCH   1  12
ATOM      8  C   UNL     1       2.108  15.420  18.597  0.00  0.00    +0.000 A 
ATOM      9  C   UNL     1       2.975  14.417  18.158  0.00  0.00    +0.000 A 
ATOM     10  C   UNL     1       2.637  13.071  18.291  0.00  0.00    +0.000 A 
ATOM     11  C   UNL     1       1.397  12.710  18.846  0.00  0.00    +0.000 A 
ATOM     12  C   UNL     1       0.728  11.479  19.086  0.00  0.00    +0.000 A 
ATOM     13  C   UNL     1      -0.516  11.767  19.615  0.00  0.00    +0.000 A 
ATOM     14  N   UNL     1      -0.597  13.123  19.764  0.00  0.00    +0.000 N 
ATOM     15  C   UNL     1       0.539  13.732  19.278  0.00  0.00    +0.000 A 
ATOM     16  C   UNL     1       0.878  15.083  19.173  0.00  0.00    +0.000 A 
ATOM     17  H   UNL     1      -1.387  13.624  20.157  0.00  0.00    +0.000 HD
BRANCH   8  19
ATOM     18  C   UNL     1       2.220  17.492  19.741  0.00  0.00    +0.000 C 
ATOM     19  O   UNL     1       2.385  16.759  18.526  0.00  0.00    +0.000 OA
ENDBRANCH   8  19
ENDBRANCH   1  12
BRANCH   5  20
ATOM     20  C   UNL     1       3.463   5.908  18.381  0.00  0.00    +0.000 A 
ATOM     21  C   UNL     1       3.401   4.560  18.156  0.00  0.00    +0.000 A 
ATOM     22  C   UNL     1       4.329   3.866  17.394  0.00  0.00    +0.000 A 
ATOM     23  C   UNL     1       5.407   4.578  16.798  0.00  0.00    +0.000 A 
ATOM     24  C   UNL     1       5.555   5.952  17.103  0.00  0.00    +0.000 A 
ATOM     25  C   UNL     1       4.590   6.598  17.902  0.00  0.00    +0.000 A 
BRANCH  22  26
ATOM     26  O   UNL     1       4.165   2.502  17.232  0.00  0.00    +0.000 OA
ATOM     27  C   UNL     1       3.482   1.852  18.336  0.00  0.00    +0.000 C 
ENDBRANCH  22  26
BRANCH  23  28
ATOM     28  O   UNL     1       6.222   3.848  15.967  0.00  0.00    +0.000 OA
ATOM     29  C   UNL     1       6.063   3.967  14.546  0.00  0.00    +0.000 C 
ENDBRANCH  23  28
BRANCH  24  30
ATOM     30  O   UNL     1       6.656   6.607  16.605  0.00  0.00    +0.000 OA
ATOM     31  C   UNL     1       7.507   7.317  17.497  0.00  0.00    +0.000 C 
ENDBRANCH  24  30
ENDBRANCH   5  20
TORSDOF 6
ENDMDL
MODEL 9
REMARK VINA RESULT:      -7.1      6.657     10.416
REMARK  Name = 
REMARK  10 active torsions:
REMARK  status: ('A' for Active; 'I' for Inactive)
REMARK    1  A    between atoms: C_1  and  O_2
REMARK    2  A    between atoms: O_2  and  C_3
REMARK    3  A    between atoms: C_7  and  C_8
REMARK    4  A    between atoms: N_12  and  C_13
REMARK    5  A    between atoms: C_15  and  O_16
REMARK    6  A    between atoms: O_16  and  C_17
REMARK    7  A    between atoms: C_18  and  O_19
REMARK    8  A    between atoms: O_19  and  C_20
REMARK    9  A    between atoms: C_21  and  O_22
REMARK   10  A    between atoms: O_22  and  C_23
REMARK                            x       y       z     vdW  Elec       q    Type
REMARK                         _______ _______ _______ _____ _____    ______ ____
ROOT
ATOM      1  C   UNL     1       0.304  10.094  19.467  0.00  0.00    +0.000 A 
ATOM      2  N   UNL     1       0.731   9.318  20.441  0.00  0.00    +0.000 NA
ATOM      3  N   UNL     1       1.668   8.436  19.989  0.00  0.00    +0.000 NA
ATOM      4  C   UNL     1       1.974   8.569  18.711  0.00  0.00    +0.000 A 
ATOM      5  N   UNL     1       2.889   7.832  18.020  0.00  0.00    +0.000 N 
ATOM      6  S   UNL     1       1.070   9.810  17.954  0.00  0.00    +0.000 S 
ATOM      7  H   UNL     1       3.186   8.159  17.122  0.00  0.00    +0.000 HD
ENDROOT
BRANCH   1  12
ATOM      8  C   UNL     1      -2.731  12.917  22.925  0.00  0.00    +0.000 A 
ATOM      9  C   UNL     1      -1.770  11.959  23.254  0.00  0.00    +0.000 A 
ATOM     10  C   UNL     1      -1.067  11.280  22.258  0.00  0.00    +0.000 A 
ATOM     11  C   UNL     1      -1.302  11.579  20.905  0.00  0.00    +0.000 A 
ATOM     12  C   UNL     1      -0.757  11.129  19.672  0.00  0.00    +0.000 A 
ATOM     13  C   UNL     1      -1.363  11.842  18.654  0.00  0.00    +0.000 A 
ATOM     14  N   UNL     1      -2.300  12.658  19.224  0.00  0.00    +0.000 N 
ATOM     15  C   UNL     1      -2.270  12.545  20.596  0.00  0.00    +0.000 A 
ATOM     16  C   UNL     1      -2.998  13.214  21.583  0.00  0.00    +0.000 A 
ATOM     17  H   UNL     1      -2.921  13.279  18.717  0.00  0.00    +0.000 HD
BRANCH   8  19
ATOM     18  C   UNL     1      -4.788  13.083  24.089  0.00  0.00    +0.000 C 
ATOM     19  O   UNL     1      -3.479  13.601  23.846  0.00  0.00    +0.000 OA
ENDBRANCH   8  19
ENDBRANCH   1  12
BRANCH   5  20
ATOM     20  C   UNL     1       3.164   6.471  18.278  0.00  0.00    +0.000 A 
ATOM     21  C   UNL     1       3.908   5.714  17.415  0.00  0.00    +0.000 A 
ATOM     22  C   UNL     1       4.272   4.399  17.667  0.00  0.00    +0.000 A 
ATOM     23  C   UNL     1       3.865   3.788  18.886  0.00  0.00    +0.000 A 
ATOM     24  C   UNL     1       3.004   4.513  19.745  0.00  0.00    +0.000 A 
ATOM     25  C   UNL     1       2.652   5.839  19.425  0.00  0.00    +0.000 A 
BRANCH  22  26
ATOM     26  O   UNL     1       5.029   3.729  16.722  0.00  0.00    +0.000 OA
ATOM     27  C   UNL     1       5.431   4.550  15.594  0.00  0.00    +0.000 C 
ENDBRANCH  22  26
BRANCH  23  28
ATOM     28  O   UNL     1       4.354   2.526  19.118  0.00  0.00    +0.000 OA
ATOM     29  C   UNL     1       3.615   1.390  18.650  0.00  0.00    +0.000 C 
ENDBRANCH  23  28
BRANCH  24  30
ATOM     30  O   UNL     1       2.535   3.878  20.870  0.00  0.00    +0.000 OA
ATOM     31  C   UNL     1       1.250   3.269  20.841  0.00  0.00    +0.000 C 
ENDBRANCH  24  30
ENDBRANCH   5  20
TORSDOF 6
ENDMDL
