MODEL 1
REMARK VINA RESULT:      -6.6      0.000      0.000
REMARK  Name = 
REMARK  5 active torsions:
REMARK  status: ('A' for Active; 'I' for Inactive)
REMARK    1  A    between atoms: C_1  and  O_2
REMARK    2  A    between atoms: O_2  and  C_3
REMARK    3  A    between atoms: C_3  and  C_5
REMARK    4  A    between atoms: C_6  and  C_7
REMARK    5  A    between atoms: N_19  and  C_20
REMARK                            x       y       z     vdW  Elec       q    Type
REMARK                         _______ _______ _______ _____ _____    ______ ____
ROOT
ATOM      1  C   UNL     1      -0.642  11.220  20.338  0.00  0.00    +0.000 A 
ATOM      2  C   UNL     1      -0.517  10.296  19.296  0.00  0.00    +0.000 A 
ATOM      3  C   UNL     1      -1.642  10.481  18.431  0.00  0.00    +0.000 A 
ATOM      4  C   UNL     1      -2.036   9.906  17.196  0.00  0.00    +0.000 A 
ATOM      5  C   UNL     1      -3.176  10.357  16.527  0.00  0.00    +0.000 A 
ATOM      6  C   UNL     1      -3.946  11.368  17.074  0.00  0.00    +0.000 A 
ATOM      7  C   UNL     1      -3.593  11.943  18.297  0.00  0.00    +0.000 A 
ATOM      8  C   UNL     1      -2.451  11.476  18.992  0.00  0.00    +0.000 A 
ATOM      9  N   UNL     1      -1.863  11.888  20.199  0.00  0.00    +0.000 N 
ENDROOT
BRANCH   2  10
ATOM     10  C   UNL     1       0.628   9.381  19.139  0.00  0.00    +0.000 A 
ATOM     11  C   UNL     1       1.408   9.373  17.971  0.00  0.00    +0.000 A 
ATOM     12  C   UNL     1       2.438   8.442  17.796  0.00  0.00    +0.000 A 
ATOM     13  C   UNL     1       2.750   7.546  18.814  0.00  0.00    +0.000 A 
ATOM     14  C   UNL     1       2.023   7.573  20.001  0.00  0.00    +0.000 A 
ATOM     15  C   UNL     1       0.959   8.468  20.152  0.00  0.00    +0.000 A 
ENDBRANCH   2  10
BRANCH   9  16
ATOM     16  C   UNL     1      -2.406  12.902  21.069  0.00  0.00    +0.000 A 
ATOM     17  C   UNL     1      -3.170  12.542  22.189  0.00  0.00    +0.000 A 
ATOM     18  C   UNL     1      -3.772  13.520  22.991  0.00  0.00    +0.000 A 
ATOM     19  C   UNL     1      -3.569  14.868  22.719  0.00  0.00    +0.000 A 
ATOM     20  C   UNL     1      -2.768  15.241  21.644  0.00  0.00    +0.000 A 
ATOM     21  C   UNL     1      -2.203  14.264  20.814  0.00  0.00    +0.000 A 
ENDBRANCH   9  16
BRANCH   1  22
ATOM     22  C   UNL     1       0.291  11.448  21.413  0.00  0.00    +0.000 C 
ATOM     23  O   UNL     1       0.131  11.133  22.589  0.00  0.00    +0.000 OA
BRANCH  22  25
ATOM     24  C   UNL     1       1.334  13.542  21.019  0.00  0.00    +0.000 C 
ATOM     25  O   UNL     1       1.365  12.119  20.915  0.00  0.00    +0.000 OA
ENDBRANCH  22  25
ENDBRANCH   1  22
TORSDOF 4
ENDMDL
MODEL 2
REMARK VINA RESULT:      -6.5      0.586      1.451
REMARK  Name = 
REMARK  5 active torsions:
REMARK  status: ('A' for Active; 'I' for Inactive)
REMARK    1  A    between atoms: C_1  and  O_2
REMARK    2  A    between atoms: O_2  and  C_3
REMARK    3  A    between atoms: C_3  and  C_5
REMARK    4  A    between atoms: C_6  and  C_7
REMARK    5  A    between atoms: N_19  and  C_20
REMARK                            x       y       z     vdW  Elec       q    Type
REMARK                         _______ _______ _______ _____ _____    ______ ____
ROOT
ATOM      1  C   UNL     1      -0.372  11.207  20.183  0.00  0.00    +0.000 A 
ATOM      2  C   UNL     1      -0.301  10.234  19.181  0.00  0.00    +0.000 A 
ATOM      3  C   UNL     1      -1.472  10.377  18.371  0.00  0.00    +0.000 A 
ATOM      4  C   UNL     1      -1.932   9.744  17.188  0.00  0.00    +0.000 A 
ATOM      5  C   UNL     1      -3.108  10.162  16.562  0.00  0.00    +0.000 A 
ATOM      6  C   UNL     1      -3.850  11.198  17.103  0.00  0.00    +0.000 A 
ATOM      7  C   UNL     1      -3.433  11.830  18.275  0.00  0.00    +0.000 A 
ATOM      8  C   UNL     1      -2.253  11.398  18.928  0.00  0.00    +0.000 A 
ATOM      9  N   UNL     1      -1.600  11.866  20.080  0.00  0.00    +0.000 N 
ENDROOT
BRANCH   2  10
ATOM     10  C   UNL     1       0.836   9.313  19.005  0.00  0.00    +0.000 A 
ATOM     11  C   UNL     1       1.676   9.388  17.881  0.00  0.00    +0.000 A 
ATOM     12  C   UNL     1       2.699   8.455  17.679  0.00  0.00    +0.000 A 
ATOM     13  C   UNL     1       2.944   7.471  18.632  0.00  0.00    +0.000 A 
ATOM     14  C   UNL     1       2.157   7.413  19.780  0.00  0.00    +0.000 A 
ATOM     15  C   UNL     1       1.100   8.312  19.953  0.00  0.00    +0.000 A 
ENDBRANCH   2  10
BRANCH   9  16
ATOM     16  C   UNL     1      -2.098  12.920  20.929  0.00  0.00    +0.000 A 
ATOM     17  C   UNL     1      -1.697  14.249  20.722  0.00  0.00    +0.000 A 
ATOM     18  C   UNL     1      -2.107  15.266  21.593  0.00  0.00    +0.000 A 
ATOM     19  C   UNL     1      -2.970  14.979  22.645  0.00  0.00    +0.000 A 
ATOM     20  C   UNL     1      -3.420  13.677  22.830  0.00  0.00    +0.000 A 
ATOM     21  C   UNL     1      -2.974  12.650  21.988  0.00  0.00    +0.000 A 
ENDBRANCH   9  16
BRANCH   1  22
ATOM     22  C   UNL     1       0.618  11.486  21.193  0.00  0.00    +0.000 C 
ATOM     23  O   UNL     1       1.350  12.471  21.237  0.00  0.00    +0.000 OA
BRANCH  22  25
ATOM     24  C   UNL     1      -0.482  10.315  22.938  0.00  0.00    +0.000 C 
ATOM     25  O   UNL     1       0.643  10.446  22.070  0.00  0.00    +0.000 OA
ENDBRANCH  22  25
ENDBRANCH   1  22
TORSDOF 4
ENDMDL
MODEL 3
REMARK VINA RESULT:      -6.5      0.281      1.001
REMARK  Name = 
REMARK  5 active torsions:
REMARK  status: ('A' for Active; 'I' for Inactive)
REMARK    1  A    between atoms: C_1  and  O_2
REMARK    2  A    between atoms: O_2  and  C_3
REMARK    3  A    between atoms: C_3  and  C_5
REMARK    4  A    between atoms: C_6  and  C_7
REMARK    5  A    between atoms: N_19  and  C_20
REMARK                            x       y       z     vdW  Elec       q    Type
REMARK                         _______ _______ _______ _____ _____    ______ ____
ROOT
ATOM      1  C   UNL     1      -0.527  11.242  20.106  0.00  0.00    +0.000 A 
ATOM      2  C   UNL     1      -0.427  10.263  19.112  0.00  0.00    +0.000 A 
ATOM      3  C   UNL     1      -1.579  10.394  18.274  0.00  0.00    +0.000 A 
ATOM      4  C   UNL     1      -2.007   9.750  17.085  0.00  0.00    +0.000 A 
ATOM      5  C   UNL     1      -3.170  10.157  16.429  0.00  0.00    +0.000 A 
ATOM      6  C   UNL     1      -3.931  11.191  16.945  0.00  0.00    +0.000 A 
ATOM      7  C   UNL     1      -3.545  11.834  18.122  0.00  0.00    +0.000 A 
ATOM      8  C   UNL     1      -2.378  11.413  18.805  0.00  0.00    +0.000 A 
ATOM      9  N   UNL     1      -1.756  11.893  19.970  0.00  0.00    +0.000 N 
ENDROOT
BRANCH   2  10
ATOM     10  C   UNL     1       0.720   9.348  18.969  0.00  0.00    +0.000 A 
ATOM     11  C   UNL     1       1.510   9.335  17.808  0.00  0.00    +0.000 A 
ATOM     12  C   UNL     1       2.542   8.404  17.646  0.00  0.00    +0.000 A 
ATOM     13  C   UNL     1       2.845   7.513  18.671  0.00  0.00    +0.000 A 
ATOM     14  C   UNL     1       2.109   7.545  19.852  0.00  0.00    +0.000 A 
ATOM     15  C   UNL     1       1.043   8.440  19.990  0.00  0.00    +0.000 A 
ENDBRANCH   2  10
BRANCH   9  16
ATOM     16  C   UNL     1      -2.280  12.950  20.800  0.00  0.00    +0.000 A 
ATOM     17  C   UNL     1      -2.011  14.292  20.494  0.00  0.00    +0.000 A 
ATOM     18  C   UNL     1      -2.443  15.321  21.341  0.00  0.00    +0.000 A 
ATOM     19  C   UNL     1      -3.199  15.025  22.470  0.00  0.00    +0.000 A 
ATOM     20  C   UNL     1      -3.521  13.702  22.756  0.00  0.00    +0.000 A 
ATOM     21  C   UNL     1      -3.050  12.670  21.935  0.00  0.00    +0.000 A 
ENDBRANCH   9  16
BRANCH   1  22
ATOM     22  C   UNL     1       0.437  11.533  21.137  0.00  0.00    +0.000 C 
ATOM     23  O   UNL     1       0.371  11.180  22.311  0.00  0.00    +0.000 OA
BRANCH  22  25
ATOM     24  C   UNL     1       1.493  13.657  21.079  0.00  0.00    +0.000 C 
ATOM     25  O   UNL     1       1.416  12.314  20.603  0.00  0.00    +0.000 OA
ENDBRANCH  22  25
ENDBRANCH   1  22
TORSDOF 4
ENDMDL
MODEL 4
REMARK VINA RESULT:      -6.4      0.799      5.903
REMARK  Name = 
REMARK  5 active torsions:
REMARK  status: ('A' for Active; 'I' for Inactive)
REMARK    1  A    between atoms: C_1  and  O_2
REMARK    2  A    between atoms: O_2  and  C_3
REMARK    3  A    between atoms: C_3  and  C_5
REMARK    4  A    between atoms: C_6  and  C_7
REMARK    5  A    between atoms: N_19  and  C_20
REMARK                            x       y       z     vdW  Elec       q    Type
REMARK                         _______ _______ _______ _____ _____    ______ ____
ROOT
ATOM      1  C   UNL     1      -0.822  11.321  20.286  0.00  0.00    +0.000 A 
ATOM      2  C   UNL     1      -1.980  12.047  19.990  0.00  0.00    +0.000 A 
ATOM      3  C   UNL     1      -2.501  11.527  18.763  0.00  0.00    +0.000 A 
ATOM      4  C   UNL     1      -3.666  11.795  17.999  0.00  0.00    +0.000 A 
ATOM      5  C   UNL     1      -3.959  11.050  16.855  0.00  0.00    +0.000 A 
ATOM      6  C   UNL     1      -3.101  10.044  16.444  0.00  0.00    +0.000 A 
ATOM      7  C   UNL     1      -1.939   9.768  17.166  0.00  0.00    +0.000 A 
ATOM      8  C   UNL     1      -1.624  10.533  18.315  0.00  0.00    +0.000 A 
ATOM      9  N   UNL     1      -0.557  10.450  19.225  0.00  0.00    +0.000 N 
ENDROOT
BRANCH   2  10
ATOM     10  C   UNL     1      -2.544  13.092  20.864  0.00  0.00    +0.000 A 
ATOM     11  C   UNL     1      -3.581  12.813  21.770  0.00  0.00    +0.000 A 
ATOM     12  C   UNL     1      -4.168  13.828  22.532  0.00  0.00    +0.000 A 
ATOM     13  C   UNL     1      -3.684  15.130  22.451  0.00  0.00    +0.000 A 
ATOM     14  C   UNL     1      -2.621  15.418  21.599  0.00  0.00    +0.000 A 
ATOM     15  C   UNL     1      -2.072  14.412  20.797  0.00  0.00    +0.000 A 
ENDBRANCH   2  10
BRANCH   9  16
ATOM     16  C   UNL     1       0.553   9.538  19.103  0.00  0.00    +0.000 A 
ATOM     17  C   UNL     1       1.350   9.539  17.948  0.00  0.00    +0.000 A 
ATOM     18  C   UNL     1       2.376   8.601  17.783  0.00  0.00    +0.000 A 
ATOM     19  C   UNL     1       2.658   7.689  18.795  0.00  0.00    +0.000 A 
ATOM     20  C   UNL     1       1.913   7.712  19.970  0.00  0.00    +0.000 A 
ATOM     21  C   UNL     1       0.856   8.620  20.116  0.00  0.00    +0.000 A 
ENDBRANCH   9  16
BRANCH   1  22
ATOM     22  C   UNL     1       0.006  11.449  21.459  0.00  0.00    +0.000 C 
ATOM     23  O   UNL     1       1.164  11.858  21.487  0.00  0.00    +0.000 OA
BRANCH  22  25
ATOM     24  C   UNL     1      -0.222   9.787  23.137  0.00  0.00    +0.000 C 
ATOM     25  O   UNL     1      -0.694  10.990  22.532  0.00  0.00    +0.000 OA
ENDBRANCH  22  25
ENDBRANCH   1  22
TORSDOF 4
ENDMDL
MODEL 5
REMARK VINA RESULT:      -6.4      0.549      5.719
REMARK  Name = 
REMARK  5 active torsions:
REMARK  status: ('A' for Active; 'I' for Inactive)
REMARK    1  A    between atoms: C_1  and  O_2
REMARK    2  A    between atoms: O_2  and  C_3
REMARK    3  A    between atoms: C_3  and  C_5
REMARK    4  A    between atoms: C_6  and  C_7
REMARK    5  A    between atoms: N_19  and  C_20
REMARK                            x       y       z     vdW  Elec       q    Type
REMARK                         _______ _______ _______ _____ _____    ______ ____
ROOT
ATOM      1  C   UNL     1      -0.720  11.337  20.414  0.00  0.00    +0.000 A 
ATOM      2  C   UNL     1      -1.883  12.073  20.168  0.00  0.00    +0.000 A 
ATOM      3  C   UNL     1      -2.456  11.565  18.959  0.00  0.00    +0.000 A 
ATOM      4  C   UNL     1      -3.647  11.846  18.242  0.00  0.00    +0.000 A 
ATOM      5  C   UNL     1      -3.989  11.111  17.105  0.00  0.00    +0.000 A 
ATOM      6  C   UNL     1      -3.155  10.102  16.655  0.00  0.00    +0.000 A 
ATOM      7  C   UNL     1      -1.968   9.813  17.330  0.00  0.00    +0.000 A 
ATOM      8  C   UNL     1      -1.603  10.568  18.471  0.00  0.00    +0.000 A 
ATOM      9  N   UNL     1      -0.503  10.471  19.338  0.00  0.00    +0.000 N 
ENDROOT
BRANCH   2  10
ATOM     10  C   UNL     1      -2.406  13.116  21.069  0.00  0.00    +0.000 A 
ATOM     11  C   UNL     1      -2.097  14.473  20.880  0.00  0.00    +0.000 A 
ATOM     12  C   UNL     1      -2.526  15.446  21.791  0.00  0.00    +0.000 A 
ATOM     13  C   UNL     1      -3.328  15.086  22.870  0.00  0.00    +0.000 A 
ATOM     14  C   UNL     1      -3.689  13.753  23.045  0.00  0.00    +0.000 A 
ATOM     15  C   UNL     1      -3.215  12.776  22.165  0.00  0.00    +0.000 A 
ENDBRANCH   2  10
BRANCH   9  16
ATOM     16  C   UNL     1       0.595   9.552  19.168  0.00  0.00    +0.000 A 
ATOM     17  C   UNL     1       1.357   9.566  17.989  0.00  0.00    +0.000 A 
ATOM     18  C   UNL     1       2.369   8.622  17.778  0.00  0.00    +0.000 A 
ATOM     19  C   UNL     1       2.673   7.691  18.766  0.00  0.00    +0.000 A 
ATOM     20  C   UNL     1       1.964   7.700  19.962  0.00  0.00    +0.000 A 
ATOM     21  C   UNL     1       0.920   8.614  20.155  0.00  0.00    +0.000 A 
ENDBRANCH   9  16
BRANCH   1  22
ATOM     22  C   UNL     1       0.153  11.450  21.555  0.00  0.00    +0.000 C 
ATOM     23  O   UNL     1      -0.127  11.157  22.714  0.00  0.00    +0.000 OA
BRANCH  22  25
ATOM     24  C   UNL     1       1.363  13.402  20.960  0.00  0.00    +0.000 C 
ATOM     25  O   UNL     1       1.333  11.987  21.142  0.00  0.00    +0.000 OA
ENDBRANCH  22  25
ENDBRANCH   1  22
TORSDOF 4
ENDMDL
MODEL 6
REMARK VINA RESULT:      -6.4      0.771      5.828
REMARK  Name = 
REMARK  5 active torsions:
REMARK  status: ('A' for Active; 'I' for Inactive)
REMARK    1  A    between atoms: C_1  and  O_2
REMARK    2  A    between atoms: O_2  and  C_3
REMARK    3  A    between atoms: C_3  and  C_5
REMARK    4  A    between atoms: C_6  and  C_7
REMARK    5  A    between atoms: N_19  and  C_20
REMARK                            x       y       z     vdW  Elec       q    Type
REMARK                         _______ _______ _______ _____ _____    ______ ____
ROOT
ATOM      1  C   UNL     1      -0.643  11.448  20.345  0.00  0.00    +0.000 A 
ATOM      2  C   UNL     1      -1.814  12.176  20.111  0.00  0.00    +0.000 A 
ATOM      3  C   UNL     1      -2.448  11.598  18.966  0.00  0.00    +0.000 A 
ATOM      4  C   UNL     1      -3.672  11.843  18.293  0.00  0.00    +0.000 A 
ATOM      5  C   UNL     1      -4.074  11.042  17.222  0.00  0.00    +0.000 A 
ATOM      6  C   UNL     1      -3.268  10.001  16.795  0.00  0.00    +0.000 A 
ATOM      7  C   UNL     1      -2.049   9.745  17.426  0.00  0.00    +0.000 A 
ATOM      8  C   UNL     1      -1.625  10.566  18.499  0.00  0.00    +0.000 A 
ATOM      9  N   UNL     1      -0.483  10.516  19.315  0.00  0.00    +0.000 N 
ENDROOT
BRANCH   2  10
ATOM     10  C   UNL     1      -2.286  13.276  20.971  0.00  0.00    +0.000 A 
ATOM     11  C   UNL     1      -1.761  14.574  20.859  0.00  0.00    +0.000 A 
ATOM     12  C   UNL     1      -2.153  15.591  21.737  0.00  0.00    +0.000 A 
ATOM     13  C   UNL     1      -3.127  15.344  22.700  0.00  0.00    +0.000 A 
ATOM     14  C   UNL     1      -3.699  14.078  22.793  0.00  0.00    +0.000 A 
ATOM     15  C   UNL     1      -3.266  13.049  21.950  0.00  0.00    +0.000 A 
ENDBRANCH   2  10
BRANCH   9  16
ATOM     16  C   UNL     1       0.601   9.579  19.148  0.00  0.00    +0.000 A 
ATOM     17  C   UNL     1       1.363   9.578  17.970  0.00  0.00    +0.000 A 
ATOM     18  C   UNL     1       2.361   8.618  17.762  0.00  0.00    +0.000 A 
ATOM     19  C   UNL     1       2.651   7.686  18.752  0.00  0.00    +0.000 A 
ATOM     20  C   UNL     1       1.941   7.710  19.949  0.00  0.00    +0.000 A 
ATOM     21  C   UNL     1       0.911   8.640  20.139  0.00  0.00    +0.000 A 
ENDBRANCH   9  16
BRANCH   1  22
ATOM     22  C   UNL     1       0.287  11.625  21.432  0.00  0.00    +0.000 C 
ATOM     23  O   UNL     1       1.471  11.933  21.329  0.00  0.00    +0.000 OA
BRANCH  22  25
ATOM     24  C   UNL     1      -0.395   9.972  22.992  0.00  0.00    +0.000 C 
ATOM     25  O   UNL     1      -0.356  11.343  22.598  0.00  0.00    +0.000 OA
ENDBRANCH  22  25
ENDBRANCH   1  22
TORSDOF 4
ENDMDL
MODEL 7
REMARK VINA RESULT:      -6.4      1.594      5.902
REMARK  Name = 
REMARK  5 active torsions:
REMARK  status: ('A' for Active; 'I' for Inactive)
REMARK    1  A    between atoms: C_1  and  O_2
REMARK    2  A    between atoms: O_2  and  C_3
REMARK    3  A    between atoms: C_3  and  C_5
REMARK    4  A    between atoms: C_6  and  C_7
REMARK    5  A    between atoms: N_19  and  C_20
REMARK                            x       y       z     vdW  Elec       q    Type
REMARK                         _______ _______ _______ _____ _____    ______ ____
ROOT
ATOM      1  C   UNL     1       0.309  12.000  19.447  0.00  0.00    +0.000 A 
ATOM      2  C   UNL     1      -0.817  12.790  19.192  0.00  0.00    +0.000 A 
ATOM      3  C   UNL     1      -1.804  11.940  18.601  0.00  0.00    +0.000 A 
ATOM      4  C   UNL     1      -3.148  12.133  18.192  0.00  0.00    +0.000 A 
ATOM      5  C   UNL     1      -3.910  11.066  17.710  0.00  0.00    +0.000 A 
ATOM      6  C   UNL     1      -3.352   9.804  17.613  0.00  0.00    +0.000 A 
ATOM      7  C   UNL     1      -2.026   9.586  17.992  0.00  0.00    +0.000 A 
ATOM      8  C   UNL     1      -1.240  10.666  18.462  0.00  0.00    +0.000 A 
ATOM      9  N   UNL     1       0.083  10.722  18.928  0.00  0.00    +0.000 N 
ENDROOT
BRANCH   2  10
ATOM     10  C   UNL     1      -0.925  14.214  19.561  0.00  0.00    +0.000 A 
ATOM     11  C   UNL     1      -1.605  14.624  20.720  0.00  0.00    +0.000 A 
ATOM     12  C   UNL     1      -1.777  15.980  21.016  0.00  0.00    +0.000 A 
ATOM     13  C   UNL     1      -1.214  16.951  20.193  0.00  0.00    +0.000 A 
ATOM     14  C   UNL     1      -0.490  16.564  19.068  0.00  0.00    +0.000 A 
ATOM     15  C   UNL     1      -0.366  15.209  18.745  0.00  0.00    +0.000 A 
ENDBRANCH   2  10
BRANCH   9  16
ATOM     16  C   UNL     1       0.991   9.601  18.946  0.00  0.00    +0.000 A 
ATOM     17  C   UNL     1       1.772   9.302  17.820  0.00  0.00    +0.000 A 
ATOM     18  C   UNL     1       2.593   8.167  17.797  0.00  0.00    +0.000 A 
ATOM     19  C   UNL     1       2.689   7.352  18.919  0.00  0.00    +0.000 A 
ATOM     20  C   UNL     1       1.964   7.668  20.064  0.00  0.00    +0.000 A 
ATOM     21  C   UNL     1       1.107   8.776  20.071  0.00  0.00    +0.000 A 
ENDBRANCH   9  16
BRANCH   1  22
ATOM     22  C   UNL     1       1.529  12.410  20.096  0.00  0.00    +0.000 C 
ATOM     23  O   UNL     1       1.747  12.392  21.304  0.00  0.00    +0.000 OA
BRANCH  22  25
ATOM     24  C   UNL     1       3.100  14.069  19.457  0.00  0.00    +0.000 C 
ATOM     25  O   UNL     1       2.387  12.872  19.147  0.00  0.00    +0.000 OA
ENDBRANCH  22  25
ENDBRANCH   1  22
TORSDOF 4
ENDMDL
MODEL 8
REMARK VINA RESULT:      -6.4      1.210      1.602
REMARK  Name = 
REMARK  5 active torsions:
REMARK  status: ('A' for Active; 'I' for Inactive)
REMARK    1  A    between atoms: C_1  and  O_2
REMARK    2  A    between atoms: O_2  and  C_3
REMARK    3  A    between atoms: C_3  and  C_5
REMARK    4  A    between atoms: C_6  and  C_7
REMARK    5  A    between atoms: N_19  and  C_20
REMARK                            x       y       z     vdW  Elec       q    Type
REMARK                         _______ _______ _______ _____ _____    ______ ____
ROOT
ATOM      1  C   UNL     1       0.175  11.844  19.639  0.00  0.00    +0.000 A 
ATOM      2  C   UNL     1      -0.088  10.585  19.091  0.00  0.00    +0.000 A 
ATOM      3  C   UNL     1      -1.437  10.607  18.613  0.00  0.00    +0.000 A 
ATOM      4  C   UNL     1      -2.246   9.677  17.912  0.00  0.00    +0.000 A 
ATOM      5  C   UNL     1      -3.535  10.019  17.497  0.00  0.00    +0.000 A 
ATOM      6  C   UNL     1      -4.044  11.273  17.781  0.00  0.00    +0.000 A 
ATOM      7  C   UNL     1      -3.279  12.205  18.484  0.00  0.00    +0.000 A 
ATOM      8  C   UNL     1      -1.979  11.859  18.927  0.00  0.00    +0.000 A 
ATOM      9  N   UNL     1      -1.002  12.598  19.614  0.00  0.00    +0.000 N 
ENDROOT
BRANCH   2  10
ATOM     10  C   UNL     1       0.910   9.506  18.988  0.00  0.00    +0.000 A 
ATOM     11  C   UNL     1       1.635   9.284  17.805  0.00  0.00    +0.000 A 
ATOM     12  C   UNL     1       2.517   8.204  17.689  0.00  0.00    +0.000 A 
ATOM     13  C   UNL     1       2.739   7.365  18.776  0.00  0.00    +0.000 A 
ATOM     14  C   UNL     1       2.071   7.598  19.975  0.00  0.00    +0.000 A 
ATOM     15  C   UNL     1       1.149   8.646  20.072  0.00  0.00    +0.000 A 
ENDBRANCH   2  10
BRANCH   9  16
ATOM     16  C   UNL     1      -1.187  13.942  20.105  0.00  0.00    +0.000 A 
ATOM     17  C   UNL     1      -1.848  14.168  21.321  0.00  0.00    +0.000 A 
ATOM     18  C   UNL     1      -2.108  15.471  21.764  0.00  0.00    +0.000 A 
ATOM     19  C   UNL     1      -1.659  16.562  21.028  0.00  0.00    +0.000 A 
ATOM     20  C   UNL     1      -0.953  16.352  19.847  0.00  0.00    +0.000 A 
ATOM     21  C   UNL     1      -0.733  15.050  19.380  0.00  0.00    +0.000 A 
ENDBRANCH   9  16
BRANCH   1  22
ATOM     22  C   UNL     1       1.427  12.309  20.184  0.00  0.00    +0.000 C 
ATOM     23  O   UNL     1       1.726  12.355  21.374  0.00  0.00    +0.000 OA
BRANCH  22  25
ATOM     24  C   UNL     1       2.864  13.995  19.335  0.00  0.00    +0.000 C 
ATOM     25  O   UNL     1       2.209  12.739  19.157  0.00  0.00    +0.000 OA
ENDBRANCH  22  25
ENDBRANCH   1  22
TORSDOF 4
ENDMDL
MODEL 9
REMARK VINA RESULT:      -6.3      0.602      1.459
REMARK  Name = 
REMARK  5 active torsions:
REMARK  status: ('A' for Active; 'I' for Inactive)
REMARK    1  A    between atoms: C_1  and  O_2
REMARK    2  A    between atoms: O_2  and  C_3
REMARK    3  A    between atoms: C_3  and  C_5
REMARK    4  A    between atoms: C_6  and  C_7
REMARK    5  A    between atoms: N_19  and  C_20
REMARK                            x       y       z     vdW  Elec       q    Type
REMARK                         _______ _______ _______ _____ _____    ______ ____
ROOT
ATOM      1  C   UNL     1      -0.356  11.172  20.182  0.00  0.00    +0.000 A 
ATOM      2  C   UNL     1      -0.328  10.200  19.177  0.00  0.00    +0.000 A 
ATOM      3  C   UNL     1      -1.507  10.378  18.386  0.00  0.00    +0.000 A 
ATOM      4  C   UNL     1      -2.002   9.761  17.209  0.00  0.00    +0.000 A 
ATOM      5  C   UNL     1      -3.175  10.214  16.602  0.00  0.00    +0.000 A 
ATOM      6  C   UNL     1      -3.880  11.268  17.156  0.00  0.00    +0.000 A 
ATOM      7  C   UNL     1      -3.426  11.886  18.323  0.00  0.00    +0.000 A 
ATOM      8  C   UNL     1      -2.249  11.419  18.957  0.00  0.00    +0.000 A 
ATOM      9  N   UNL     1      -1.566  11.866  20.100  0.00  0.00    +0.000 N 
ENDROOT
BRANCH   2  10
ATOM     10  C   UNL     1       0.780   9.247  18.982  0.00  0.00    +0.000 A 
ATOM     11  C   UNL     1       1.062   8.243  19.923  0.00  0.00    +0.000 A 
ATOM     12  C   UNL     1       2.168   7.400  19.771  0.00  0.00    +0.000 A 
ATOM     13  C   UNL     1       2.973   7.502  18.641  0.00  0.00    +0.000 A 
ATOM     14  C   UNL     1       2.680   8.455  17.670  0.00  0.00    +0.000 A 
ATOM     15  C   UNL     1       1.606   9.333  17.850  0.00  0.00    +0.000 A 
ENDBRANCH   2  10
BRANCH   9  16
ATOM     16  C   UNL     1      -2.021  12.931  20.959  0.00  0.00    +0.000 A 
ATOM     17  C   UNL     1      -2.909  12.665  22.012  0.00  0.00    +0.000 A 
ATOM     18  C   UNL     1      -3.422  13.704  22.798  0.00  0.00    +0.000 A 
ATOM     19  C   UNL     1      -3.008  15.014  22.580  0.00  0.00    +0.000 A 
ATOM     20  C   UNL     1      -2.085  15.286  21.576  0.00  0.00    +0.000 A 
ATOM     21  C   UNL     1      -1.607  14.254  20.759  0.00  0.00    +0.000 A 
ENDBRANCH   9  16
BRANCH   1  22
ATOM     22  C   UNL     1       0.657  11.420  21.178  0.00  0.00    +0.000 C 
ATOM     23  O   UNL     1       1.419  12.382  21.211  0.00  0.00    +0.000 OA
BRANCH  22  25
ATOM     24  C   UNL     1      -0.447  10.287  22.946  0.00  0.00    +0.000 C 
ATOM     25  O   UNL     1       0.663  10.379  22.054  0.00  0.00    +0.000 OA
ENDBRANCH  22  25
ENDBRANCH   1  22
TORSDOF 4
ENDMDL
