MODEL 1
REMARK VINA RESULT:      -9.5      0.000      0.000
REMARK  Name = 
REMARK  9 active torsions:
REMARK  status: ('A' for Active; 'I' for Inactive)
REMARK    1  A    between atoms: C_1  and  C_2
REMARK    2  A    between atoms: C_2  and  C_3
REMARK    3  A    between atoms: C_2  and  N_4
REMARK    4  A    between atoms: C_6  and  C_7
REMARK    5  A    between atoms: C_13  and  C_14
REMARK    6  A    between atoms: C_16  and  C_17
REMARK    7  A    between atoms: C_17  and  C_18
REMARK    8  A    between atoms: C_17  and  O_19
REMARK    9  A    between atoms: C_17  and  C_20
REMARK                            x       y       z     vdW  Elec       q    Type
REMARK                         _______ _______ _______ _____ _____    ______ ____
ROOT
ATOM      1  C   UNL     1       1.616   7.297  20.410  0.00  0.00    +0.000 A 
ATOM      2  C   UNL     1       1.512   8.182  19.348  0.00  0.00    +0.000 A 
ATOM      3  C   UNL     1       1.096   9.479  19.651  0.00  0.00    +0.000 A 
ATOM      4  N   UNL     1       0.817   9.841  20.933  0.00  0.00    +0.000 NA
ATOM      5  C   UNL     1       0.948   8.922  21.887  0.00  0.00    +0.000 A 
ATOM      6  N   UNL     1       0.694   9.329  23.181  0.00  0.00    +0.000 N 
ATOM      7  N   UNL     1       1.344   7.668  21.682  0.00  0.00    +0.000 NA
ATOM      8  H   UNL     1       0.762  10.334  23.251  0.00  0.00    +0.000 HD
ATOM      9  H   UNL     1       1.245   8.785  23.831  0.00  0.00    +0.000 HD
ENDROOT
BRANCH   1  16
ATOM     10  C   UNL     1       5.045   4.857  17.789  0.00  0.00    +0.000 A 
ATOM     11  C   UNL     1       4.939   3.543  18.257  0.00  0.00    +0.000 A 
ATOM     12  N   UNL     1       4.191   3.116  19.295  0.00  0.00    +0.000 NA
ATOM     13  C   UNL     1       3.434   4.088  19.809  0.00  0.00    +0.000 A 
ATOM     14  N   UNL     1       2.433   3.803  20.679  0.00  0.00    +0.000 N 
ATOM     15  C   UNL     1       1.697   4.921  20.904  0.00  0.00    +0.000 A 
ATOM     16  C   UNL     1       2.336   6.015  20.321  0.00  0.00    +0.000 A 
ATOM     17  C   UNL     1       3.424   5.460  19.520  0.00  0.00    +0.000 A 
ATOM     18  C   UNL     1       4.355   5.866  18.514  0.00  0.00    +0.000 A 
ATOM     19  H   UNL     1       2.191   2.854  20.955  0.00  0.00    +0.000 HD
BRANCH  10  22
ATOM     20  N   UNL     1       6.427   4.635  14.438  0.00  0.00    +0.000 N 
ATOM     21  C   UNL     1       5.350   4.481  15.278  0.00  0.00    +0.000 A 
ATOM     22  C   UNL     1       5.708   5.038  16.491  0.00  0.00    +0.000 A 
ATOM     23  C   UNL     1       6.986   5.605  16.214  0.00  0.00    +0.000 A 
ATOM     24  N   UNL     1       7.410   5.383  14.971  0.00  0.00    +0.000 NA
BRANCH  20  26
ATOM     25  C   UNL     1       5.381   3.422  12.529  0.00  0.00    +0.000 C 
ATOM     26  C   UNL     1       6.668   3.944  13.169  0.00  0.00    +0.000 C 
ATOM     27  C   UNL     1       7.421   4.852  12.189  0.00  0.00    +0.000 C 
ENDBRANCH  20  26
ENDBRANCH  10  22
ENDBRANCH   1  16
BRANCH   3  28
ATOM     28  C   UNL     1       0.776  10.576  18.610  0.00  0.00    +0.000 C 
ATOM     29  C   UNL     1       1.367  11.912  19.093  0.00  0.00    +0.000 C 
BRANCH  28  30
ATOM     30  C   UNL     1      -0.696  10.729  18.197  0.00  0.00    +0.000 A 
ATOM     31  C   UNL     1      -1.301   9.831  17.292  0.00  0.00    +0.000 A 
ATOM     32  C   UNL     1      -2.657   9.926  16.969  0.00  0.00    +0.000 A 
ATOM     33  C   UNL     1      -3.456  10.908  17.547  0.00  0.00    +0.000 A 
ATOM     34  C   UNL     1      -2.894  11.802  18.452  0.00  0.00    +0.000 A 
ATOM     35  C   UNL     1      -1.531  11.715  18.765  0.00  0.00    +0.000 A 
ENDBRANCH  28  30
BRANCH  28  36
ATOM     36  O   UNL     1       1.538  10.288  17.413  0.00  0.00    +0.000 OA
ATOM     37  H   UNL     1       1.336   9.354  17.201  0.00  0.00    +0.000 HD
ENDBRANCH  28  36
ENDBRANCH   3  28
TORSDOF 6
ENDMDL
MODEL 2
REMARK VINA RESULT:      -8.8      0.344      1.092
REMARK  Name = 
REMARK  9 active torsions:
REMARK  status: ('A' for Active; 'I' for Inactive)
REMARK    1  A    between atoms: C_1  and  C_2
REMARK    2  A    between atoms: C_2  and  C_3
REMARK    3  A    between atoms: C_2  and  N_4
REMARK    4  A    between atoms: C_6  and  C_7
REMARK    5  A    between atoms: C_13  and  C_14
REMARK    6  A    between atoms: C_16  and  C_17
REMARK    7  A    between atoms: C_17  and  C_18
REMARK    8  A    between atoms: C_17  and  O_19
REMARK    9  A    between atoms: C_17  and  C_20
REMARK                            x       y       z     vdW  Elec       q    Type
REMARK                         _______ _______ _______ _____ _____    ______ ____
ROOT
ATOM      1  C   UNL     1       1.492   7.311  20.444  0.00  0.00    +0.000 A 
ATOM      2  C   UNL     1       1.364   8.190  19.380  0.00  0.00    +0.000 A 
ATOM      3  C   UNL     1       0.949   9.488  19.684  0.00  0.00    +0.000 A 
ATOM      4  N   UNL     1       0.693   9.855  20.970  0.00  0.00    +0.000 NA
ATOM      5  C   UNL     1       0.845   8.941  21.925  0.00  0.00    +0.000 A 
ATOM      6  N   UNL     1       0.613   9.354  23.221  0.00  0.00    +0.000 N 
ATOM      7  N   UNL     1       1.241   7.688  21.720  0.00  0.00    +0.000 NA
ATOM      8  H   UNL     1       0.678  10.360  23.286  0.00  0.00    +0.000 HD
ATOM      9  H   UNL     1       1.178   8.816  23.864  0.00  0.00    +0.000 HD
ENDROOT
BRANCH   1  16
ATOM     10  C   UNL     1       5.097   4.978  17.966  0.00  0.00    +0.000 A 
ATOM     11  C   UNL     1       4.956   3.645  18.365  0.00  0.00    +0.000 A 
ATOM     12  N   UNL     1       4.136   3.175  19.326  0.00  0.00    +0.000 NA
ATOM     13  C   UNL     1       3.345   4.125  19.829  0.00  0.00    +0.000 A 
ATOM     14  N   UNL     1       2.283   3.806  20.611  0.00  0.00    +0.000 N 
ATOM     15  C   UNL     1       1.534   4.915  20.834  0.00  0.00    +0.000 A 
ATOM     16  C   UNL     1       2.214   6.032  20.348  0.00  0.00    +0.000 A 
ATOM     17  C   UNL     1       3.356   5.509  19.603  0.00  0.00    +0.000 A 
ATOM     18  C   UNL     1       4.357   5.957  18.686  0.00  0.00    +0.000 A 
ATOM     19  H   UNL     1       2.021   2.845  20.826  0.00  0.00    +0.000 HD
BRANCH  10  22
ATOM     20  N   UNL     1       6.453   5.136  14.601  0.00  0.00    +0.000 N 
ATOM     21  C   UNL     1       5.364   5.226  15.435  0.00  0.00    +0.000 A 
ATOM     22  C   UNL     1       5.850   5.215  16.728  0.00  0.00    +0.000 A 
ATOM     23  C   UNL     1       7.262   5.237  16.535  0.00  0.00    +0.000 A 
ATOM     24  N   UNL     1       7.627   5.214  15.254  0.00  0.00    +0.000 NA
BRANCH  20  26
ATOM     25  C   UNL     1       7.785   5.103  12.495  0.00  0.00    +0.000 C 
ATOM     26  C   UNL     1       6.453   4.794  13.177  0.00  0.00    +0.000 C 
ATOM     27  C   UNL     1       6.078   3.321  12.972  0.00  0.00    +0.000 C 
ENDBRANCH  20  26
ENDBRANCH  10  22
ENDBRANCH   1  16
BRANCH   3  28
ATOM     28  C   UNL     1       0.605  10.578  18.643  0.00  0.00    +0.000 C 
ATOM     29  C   UNL     1       1.131  11.934  19.146  0.00  0.00    +0.000 C 
BRANCH  28  30
ATOM     30  C   UNL     1      -0.863  10.674  18.201  0.00  0.00    +0.000 A 
ATOM     31  C   UNL     1      -1.713  11.687  18.694  0.00  0.00    +0.000 A 
ATOM     32  C   UNL     1      -3.029  11.818  18.240  0.00  0.00    +0.000 A 
ATOM     33  C   UNL     1      -3.534  10.955  17.273  0.00  0.00    +0.000 A 
ATOM     34  C   UNL     1      -2.719   9.952  16.758  0.00  0.00    +0.000 A 
ATOM     35  C   UNL     1      -1.405   9.812  17.223  0.00  0.00    +0.000 A 
ENDBRANCH  28  30
BRANCH  28  36
ATOM     36  O   UNL     1       1.403  10.329  17.461  0.00  0.00    +0.000 OA
ATOM     37  H   UNL     1       1.601  11.216  17.096  0.00  0.00    +0.000 HD
ENDBRANCH  28  36
ENDBRANCH   3  28
TORSDOF 6
ENDMDL
MODEL 3
REMARK VINA RESULT:      -8.5      2.229      2.932
REMARK  Name = 
REMARK  9 active torsions:
REMARK  status: ('A' for Active; 'I' for Inactive)
REMARK    1  A    between atoms: C_1  and  C_2
REMARK    2  A    between atoms: C_2  and  C_3
REMARK    3  A    between atoms: C_2  and  N_4
REMARK    4  A    between atoms: C_6  and  C_7
REMARK    5  A    between atoms: C_13  and  C_14
REMARK    6  A    between atoms: C_16  and  C_17
REMARK    7  A    between atoms: C_17  and  C_18
REMARK    8  A    between atoms: C_17  and  O_19
REMARK    9  A    between atoms: C_17  and  C_20
REMARK                            x       y       z     vdW  Elec       q    Type
REMARK                         _______ _______ _______ _____ _____    ______ ____
ROOT
ATOM      1  C   UNL     1       1.985   7.518  20.047  0.00  0.00    +0.000 A 
ATOM      2  C   UNL     1       1.346   7.954  21.198  0.00  0.00    +0.000 A 
ATOM      3  C   UNL     1       0.679   9.178  21.120  0.00  0.00    +0.000 A 
ATOM      4  N   UNL     1       0.663   9.891  19.960  0.00  0.00    +0.000 NA
ATOM      5  C   UNL     1       1.304   9.390  18.907  0.00  0.00    +0.000 A 
ATOM      6  N   UNL     1       1.238  10.118  17.736  0.00  0.00    +0.000 N 
ATOM      7  N   UNL     1       1.957   8.231  18.897  0.00  0.00    +0.000 NA
ATOM      8  H   UNL     1       0.452  10.752  17.762  0.00  0.00    +0.000 HD
ATOM      9  H   UNL     1       1.304   9.500  16.939  0.00  0.00    +0.000 HD
ENDROOT
BRANCH   1  16
ATOM     10  C   UNL     1       4.943   4.674  17.264  0.00  0.00    +0.000 A 
ATOM     11  C   UNL     1       4.575   3.373  17.623  0.00  0.00    +0.000 A 
ATOM     12  N   UNL     1       3.736   3.019  18.617  0.00  0.00    +0.000 NA
ATOM     13  C   UNL     1       3.168   4.076  19.203  0.00  0.00    +0.000 A 
ATOM     14  N   UNL     1       2.110   3.922  20.038  0.00  0.00    +0.000 N 
ATOM     15  C   UNL     1       1.597   5.140  20.348  0.00  0.00    +0.000 A 
ATOM     16  C   UNL     1       2.447   6.133  19.860  0.00  0.00    +0.000 A 
ATOM     17  C   UNL     1       3.427   5.442  19.026  0.00  0.00    +0.000 A 
ATOM     18  C   UNL     1       4.442   5.738  18.064  0.00  0.00    +0.000 A 
ATOM     19  H   UNL     1       1.684   3.019  20.235  0.00  0.00    +0.000 HD
BRANCH  10  22
ATOM     20  N   UNL     1       6.408   4.401  13.953  0.00  0.00    +0.000 N 
ATOM     21  C   UNL     1       5.296   4.317  14.757  0.00  0.00    +0.000 A 
ATOM     22  C   UNL     1       5.658   4.824  15.991  0.00  0.00    +0.000 A 
ATOM     23  C   UNL     1       6.984   5.293  15.763  0.00  0.00    +0.000 A 
ATOM     24  N   UNL     1       7.429   5.060  14.529  0.00  0.00    +0.000 NA
BRANCH  20  26
ATOM     25  C   UNL     1       5.338   3.210  12.043  0.00  0.00    +0.000 C 
ATOM     26  C   UNL     1       6.633   3.715  12.679  0.00  0.00    +0.000 C 
ATOM     27  C   UNL     1       7.391   4.620  11.700  0.00  0.00    +0.000 C 
ENDBRANCH  20  26
ENDBRANCH  10  22
ENDBRANCH   1  16
BRANCH   3  28
ATOM     28  C   UNL     1       0.029   9.914  22.314  0.00  0.00    +0.000 C 
ATOM     29  C   UNL     1      -1.160   9.083  22.826  0.00  0.00    +0.000 C 
BRANCH  28  30
ATOM     30  C   UNL     1      -0.365  11.382  22.090  0.00  0.00    +0.000 A 
ATOM     31  C   UNL     1       0.526  12.297  21.488  0.00  0.00    +0.000 A 
ATOM     32  C   UNL     1       0.145  13.614  21.219  0.00  0.00    +0.000 A 
ATOM     33  C   UNL     1      -1.138  14.057  21.528  0.00  0.00    +0.000 A 
ATOM     34  C   UNL     1      -2.044  13.178  22.111  0.00  0.00    +0.000 A 
ATOM     35  C   UNL     1      -1.657  11.861  22.393  0.00  0.00    +0.000 A 
ENDBRANCH  28  30
BRANCH  28  36
ATOM     36  O   UNL     1       0.963   9.875  23.420  0.00  0.00    +0.000 OA
ATOM     37  H   UNL     1       0.876   8.975  23.795  0.00  0.00    +0.000 HD
ENDBRANCH  28  36
ENDBRANCH   3  28
TORSDOF 6
ENDMDL
MODEL 4
REMARK VINA RESULT:      -8.4      1.391      2.121
REMARK  Name = 
REMARK  9 active torsions:
REMARK  status: ('A' for Active; 'I' for Inactive)
REMARK    1  A    between atoms: C_1  and  C_2
REMARK    2  A    between atoms: C_2  and  C_3
REMARK    3  A    between atoms: C_2  and  N_4
REMARK    4  A    between atoms: C_6  and  C_7
REMARK    5  A    between atoms: C_13  and  C_14
REMARK    6  A    between atoms: C_16  and  C_17
REMARK    7  A    between atoms: C_17  and  C_18
REMARK    8  A    between atoms: C_17  and  O_19
REMARK    9  A    between atoms: C_17  and  C_20
REMARK                            x       y       z     vdW  Elec       q    Type
REMARK                         _______ _______ _______ _____ _____    ______ ____
ROOT
ATOM      1  C   UNL     1       1.542   7.506  20.305  0.00  0.00    +0.000 A 
ATOM      2  C   UNL     1       1.663   8.478  19.324  0.00  0.00    +0.000 A 
ATOM      3  C   UNL     1       1.225   9.762  19.655  0.00  0.00    +0.000 A 
ATOM      4  N   UNL     1       0.713  10.028  20.889  0.00  0.00    +0.000 NA
ATOM      5  C   UNL     1       0.639   9.029  21.765  0.00  0.00    +0.000 A 
ATOM      6  N   UNL     1       0.151   9.338  23.019  0.00  0.00    +0.000 N 
ATOM      7  N   UNL     1       1.039   7.783  21.531  0.00  0.00    +0.000 NA
ATOM      8  H   UNL     1       0.225  10.331  23.188  0.00  0.00    +0.000 HD
ATOM      9  H   UNL     1       0.555   8.723  23.711  0.00  0.00    +0.000 HD
ENDROOT
BRANCH   1  16
ATOM     10  C   UNL     1       4.933   4.955  17.742  0.00  0.00    +0.000 A 
ATOM     11  C   UNL     1       4.800   3.652  18.233  0.00  0.00    +0.000 A 
ATOM     12  N   UNL     1       4.041   3.258  19.276  0.00  0.00    +0.000 NA
ATOM     13  C   UNL     1       3.301   4.253  19.769  0.00  0.00    +0.000 A 
ATOM     14  N   UNL     1       2.292   4.003  20.640  0.00  0.00    +0.000 N 
ATOM     15  C   UNL     1       1.576   5.139  20.843  0.00  0.00    +0.000 A 
ATOM     16  C   UNL     1       2.238   6.210  20.242  0.00  0.00    +0.000 A 
ATOM     17  C   UNL     1       3.318   5.619  19.456  0.00  0.00    +0.000 A 
ATOM     18  C   UNL     1       4.259   5.990  18.446  0.00  0.00    +0.000 A 
ATOM     19  H   UNL     1       2.031   3.064  20.933  0.00  0.00    +0.000 HD
BRANCH  10  22
ATOM     20  N   UNL     1       6.326   4.644  14.403  0.00  0.00    +0.000 N 
ATOM     21  C   UNL     1       5.244   4.520  15.241  0.00  0.00    +0.000 A 
ATOM     22  C   UNL     1       5.603   5.099  16.443  0.00  0.00    +0.000 A 
ATOM     23  C   UNL     1       6.889   5.645  16.160  0.00  0.00    +0.000 A 
ATOM     24  N   UNL     1       7.316   5.391  14.923  0.00  0.00    +0.000 NA
BRANCH  20  26
ATOM     25  C   UNL     1       5.270   3.445  12.489  0.00  0.00    +0.000 C 
ATOM     26  C   UNL     1       6.564   3.922  13.150  0.00  0.00    +0.000 C 
ATOM     27  C   UNL     1       7.377   4.780  12.174  0.00  0.00    +0.000 C 
ENDBRANCH  20  26
ENDBRANCH  10  22
ENDBRANCH   1  16
BRANCH   3  28
ATOM     28  C   UNL     1       1.134  10.951  18.672  0.00  0.00    +0.000 C 
ATOM     29  C   UNL     1       2.377  10.948  17.766  0.00  0.00    +0.000 C 
BRANCH  28  30
ATOM     30  C   UNL     1       0.889  12.338  19.287  0.00  0.00    +0.000 A 
ATOM     31  C   UNL     1       1.925  13.049  19.929  0.00  0.00    +0.000 A 
ATOM     32  C   UNL     1       1.723  14.340  20.426  0.00  0.00    +0.000 A 
ATOM     33  C   UNL     1       0.489  14.967  20.287  0.00  0.00    +0.000 A 
ATOM     34  C   UNL     1      -0.551  14.299  19.649  0.00  0.00    +0.000 A 
ATOM     35  C   UNL     1      -0.352  12.999  19.163  0.00  0.00    +0.000 A 
ENDBRANCH  28  30
BRANCH  28  36
ATOM     36  O   UNL     1       0.050  10.683  17.751  0.00  0.00    +0.000 OA
ATOM     37  H   UNL     1      -0.238  11.563  17.433  0.00  0.00    +0.000 HD
ENDBRANCH  28  36
ENDBRANCH   3  28
TORSDOF 6
ENDMDL
MODEL 5
REMARK VINA RESULT:      -8.4      3.832      7.169
REMARK  Name = 
REMARK  9 active torsions:
REMARK  status: ('A' for Active; 'I' for Inactive)
REMARK    1  A    between atoms: C_1  and  C_2
REMARK    2  A    between atoms: C_2  and  C_3
REMARK    3  A    between atoms: C_2  and  N_4
REMARK    4  A    between atoms: C_6  and  C_7
REMARK    5  A    between atoms: C_13  and  C_14
REMARK    6  A    between atoms: C_16  and  C_17
REMARK    7  A    between atoms: C_17  and  C_18
REMARK    8  A    between atoms: C_17  and  O_19
REMARK    9  A    between atoms: C_17  and  C_20
REMARK                            x       y       z     vdW  Elec       q    Type
REMARK                         _______ _______ _______ _____ _____    ______ ____
ROOT
ATOM      1  C   UNL     1      -2.464  11.756  19.122  0.00  0.00    +0.000 A 
ATOM      2  C   UNL     1      -3.803  12.026  19.359  0.00  0.00    +0.000 A 
ATOM      3  C   UNL     1      -4.670  11.907  18.272  0.00  0.00    +0.000 A 
ATOM      4  N   UNL     1      -4.206  11.535  17.047  0.00  0.00    +0.000 NA
ATOM      5  C   UNL     1      -2.904  11.295  16.916  0.00  0.00    +0.000 A 
ATOM      6  N   UNL     1      -2.469  10.886  15.672  0.00  0.00    +0.000 N 
ATOM      7  N   UNL     1      -2.014  11.381  17.902  0.00  0.00    +0.000 NA
ATOM      8  H   UNL     1      -3.242  10.519  15.135  0.00  0.00    +0.000 HD
ATOM      9  H   UNL     1      -1.654  10.296  15.765  0.00  0.00    +0.000 HD
ENDROOT
BRANCH   1  16
ATOM     10  C   UNL     1       1.177   8.719  20.568  0.00  0.00    +0.000 A 
ATOM     11  C   UNL     1       1.408   9.096  21.895  0.00  0.00    +0.000 A 
ATOM     12  N   UNL     1       0.868  10.152  22.537  0.00  0.00    +0.000 NA
ATOM     13  C   UNL     1      -0.038  10.790  21.793  0.00  0.00    +0.000 A 
ATOM     14  N   UNL     1      -0.870  11.707  22.346  0.00  0.00    +0.000 N 
ATOM     15  C   UNL     1      -1.814  12.068  21.440  0.00  0.00    +0.000 A 
ATOM     16  C   UNL     1      -1.488  11.521  20.199  0.00  0.00    +0.000 A 
ATOM     17  C   UNL     1      -0.379  10.604  20.447  0.00  0.00    +0.000 A 
ATOM     18  C   UNL     1       0.346   9.565  19.784  0.00  0.00    +0.000 A 
ATOM     19  H   UNL     1      -0.869  11.930  23.340  0.00  0.00    +0.000 HD
BRANCH  10  22
ATOM     20  N   UNL     1       2.322   5.284  20.295  0.00  0.00    +0.000 N 
ATOM     21  C   UNL     1       1.397   6.180  20.776  0.00  0.00    +0.000 A 
ATOM     22  C   UNL     1       1.666   7.393  20.170  0.00  0.00    +0.000 A 
ATOM     23  C   UNL     1       2.705   7.065  19.251  0.00  0.00    +0.000 A 
ATOM     24  N   UNL     1       3.085   5.789  19.309  0.00  0.00    +0.000 NA
BRANCH  20  26
ATOM     25  C   UNL     1       1.423   3.157  21.234  0.00  0.00    +0.000 C 
ATOM     26  C   UNL     1       2.660   3.972  20.854  0.00  0.00    +0.000 C 
ATOM     27  C   UNL     1       3.545   3.179  19.886  0.00  0.00    +0.000 C 
ENDBRANCH  20  26
ENDBRANCH  10  22
ENDBRANCH   1  16
BRANCH   3  28
ATOM     28  C   UNL     1      -6.166  12.297  18.280  0.00  0.00    +0.000 C 
ATOM     29  C   UNL     1      -6.362  13.545  17.400  0.00  0.00    +0.000 C 
BRANCH  28  30
ATOM     30  C   UNL     1      -6.829  12.469  19.655  0.00  0.00    +0.000 A 
ATOM     31  C   UNL     1      -7.365  11.366  20.354  0.00  0.00    +0.000 A 
ATOM     32  C   UNL     1      -7.905  11.509  21.635  0.00  0.00    +0.000 A 
ATOM     33  C   UNL     1      -7.915  12.749  22.265  0.00  0.00    +0.000 A 
ATOM     34  C   UNL     1      -7.383  13.855  21.610  0.00  0.00    +0.000 A 
ATOM     35  C   UNL     1      -6.855  13.714  20.319  0.00  0.00    +0.000 A 
ENDBRANCH  28  30
BRANCH  28  36
ATOM     36  O   UNL     1      -6.896  11.270  17.567  0.00  0.00    +0.000 OA
ATOM     37  H   UNL     1      -6.220  10.792  17.045  0.00  0.00    +0.000 HD
ENDBRANCH  28  36
ENDBRANCH   3  28
TORSDOF 6
ENDMDL
MODEL 6
REMARK VINA RESULT:      -8.2      3.589      6.991
REMARK  Name = 
REMARK  9 active torsions:
REMARK  status: ('A' for Active; 'I' for Inactive)
REMARK    1  A    between atoms: C_1  and  C_2
REMARK    2  A    between atoms: C_2  and  C_3
REMARK    3  A    between atoms: C_2  and  N_4
REMARK    4  A    between atoms: C_6  and  C_7
REMARK    5  A    between atoms: C_13  and  C_14
REMARK    6  A    between atoms: C_16  and  C_17
REMARK    7  A    between atoms: C_17  and  C_18
REMARK    8  A    between atoms: C_17  and  O_19
REMARK    9  A    between atoms: C_17  and  C_20
REMARK                            x       y       z     vdW  Elec       q    Type
REMARK                         _______ _______ _______ _____ _____    ______ ____
ROOT
ATOM      1  C   UNL     1      -2.475  11.723  19.175  0.00  0.00    +0.000 A 
ATOM      2  C   UNL     1      -3.827  11.979  19.343  0.00  0.00    +0.000 A 
ATOM      3  C   UNL     1      -4.642  11.808  18.223  0.00  0.00    +0.000 A 
ATOM      4  N   UNL     1      -4.118  11.403  17.034  0.00  0.00    +0.000 NA
ATOM      5  C   UNL     1      -2.807  11.180  16.969  0.00  0.00    +0.000 A 
ATOM      6  N   UNL     1      -2.311  10.735  15.761  0.00  0.00    +0.000 N 
ATOM      7  N   UNL     1      -1.965  11.314  17.990  0.00  0.00    +0.000 NA
ATOM      8  H   UNL     1      -3.053  10.337  15.203  0.00  0.00    +0.000 HD
ATOM      9  H   UNL     1      -1.492  10.163  15.911  0.00  0.00    +0.000 HD
ENDROOT
BRANCH   1  16
ATOM     10  C   UNL     1       1.142   8.797  20.887  0.00  0.00    +0.000 A 
ATOM     11  C   UNL     1       1.307   9.223  22.209  0.00  0.00    +0.000 A 
ATOM     12  N   UNL     1       0.725  10.292  22.789  0.00  0.00    +0.000 NA
ATOM     13  C   UNL     1      -0.156  10.889  21.984  0.00  0.00    +0.000 A 
ATOM     14  N   UNL     1      -1.026  11.812  22.466  0.00  0.00    +0.000 N 
ATOM     15  C   UNL     1      -1.933  12.125  21.507  0.00  0.00    +0.000 A 
ATOM     16  C   UNL     1      -1.545  11.541  20.301  0.00  0.00    +0.000 A 
ATOM     17  C   UNL     1      -0.434  10.651  20.631  0.00  0.00    +0.000 A 
ATOM     18  C   UNL     1       0.335   9.602  20.038  0.00  0.00    +0.000 A 
ATOM     19  H   UNL     1      -1.073  12.069  23.450  0.00  0.00    +0.000 HD
BRANCH  10  22
ATOM     20  N   UNL     1       2.499   5.775  19.399  0.00  0.00    +0.000 N 
ATOM     21  C   UNL     1       2.569   7.138  19.565  0.00  0.00    +0.000 A 
ATOM     22  C   UNL     1       1.667   7.465  20.559  0.00  0.00    +0.000 A 
ATOM     23  C   UNL     1       1.203   6.191  20.997  0.00  0.00    +0.000 A 
ATOM     24  N   UNL     1       1.721   5.170  20.315  0.00  0.00    +0.000 NA
BRANCH  20  26
ATOM     25  C   UNL     1       1.904   4.245  17.523  0.00  0.00    +0.000 C 
ATOM     26  C   UNL     1       3.009   4.991  18.272  0.00  0.00    +0.000 C 
ATOM     27  C   UNL     1       3.801   5.880  17.306  0.00  0.00    +0.000 C 
ENDBRANCH  20  26
ENDBRANCH  10  22
ENDBRANCH   1  16
BRANCH   3  28
ATOM     28  C   UNL     1      -6.143  12.174  18.151  0.00  0.00    +0.000 C 
ATOM     29  C   UNL     1      -6.348  13.225  17.046  0.00  0.00    +0.000 C 
BRANCH  28  30
ATOM     30  C   UNL     1      -6.814  12.600  19.465  0.00  0.00    +0.000 A 
ATOM     31  C   UNL     1      -7.320  11.645  20.374  0.00  0.00    +0.000 A 
ATOM     32  C   UNL     1      -7.867  12.027  21.601  0.00  0.00    +0.000 A 
ATOM     33  C   UNL     1      -7.916  13.368  21.969  0.00  0.00    +0.000 A 
ATOM     34  C   UNL     1      -7.416  14.334  21.102  0.00  0.00    +0.000 A 
ATOM     35  C   UNL     1      -6.880  13.952  19.865  0.00  0.00    +0.000 A 
ENDBRANCH  28  30
BRANCH  28  36
ATOM     36  O   UNL     1      -6.857  11.019  17.649  0.00  0.00    +0.000 OA
ATOM     37  H   UNL     1      -6.401  10.247  18.043  0.00  0.00    +0.000 HD
ENDBRANCH  28  36
ENDBRANCH   3  28
TORSDOF 6
ENDMDL
MODEL 7
REMARK VINA RESULT:      -8.0      3.085      8.816
REMARK  Name = 
REMARK  9 active torsions:
REMARK  status: ('A' for Active; 'I' for Inactive)
REMARK    1  A    between atoms: C_1  and  C_2
REMARK    2  A    between atoms: C_2  and  C_3
REMARK    3  A    between atoms: C_2  and  N_4
REMARK    4  A    between atoms: C_6  and  C_7
REMARK    5  A    between atoms: C_13  and  C_14
REMARK    6  A    between atoms: C_16  and  C_17
REMARK    7  A    between atoms: C_17  and  C_18
REMARK    8  A    between atoms: C_17  and  O_19
REMARK    9  A    between atoms: C_17  and  C_20
REMARK                            x       y       z     vdW  Elec       q    Type
REMARK                         _______ _______ _______ _____ _____    ______ ____
ROOT
ATOM      1  C   UNL     1       1.756   7.361  20.342  0.00  0.00    +0.000 A 
ATOM      2  C   UNL     1       2.559   7.383  19.212  0.00  0.00    +0.000 A 
ATOM      3  C   UNL     1       3.072   6.158  18.782  0.00  0.00    +0.000 A 
ATOM      4  N   UNL     1       2.782   5.007  19.449  0.00  0.00    +0.000 NA
ATOM      5  C   UNL     1       2.001   5.085  20.523  0.00  0.00    +0.000 A 
ATOM      6  N   UNL     1       1.695   3.898  21.156  0.00  0.00    +0.000 N 
ATOM      7  N   UNL     1       1.469   6.210  20.994  0.00  0.00    +0.000 NA
ATOM      8  H   UNL     1       1.840   3.119  20.529  0.00  0.00    +0.000 HD
ATOM      9  H   UNL     1       0.791   3.965  21.603  0.00  0.00    +0.000 HD
ENDROOT
BRANCH   1  16
ATOM     10  C   UNL     1       1.124  12.249  19.809  0.00  0.00    +0.000 A 
ATOM     11  C   UNL     1       0.156  12.558  20.769  0.00  0.00    +0.000 A 
ATOM     12  N   UNL     1      -0.541  11.683  21.521  0.00  0.00    +0.000 NA
ATOM     13  C   UNL     1      -0.136  10.424  21.340  0.00  0.00    +0.000 A 
ATOM     14  N   UNL     1      -0.529   9.439  22.186  0.00  0.00    +0.000 N 
ATOM     15  C   UNL     1       0.160   8.302  21.910  0.00  0.00    +0.000 A 
ATOM     16  C   UNL     1       0.888   8.483  20.734  0.00  0.00    +0.000 A 
ATOM     17  C   UNL     1       0.773   9.903  20.410  0.00  0.00    +0.000 A 
ATOM     18  C   UNL     1       1.360  10.873  19.539  0.00  0.00    +0.000 A 
ATOM     19  H   UNL     1      -1.115   9.608  23.002  0.00  0.00    +0.000 HD
BRANCH  10  22
ATOM     20  N   UNL     1       2.511  15.407  18.673  0.00  0.00    +0.000 N 
ATOM     21  C   UNL     1       1.794  14.709  19.616  0.00  0.00    +0.000 A 
ATOM     22  C   UNL     1       1.931  13.369  19.309  0.00  0.00    +0.000 A 
ATOM     23  C   UNL     1       2.858  13.386  18.225  0.00  0.00    +0.000 A 
ATOM     24  N   UNL     1       3.226  14.613  17.857  0.00  0.00    +0.000 NA
BRANCH  20  26
ATOM     25  C   UNL     1       2.666  17.149  16.897  0.00  0.00    +0.000 C 
ATOM     26  C   UNL     1       2.422  16.839  18.374  0.00  0.00    +0.000 C 
ATOM     27  C   UNL     1       1.070  17.405  18.822  0.00  0.00    +0.000 C 
ENDBRANCH  20  26
ENDBRANCH  10  22
ENDBRANCH   1  16
BRANCH   3  28
ATOM     28  C   UNL     1       4.097   5.976  17.639  0.00  0.00    +0.000 C 
ATOM     29  C   UNL     1       3.864   4.609  16.972  0.00  0.00    +0.000 C 
BRANCH  28  30
ATOM     30  C   UNL     1       5.577   6.181  17.999  0.00  0.00    +0.000 A 
ATOM     31  C   UNL     1       6.358   7.165  17.355  0.00  0.00    +0.000 A 
ATOM     32  C   UNL     1       7.684   7.402  17.729  0.00  0.00    +0.000 A 
ATOM     33  C   UNL     1       8.268   6.677  18.763  0.00  0.00    +0.000 A 
ATOM     34  C   UNL     1       7.523   5.708  19.426  0.00  0.00    +0.000 A 
ATOM     35  C   UNL     1       6.198   5.461  19.042  0.00  0.00    +0.000 A 
ENDBRANCH  28  30
BRANCH  28  36
ATOM     36  O   UNL     1       3.766   6.918  16.592  0.00  0.00    +0.000 OA
ATOM     37  H   UNL     1       3.961   7.800  16.971  0.00  0.00    +0.000 HD
ENDBRANCH  28  36
ENDBRANCH   3  28
TORSDOF 6
ENDMDL
MODEL 8
REMARK VINA RESULT:      -8.0      2.036      2.791
REMARK  Name = 
REMARK  9 active torsions:
REMARK  status: ('A' for Active; 'I' for Inactive)
REMARK    1  A    between atoms: C_1  and  C_2
REMARK    2  A    between atoms: C_2  and  C_3
REMARK    3  A    between atoms: C_2  and  N_4
REMARK    4  A    between atoms: C_6  and  C_7
REMARK    5  A    between atoms: C_13  and  C_14
REMARK    6  A    between atoms: C_16  and  C_17
REMARK    7  A    between atoms: C_17  and  C_18
REMARK    8  A    between atoms: C_17  and  O_19
REMARK    9  A    between atoms: C_17  and  C_20
REMARK                            x       y       z     vdW  Elec       q    Type
REMARK                         _______ _______ _______ _____ _____    ______ ____
ROOT
ATOM      1  C   UNL     1       2.229   7.319  19.749  0.00  0.00    +0.000 A 
ATOM      2  C   UNL     1       1.500   7.745  20.849  0.00  0.00    +0.000 A 
ATOM      3  C   UNL     1       0.893   8.998  20.753  0.00  0.00    +0.000 A 
ATOM      4  N   UNL     1       1.016   9.749  19.624  0.00  0.00    +0.000 NA
ATOM      5  C   UNL     1       1.735   9.255  18.618  0.00  0.00    +0.000 A 
ATOM      6  N   UNL     1       1.811  10.023  17.474  0.00  0.00    +0.000 N 
ATOM      7  N   UNL     1       2.340   8.070  18.628  0.00  0.00    +0.000 NA
ATOM      8  H   UNL     1       1.052  10.688  17.448  0.00  0.00    +0.000 HD
ATOM      9  H   UNL     1       1.929   9.429  16.664  0.00  0.00    +0.000 HD
ENDROOT
BRANCH   1  16
ATOM     10  C   UNL     1       4.882   4.360  16.785  0.00  0.00    +0.000 A 
ATOM     11  C   UNL     1       4.529   3.075  17.208  0.00  0.00    +0.000 A 
ATOM     12  N   UNL     1       3.777   2.759  18.282  0.00  0.00    +0.000 NA
ATOM     13  C   UNL     1       3.280   3.838  18.889  0.00  0.00    +0.000 A 
ATOM     14  N   UNL     1       2.299   3.723  19.819  0.00  0.00    +0.000 N 
ATOM     15  C   UNL     1       1.834   4.957  20.143  0.00  0.00    +0.000 A 
ATOM     16  C   UNL     1       2.652   5.922  19.556  0.00  0.00    +0.000 A 
ATOM     17  C   UNL     1       3.542   5.195  18.655  0.00  0.00    +0.000 A 
ATOM     18  C   UNL     1       4.471   5.452  17.599  0.00  0.00    +0.000 A 
ATOM     19  H   UNL     1       1.879   2.832  20.076  0.00  0.00    +0.000 HD
BRANCH  10  22
ATOM     20  N   UNL     1       5.908   4.084  13.313  0.00  0.00    +0.000 N 
ATOM     21  C   UNL     1       4.892   4.172  14.235  0.00  0.00    +0.000 A 
ATOM     22  C   UNL     1       5.482   4.468  15.449  0.00  0.00    +0.000 A 
ATOM     23  C   UNL     1       6.852   4.652  15.099  0.00  0.00    +0.000 A 
ATOM     24  N   UNL     1       7.106   4.444  13.808  0.00  0.00    +0.000 NA
BRANCH  20  26
ATOM     25  C   UNL     1       6.599   2.163  11.882  0.00  0.00    +0.000 C 
ATOM     26  C   UNL     1       5.842   3.488  11.976  0.00  0.00    +0.000 C 
ATOM     27  C   UNL     1       4.385   3.302  11.535  0.00  0.00    +0.000 C 
ENDBRANCH  20  26
ENDBRANCH  10  22
ENDBRANCH   1  16
BRANCH   3  28
ATOM     28  C   UNL     1       0.161   9.722  21.906  0.00  0.00    +0.000 C 
ATOM     29  C   UNL     1      -0.757   8.717  22.624  0.00  0.00    +0.000 C 
BRANCH  28  30
ATOM     30  C   UNL     1      -0.591  11.012  21.545  0.00  0.00    +0.000 A 
ATOM     31  C   UNL     1      -1.217  11.170  20.290  0.00  0.00    +0.000 A 
ATOM     32  C   UNL     1      -1.960  12.314  19.986  0.00  0.00    +0.000 A 
ATOM     33  C   UNL     1      -2.115  13.329  20.925  0.00  0.00    +0.000 A 
ATOM     34  C   UNL     1      -1.521  13.200  22.176  0.00  0.00    +0.000 A 
ATOM     35  C   UNL     1      -0.764  12.059  22.476  0.00  0.00    +0.000 A 
ENDBRANCH  28  30
BRANCH  28  36
ATOM     36  O   UNL     1       1.144  10.055  22.915  0.00  0.00    +0.000 OA
ATOM     37  H   UNL     1       1.106  11.030  22.995  0.00  0.00    +0.000 HD
ENDBRANCH  28  36
ENDBRANCH   3  28
TORSDOF 6
ENDMDL
MODEL 9
REMARK VINA RESULT:      -7.8      3.633      9.832
REMARK  Name = 
REMARK  9 active torsions:
REMARK  status: ('A' for Active; 'I' for Inactive)
REMARK    1  A    between atoms: C_1  and  C_2
REMARK    2  A    between atoms: C_2  and  C_3
REMARK    3  A    between atoms: C_2  and  N_4
REMARK    4  A    between atoms: C_6  and  C_7
REMARK    5  A    between atoms: C_13  and  C_14
REMARK    6  A    between atoms: C_16  and  C_17
REMARK    7  A    between atoms: C_17  and  C_18
REMARK    8  A    between atoms: C_17  and  O_19
REMARK    9  A    between atoms: C_17  and  C_20
REMARK                            x       y       z     vdW  Elec       q    Type
REMARK                         _______ _______ _______ _____ _____    ______ ____
ROOT
ATOM      1  C   UNL     1       0.785   8.987  20.195  0.00  0.00    +0.000 A 
ATOM      2  C   UNL     1       1.422   7.759  20.281  0.00  0.00    +0.000 A 
ATOM      3  C   UNL     1       2.351   7.462  19.282  0.00  0.00    +0.000 A 
ATOM      4  N   UNL     1       2.611   8.352  18.284  0.00  0.00    +0.000 NA
ATOM      5  C   UNL     1       1.950   9.507  18.287  0.00  0.00    +0.000 A 
ATOM      6  N   UNL     1       2.262  10.402  17.284  0.00  0.00    +0.000 N 
ATOM      7  N   UNL     1       1.055   9.867  19.203  0.00  0.00    +0.000 NA
ATOM      8  H   UNL     1       3.167  10.186  16.890  0.00  0.00    +0.000 HD
ATOM      9  H   UNL     1       2.115  11.349  17.605  0.00  0.00    +0.000 HD
ENDROOT
BRANCH   1  16
ATOM     10  C   UNL     1      -1.820  12.991  21.523  0.00  0.00    +0.000 A 
ATOM     11  C   UNL     1      -1.963  12.842  22.906  0.00  0.00    +0.000 A 
ATOM     12  N   UNL     1      -1.613  11.767  23.640  0.00  0.00    +0.000 NA
ATOM     13  C   UNL     1      -0.986  10.839  22.915  0.00  0.00    +0.000 A 
ATOM     14  N   UNL     1      -0.331   9.812  23.514  0.00  0.00    +0.000 N 
ATOM     15  C   UNL     1       0.378   9.123  22.584  0.00  0.00    +0.000 A 
ATOM     16  C   UNL     1       0.037   9.585  21.313  0.00  0.00    +0.000 A 
ATOM     17  C   UNL     1      -0.783  10.774  21.529  0.00  0.00    +0.000 A 
ATOM     18  C   UNL     1      -1.319  11.877  20.794  0.00  0.00    +0.000 A 
ATOM     19  H   UNL     1      -0.259   9.715  24.525  0.00  0.00    +0.000 HD
BRANCH  10  22
ATOM     20  N   UNL     1      -1.605  16.334  20.121  0.00  0.00    +0.000 N 
ATOM     21  C   UNL     1      -1.247  15.008  20.060  0.00  0.00    +0.000 A 
ATOM     22  C   UNL     1      -2.027  14.342  20.985  0.00  0.00    +0.000 A 
ATOM     23  C   UNL     1      -2.903  15.363  21.454  0.00  0.00    +0.000 A 
ATOM     24  N   UNL     1      -2.666  16.559  20.917  0.00  0.00    +0.000 NA
BRANCH  20  26
ATOM     25  C   UNL     1       0.365  17.832  20.418  0.00  0.00    +0.000 C 
ATOM     26  C   UNL     1      -0.865  17.478  19.582  0.00  0.00    +0.000 C 
ATOM     27  C   UNL     1      -0.464  17.229  18.124  0.00  0.00    +0.000 C 
ENDBRANCH  20  26
ENDBRANCH  10  22
ENDBRANCH   1  16
BRANCH   3  28
ATOM     28  C   UNL     1       3.064   6.102  19.106  0.00  0.00    +0.000 C 
ATOM     29  C   UNL     1       3.736   6.064  17.722  0.00  0.00    +0.000 C 
BRANCH  28  30
ATOM     30  C   UNL     1       2.221   4.842  19.357  0.00  0.00    +0.000 A 
ATOM     31  C   UNL     1       1.691   4.090  18.287  0.00  0.00    +0.000 A 
ATOM     32  C   UNL     1       0.983   2.905  18.511  0.00  0.00    +0.000 A 
ATOM     33  C   UNL     1       0.794   2.427  19.803  0.00  0.00    +0.000 A 
ATOM     34  C   UNL     1       1.313   3.138  20.880  0.00  0.00    +0.000 A 
ATOM     35  C   UNL     1       2.010   4.333  20.656  0.00  0.00    +0.000 A 
ENDBRANCH  28  30
BRANCH  28  36
ATOM     36  O   UNL     1       4.185   6.067  20.021  0.00  0.00    +0.000 OA
ATOM     37  H   UNL     1       3.825   5.695  20.852  0.00  0.00    +0.000 HD
ENDBRANCH  28  36
ENDBRANCH   3  28
TORSDOF 6
ENDMDL
