MODEL 1
REMARK VINA RESULT:      -7.9      0.000      0.000
REMARK  Name = 
REMARK  10 active torsions:
REMARK  status: ('A' for Active; 'I' for Inactive)
REMARK    1  A    between atoms: C_1  and  O_2
REMARK    2  A    between atoms: O_2  and  C_3
REMARK    3  A    between atoms: C_8  and  C_9
REMARK    4  A    between atoms: C_9  and  O_10
REMARK    5  A    between atoms: C_9  and  C_11
REMARK    6  A    between atoms: C_9  and  C_17
REMARK    7  A    between atoms: C_17  and  C_18
REMARK    8  A    between atoms: C_17  and  C_19
REMARK    9  A    between atoms: C_23  and  O_24
REMARK   10  A    between atoms: O_24  and  C_25
REMARK                            x       y       z     vdW  Elec       q    Type
REMARK                         _______ _______ _______ _____ _____    ______ ____
ROOT
ATOM      1  C   UNL     1       0.458  10.966  20.435  0.00  0.00    +0.000 A 
ATOM      2  C   UNL     1       0.982  10.479  19.225  0.00  0.00    +0.000 A 
ATOM      3  C   UNL     1       1.511   9.187  19.130  0.00  0.00    +0.000 A 
ATOM      4  C   UNL     1       1.889   8.639  17.897  0.00  0.00    +0.000 A 
ATOM      5  C   UNL     1       2.338   7.319  17.811  0.00  0.00    +0.000 A 
ATOM      6  C   UNL     1       2.470   6.523  18.961  0.00  0.00    +0.000 A 
ATOM      7  C   UNL     1       2.116   7.098  20.198  0.00  0.00    +0.000 A 
ATOM      8  C   UNL     1       1.623   8.407  20.291  0.00  0.00    +0.000 A 
ATOM      9  C   UNL     1       1.206   8.941  21.517  0.00  0.00    +0.000 A 
ATOM     10  C   UNL     1       0.604  10.205  21.604  0.00  0.00    +0.000 A 
ENDROOT
BRANCH   1  12
ATOM     11  C   UNL     1      -1.163  12.380  19.459  0.00  0.00    +0.000 C 
ATOM     12  O   UNL     1      -0.180  12.177  20.477  0.00  0.00    +0.000 OA
ENDBRANCH   1  12
BRANCH  10  13
ATOM     13  O   UNL     1       0.207  10.490  22.883  0.00  0.00    +0.000 OA
ATOM     14  C   UNL     1      -1.177  10.546  23.180  0.00  0.00    +0.000 C 
ENDBRANCH  10  13
BRANCH   6  15
ATOM     15  C   UNL     1       2.872   5.040  18.908  0.00  0.00    +0.000 C 
BRANCH  15  16
ATOM     16  C   UNL     1       4.381   4.930  18.603  0.00  0.00    +0.000 A 
ATOM     17  C   UNL     1       4.850   4.394  17.416  0.00  0.00    +0.000 A 
ATOM     18  C   UNL     1       6.217   4.331  17.269  0.00  0.00    +0.000 A 
ATOM     19  N   UNL     1       7.087   4.772  18.194  0.00  0.00    +0.000 NA
ATOM     20  C   UNL     1       6.543   5.279  19.309  0.00  0.00    +0.000 A 
ATOM     21  N   UNL     1       5.228   5.387  19.567  0.00  0.00    +0.000 NA
ENDBRANCH  15  16
BRANCH  15  22
ATOM     22  C   UNL     1       2.478   4.200  20.175  0.00  0.00    +0.000 C 
ATOM     23  C   UNL     1       0.961   3.949  20.271  0.00  0.00    +0.000 C 
ATOM     24  C   UNL     1       3.171   2.825  20.210  0.00  0.00    +0.000 C 
ENDBRANCH  15  22
BRANCH  15  25
ATOM     25  O   UNL     1       2.145   4.452  17.805  0.00  0.00    +0.000 OA
ATOM     26  H   UNL     1       1.586   3.760  18.216  0.00  0.00    +0.000 HD
ENDBRANCH  15  25
ENDBRANCH   6  15
TORSDOF 6
ENDMDL
MODEL 2
REMARK VINA RESULT:      -7.7      1.711      2.920
REMARK  Name = 
REMARK  10 active torsions:
REMARK  status: ('A' for Active; 'I' for Inactive)
REMARK    1  A    between atoms: C_1  and  O_2
REMARK    2  A    between atoms: O_2  and  C_3
REMARK    3  A    between atoms: C_8  and  C_9
REMARK    4  A    between atoms: C_9  and  O_10
REMARK    5  A    between atoms: C_9  and  C_11
REMARK    6  A    between atoms: C_9  and  C_17
REMARK    7  A    between atoms: C_17  and  C_18
REMARK    8  A    between atoms: C_17  and  C_19
REMARK    9  A    between atoms: C_23  and  O_24
REMARK   10  A    between atoms: O_24  and  C_25
REMARK                            x       y       z     vdW  Elec       q    Type
REMARK                         _______ _______ _______ _____ _____    ______ ____
ROOT
ATOM      1  C   UNL     1      -0.183  10.082  20.217  0.00  0.00    +0.000 A 
ATOM      2  C   UNL     1       0.640  10.034  19.079  0.00  0.00    +0.000 A 
ATOM      3  C   UNL     1       1.530   8.973  18.870  0.00  0.00    +0.000 A 
ATOM      4  C   UNL     1       2.236   8.836  17.667  0.00  0.00    +0.000 A 
ATOM      5  C   UNL     1       3.056   7.727  17.445  0.00  0.00    +0.000 A 
ATOM      6  C   UNL     1       3.234   6.748  18.438  0.00  0.00    +0.000 A 
ATOM      7  C   UNL     1       2.541   6.916  19.653  0.00  0.00    +0.000 A 
ATOM      8  C   UNL     1       1.682   8.002  19.871  0.00  0.00    +0.000 A 
ATOM      9  C   UNL     1       0.944   8.119  21.056  0.00  0.00    +0.000 A 
ATOM     10  C   UNL     1      -0.004   9.136  21.236  0.00  0.00    +0.000 A 
ENDROOT
BRANCH   1  12
ATOM     11  C   UNL     1      -0.669  12.394  20.211  0.00  0.00    +0.000 C 
ATOM     12  O   UNL     1      -1.143  11.051  20.338  0.00  0.00    +0.000 OA
ENDBRANCH   1  12
BRANCH  10  13
ATOM     13  O   UNL     1      -0.660   9.011  22.432  0.00  0.00    +0.000 OA
ATOM     14  C   UNL     1      -0.092   9.591  23.594  0.00  0.00    +0.000 C 
ENDBRANCH  10  13
BRANCH   6  15
ATOM     15  C   UNL     1       4.051   5.466  18.208  0.00  0.00    +0.000 C 
BRANCH  15  16
ATOM     16  C   UNL     1       3.188   4.238  18.569  0.00  0.00    +0.000 A 
ATOM     17  C   UNL     1       1.982   3.983  17.940  0.00  0.00    +0.000 A 
ATOM     18  C   UNL     1       1.294   2.867  18.362  0.00  0.00    +0.000 A 
ATOM     19  N   UNL     1       1.740   2.035  19.317  0.00  0.00    +0.000 NA
ATOM     20  C   UNL     1       2.919   2.358  19.867  0.00  0.00    +0.000 A 
ATOM     21  N   UNL     1       3.676   3.420  19.542  0.00  0.00    +0.000 NA
ENDBRANCH  15  16
BRANCH  15  22
ATOM     22  C   UNL     1       4.679   5.327  16.776  0.00  0.00    +0.000 C 
ATOM     23  C   UNL     1       5.973   6.148  16.614  0.00  0.00    +0.000 C 
ATOM     24  C   UNL     1       5.018   3.867  16.419  0.00  0.00    +0.000 C 
ENDBRANCH  15  22
BRANCH  15  25
ATOM     25  O   UNL     1       5.170   5.517  19.124  0.00  0.00    +0.000 OA
ATOM     26  H   UNL     1       4.783   5.817  19.973  0.00  0.00    +0.000 HD
ENDBRANCH  15  25
ENDBRANCH   6  15
TORSDOF 6
ENDMDL
MODEL 3
REMARK VINA RESULT:      -7.7      0.984      1.009
REMARK  Name = 
REMARK  10 active torsions:
REMARK  status: ('A' for Active; 'I' for Inactive)
REMARK    1  A    between atoms: C_1  and  O_2
REMARK    2  A    between atoms: O_2  and  C_3
REMARK    3  A    between atoms: C_8  and  C_9
REMARK    4  A    between atoms: C_9  and  O_10
REMARK    5  A    between atoms: C_9  and  C_11
REMARK    6  A    between atoms: C_9  and  C_17
REMARK    7  A    between atoms: C_17  and  C_18
REMARK    8  A    between atoms: C_17  and  C_19
REMARK    9  A    between atoms: C_23  and  O_24
REMARK   10  A    between atoms: O_24  and  C_25
REMARK                            x       y       z     vdW  Elec       q    Type
REMARK                         _______ _______ _______ _____ _____    ______ ____
ROOT
ATOM      1  C   UNL     1       0.237  10.156  20.070  0.00  0.00    +0.000 A 
ATOM      2  C   UNL     1       1.112   9.907  18.999  0.00  0.00    +0.000 A 
ATOM      3  C   UNL     1       1.804   8.695  18.892  0.00  0.00    +0.000 A 
ATOM      4  C   UNL     1       2.553   8.377  17.751  0.00  0.00    +0.000 A 
ATOM      5  C   UNL     1       3.168   7.129  17.628  0.00  0.00    +0.000 A 
ATOM      6  C   UNL     1       3.097   6.181  18.663  0.00  0.00    +0.000 A 
ATOM      7  C   UNL     1       2.366   6.527  19.817  0.00  0.00    +0.000 A 
ATOM      8  C   UNL     1       1.707   7.759  19.934  0.00  0.00    +0.000 A 
ATOM      9  C   UNL     1       0.925   8.062  21.055  0.00  0.00    +0.000 A 
ATOM     10  C   UNL     1       0.170   9.240  21.130  0.00  0.00    +0.000 A 
ENDROOT
BRANCH   1  12
ATOM     11  C   UNL     1      -1.283  11.528  18.893  0.00  0.00    +0.000 C 
ATOM     12  O   UNL     1      -0.535  11.287  20.087  0.00  0.00    +0.000 OA
ENDBRANCH   1  12
BRANCH  10  13
ATOM     13  O   UNL     1      -0.577   9.292  22.278  0.00  0.00    +0.000 OA
ATOM     14  C   UNL     1       0.071   9.545  23.512  0.00  0.00    +0.000 C 
ENDBRANCH  10  13
BRANCH   6  15
ATOM     15  C   UNL     1       3.679   4.763  18.537  0.00  0.00    +0.000 C 
BRANCH  15  16
ATOM     16  C   UNL     1       5.191   4.856  18.241  0.00  0.00    +0.000 A 
ATOM     17  C   UNL     1       5.732   4.400  17.051  0.00  0.00    +0.000 A 
ATOM     18  C   UNL     1       7.097   4.520  16.913  0.00  0.00    +0.000 A 
ATOM     19  N   UNL     1       7.896   5.060  17.848  0.00  0.00    +0.000 NA
ATOM     20  C   UNL     1       7.284   5.479  18.965  0.00  0.00    +0.000 A 
ATOM     21  N   UNL     1       5.966   5.409  19.215  0.00  0.00    +0.000 NA
ENDBRANCH  15  16
BRANCH  15  22
ATOM     22  C   UNL     1       3.389   3.817  19.756  0.00  0.00    +0.000 C 
ATOM     23  C   UNL     1       1.949   3.267  19.749  0.00  0.00    +0.000 C 
ATOM     24  C   UNL     1       4.339   2.605  19.801  0.00  0.00    +0.000 C 
ENDBRANCH  15  22
BRANCH  15  25
ATOM     25  O   UNL     1       3.033   4.148  17.399  0.00  0.00    +0.000 OA
ATOM     26  H   UNL     1       3.670   3.472  17.087  0.00  0.00    +0.000 HD
ENDBRANCH  15  25
ENDBRANCH   6  15
TORSDOF 6
ENDMDL
MODEL 4
REMARK VINA RESULT:      -7.5      1.847      3.017
REMARK  Name = 
REMARK  10 active torsions:
REMARK  status: ('A' for Active; 'I' for Inactive)
REMARK    1  A    between atoms: C_1  and  O_2
REMARK    2  A    between atoms: O_2  and  C_3
REMARK    3  A    between atoms: C_8  and  C_9
REMARK    4  A    between atoms: C_9  and  O_10
REMARK    5  A    between atoms: C_9  and  C_11
REMARK    6  A    between atoms: C_9  and  C_17
REMARK    7  A    between atoms: C_17  and  C_18
REMARK    8  A    between atoms: C_17  and  C_19
REMARK    9  A    between atoms: C_23  and  O_24
REMARK   10  A    between atoms: O_24  and  C_25
REMARK                            x       y       z     vdW  Elec       q    Type
REMARK                         _______ _______ _______ _____ _____    ______ ____
ROOT
ATOM      1  C   UNL     1      -0.238  10.331  20.189  0.00  0.00    +0.000 A 
ATOM      2  C   UNL     1       0.577  10.208  19.051  0.00  0.00    +0.000 A 
ATOM      3  C   UNL     1       1.445   9.121  18.892  0.00  0.00    +0.000 A 
ATOM      4  C   UNL     1       2.141   8.908  17.695  0.00  0.00    +0.000 A 
ATOM      5  C   UNL     1       2.937   7.774  17.526  0.00  0.00    +0.000 A 
ATOM      6  C   UNL     1       3.103   6.844  18.566  0.00  0.00    +0.000 A 
ATOM      7  C   UNL     1       2.421   7.087  19.775  0.00  0.00    +0.000 A 
ATOM      8  C   UNL     1       1.584   8.200  19.941  0.00  0.00    +0.000 A 
ATOM      9  C   UNL     1       0.856   8.391  21.122  0.00  0.00    +0.000 A 
ATOM     10  C   UNL     1      -0.071   9.435  21.255  0.00  0.00    +0.000 A 
ENDROOT
BRANCH   1  12
ATOM     11  C   UNL     1      -1.915  11.554  19.062  0.00  0.00    +0.000 C 
ATOM     12  O   UNL     1      -1.178  11.324  20.265  0.00  0.00    +0.000 OA
ENDBRANCH   1  12
BRANCH  10  13
ATOM     13  O   UNL     1      -0.722   9.385  22.459  0.00  0.00    +0.000 OA
ATOM     14  C   UNL     1       0.023   9.550  23.653  0.00  0.00    +0.000 C 
ENDBRANCH  10  13
BRANCH   6  15
ATOM     15  C   UNL     1       3.894   5.536  18.399  0.00  0.00    +0.000 C 
BRANCH  15  16
ATOM     16  C   UNL     1       2.992   4.341  18.778  0.00  0.00    +0.000 A 
ATOM     17  C   UNL     1       3.290   3.511  19.845  0.00  0.00    +0.000 A 
ATOM     18  C   UNL     1       2.420   2.468  20.071  0.00  0.00    +0.000 A 
ATOM     19  N   UNL     1       1.321   2.241  19.333  0.00  0.00    +0.000 NA
ATOM     20  C   UNL     1       1.111   3.099  18.324  0.00  0.00    +0.000 A 
ATOM     21  N   UNL     1       1.889   4.147  18.004  0.00  0.00    +0.000 NA
ENDBRANCH  15  16
BRANCH  15  22
ATOM     22  C   UNL     1       4.552   5.335  16.987  0.00  0.00    +0.000 C 
ATOM     23  C   UNL     1       5.870   6.118  16.831  0.00  0.00    +0.000 C 
ATOM     24  C   UNL     1       4.862   3.856  16.686  0.00  0.00    +0.000 C 
ENDBRANCH  15  22
BRANCH  15  25
ATOM     25  O   UNL     1       4.991   5.590  19.340  0.00  0.00    +0.000 OA
ATOM     26  H   UNL     1       5.180   6.546  19.446  0.00  0.00    +0.000 HD
ENDBRANCH  15  25
ENDBRANCH   6  15
TORSDOF 6
ENDMDL
MODEL 5
REMARK VINA RESULT:      -7.3      1.616      2.926
REMARK  Name = 
REMARK  10 active torsions:
REMARK  status: ('A' for Active; 'I' for Inactive)
REMARK    1  A    between atoms: C_1  and  O_2
REMARK    2  A    between atoms: O_2  and  C_3
REMARK    3  A    between atoms: C_8  and  C_9
REMARK    4  A    between atoms: C_9  and  O_10
REMARK    5  A    between atoms: C_9  and  C_11
REMARK    6  A    between atoms: C_9  and  C_17
REMARK    7  A    between atoms: C_17  and  C_18
REMARK    8  A    between atoms: C_17  and  C_19
REMARK    9  A    between atoms: C_23  and  O_24
REMARK   10  A    between atoms: O_24  and  C_25
REMARK                            x       y       z     vdW  Elec       q    Type
REMARK                         _______ _______ _______ _____ _____    ______ ____
ROOT
ATOM      1  C   UNL     1      -0.159  10.761  19.748  0.00  0.00    +0.000 A 
ATOM      2  C   UNL     1       0.642  10.361  18.665  0.00  0.00    +0.000 A 
ATOM      3  C   UNL     1       1.433   9.208  18.733  0.00  0.00    +0.000 A 
ATOM      4  C   UNL     1       2.109   8.716  17.609  0.00  0.00    +0.000 A 
ATOM      5  C   UNL     1       2.826   7.519  17.676  0.00  0.00    +0.000 A 
ATOM      6  C   UNL     1       2.932   6.805  18.881  0.00  0.00    +0.000 A 
ATOM      7  C   UNL     1       2.272   7.329  20.011  0.00  0.00    +0.000 A 
ATOM      8  C   UNL     1       1.513   8.505  19.945  0.00  0.00    +0.000 A 
ATOM      9  C   UNL     1       0.804   8.975  21.058  0.00  0.00    +0.000 A 
ATOM     10  C   UNL     1      -0.050  10.084  20.972  0.00  0.00    +0.000 A 
ENDROOT
BRANCH   1  12
ATOM     11  C   UNL     1      -0.460  13.008  19.083  0.00  0.00    +0.000 C 
ATOM     12  O   UNL     1      -1.030  11.810  19.617  0.00  0.00    +0.000 OA
ENDBRANCH   1  12
BRANCH  10  13
ATOM     13  O   UNL     1      -0.698  10.318  22.156  0.00  0.00    +0.000 OA
ATOM     14  C   UNL     1      -0.270   9.638  23.323  0.00  0.00    +0.000 C 
ENDBRANCH  10  13
BRANCH   6  15
ATOM     15  C   UNL     1       3.632   5.440  18.984  0.00  0.00    +0.000 C 
BRANCH  15  16
ATOM     16  C   UNL     1       2.693   4.436  19.686  0.00  0.00    +0.000 A 
ATOM     17  C   UNL     1       1.397   4.219  19.250  0.00  0.00    +0.000 A 
ATOM     18  C   UNL     1       0.652   3.313  19.971  0.00  0.00    +0.000 A 
ATOM     19  N   UNL     1       1.121   2.641  21.036  0.00  0.00    +0.000 NA
ATOM     20  C   UNL     1       2.388   2.912  21.382  0.00  0.00    +0.000 A 
ATOM     21  N   UNL     1       3.208   3.776  20.761  0.00  0.00    +0.000 NA
ENDBRANCH  15  16
BRANCH  15  22
ATOM     22  C   UNL     1       4.173   4.868  17.625  0.00  0.00    +0.000 C 
ATOM     23  C   UNL     1       5.696   4.637  17.644  0.00  0.00    +0.000 C 
ATOM     24  C   UNL     1       3.514   3.528  17.245  0.00  0.00    +0.000 C 
ENDBRANCH  15  22
BRANCH  15  25
ATOM     25  O   UNL     1       4.796   5.631  19.821  0.00  0.00    +0.000 OA
ATOM     26  H   UNL     1       4.771   6.579  20.069  0.00  0.00    +0.000 HD
ENDBRANCH  15  25
ENDBRANCH   6  15
TORSDOF 6
ENDMDL
MODEL 6
REMARK VINA RESULT:      -7.2      1.850      3.172
REMARK  Name = 
REMARK  10 active torsions:
REMARK  status: ('A' for Active; 'I' for Inactive)
REMARK    1  A    between atoms: C_1  and  O_2
REMARK    2  A    between atoms: O_2  and  C_3
REMARK    3  A    between atoms: C_8  and  C_9
REMARK    4  A    between atoms: C_9  and  O_10
REMARK    5  A    between atoms: C_9  and  C_11
REMARK    6  A    between atoms: C_9  and  C_17
REMARK    7  A    between atoms: C_17  and  C_18
REMARK    8  A    between atoms: C_17  and  C_19
REMARK    9  A    between atoms: C_23  and  O_24
REMARK   10  A    between atoms: O_24  and  C_25
REMARK                            x       y       z     vdW  Elec       q    Type
REMARK                         _______ _______ _______ _____ _____    ______ ____
ROOT
ATOM      1  C   UNL     1       0.362   9.722  20.403  0.00  0.00    +0.000 A 
ATOM      2  C   UNL     1       0.832   8.434  20.713  0.00  0.00    +0.000 A 
ATOM      3  C   UNL     1       1.722   7.762  19.867  0.00  0.00    +0.000 A 
ATOM      4  C   UNL     1       2.317   6.551  20.243  0.00  0.00    +0.000 A 
ATOM      5  C   UNL     1       3.265   5.937  19.422  0.00  0.00    +0.000 A 
ATOM      6  C   UNL     1       3.611   6.489  18.177  0.00  0.00    +0.000 A 
ATOM      7  C   UNL     1       2.982   7.692  17.799  0.00  0.00    +0.000 A 
ATOM      8  C   UNL     1       2.061   8.340  18.634  0.00  0.00    +0.000 A 
ATOM      9  C   UNL     1       1.498   9.572  18.277  0.00  0.00    +0.000 A 
ATOM     10  C   UNL     1       0.667  10.284  19.154  0.00  0.00    +0.000 A 
ENDROOT
BRANCH   1  12
ATOM     11  C   UNL     1      -0.230  10.027  22.669  0.00  0.00    +0.000 C 
ATOM     12  O   UNL     1      -0.397  10.419  21.304  0.00  0.00    +0.000 OA
ENDBRANCH   1  12
BRANCH  10  13
ATOM     13  O   UNL     1       0.295  11.493  18.630  0.00  0.00    +0.000 OA
ATOM     14  C   UNL     1       1.053  12.647  18.951  0.00  0.00    +0.000 C 
ENDBRANCH  10  13
BRANCH   6  15
ATOM     15  C   UNL     1       4.713   5.902  17.281  0.00  0.00    +0.000 C 
BRANCH  15  16
ATOM     16  C   UNL     1       6.093   6.363  17.799  0.00  0.00    +0.000 A 
ATOM     17  C   UNL     1       6.770   5.670  18.788  0.00  0.00    +0.000 A 
ATOM     18  C   UNL     1       7.984   6.190  19.179  0.00  0.00    +0.000 A 
ATOM     19  N   UNL     1       8.526   7.298  18.646  0.00  0.00    +0.000 NA
ATOM     20  C   UNL     1       7.801   7.899  17.692  0.00  0.00    +0.000 A 
ATOM     21  N   UNL     1       6.607   7.489  17.232  0.00  0.00    +0.000 NA
ENDBRANCH  15  16
BRANCH  15  22
ATOM     22  C   UNL     1       4.659   4.344  17.097  0.00  0.00    +0.000 C 
ATOM     23  C   UNL     1       3.219   3.813  16.959  0.00  0.00    +0.000 C 
ATOM     24  C   UNL     1       5.441   3.867  15.858  0.00  0.00    +0.000 C 
ENDBRANCH  15  22
BRANCH  15  25
ATOM     25  O   UNL     1       4.517   6.460  15.961  0.00  0.00    +0.000 OA
ATOM     26  H   UNL     1       4.260   5.697  15.403  0.00  0.00    +0.000 HD
ENDBRANCH  15  25
ENDBRANCH   6  15
TORSDOF 6
ENDMDL
MODEL 7
REMARK VINA RESULT:      -7.2      1.449      2.723
REMARK  Name = 
REMARK  10 active torsions:
REMARK  status: ('A' for Active; 'I' for Inactive)
REMARK    1  A    between atoms: C_1  and  O_2
REMARK    2  A    between atoms: O_2  and  C_3
REMARK    3  A    between atoms: C_8  and  C_9
REMARK    4  A    between atoms: C_9  and  O_10
REMARK    5  A    between atoms: C_9  and  C_11
REMARK    6  A    between atoms: C_9  and  C_17
REMARK    7  A    between atoms: C_17  and  C_18
REMARK    8  A    between atoms: C_17  and  C_19
REMARK    9  A    between atoms: C_23  and  O_24
REMARK   10  A    between atoms: O_24  and  C_25
REMARK                            x       y       z     vdW  Elec       q    Type
REMARK                         _______ _______ _______ _____ _____    ______ ____
ROOT
ATOM      1  C   UNL     1       1.278   9.679  20.097  0.00  0.00    +0.000 A 
ATOM      2  C   UNL     1       1.299   8.448  20.774  0.00  0.00    +0.000 A 
ATOM      3  C   UNL     1       1.717   7.274  20.136  0.00  0.00    +0.000 A 
ATOM      4  C   UNL     1       1.891   6.078  20.844  0.00  0.00    +0.000 A 
ATOM      5  C   UNL     1       2.388   4.938  20.206  0.00  0.00    +0.000 A 
ATOM      6  C   UNL     1       2.677   4.947  18.831  0.00  0.00    +0.000 A 
ATOM      7  C   UNL     1       2.468   6.149  18.126  0.00  0.00    +0.000 A 
ATOM      8  C   UNL     1       2.011   7.311  18.764  0.00  0.00    +0.000 A 
ATOM      9  C   UNL     1       1.877   8.518  18.067  0.00  0.00    +0.000 A 
ATOM     10  C   UNL     1       1.534   9.711  18.719  0.00  0.00    +0.000 A 
ENDROOT
BRANCH   1  12
ATOM     11  C   UNL     1      -0.221  10.828  21.516  0.00  0.00    +0.000 C 
ATOM     12  O   UNL     1       1.000  10.838  20.773  0.00  0.00    +0.000 OA
ENDBRANCH   1  12
BRANCH  10  13
ATOM     13  O   UNL     1       1.535  10.777  17.858  0.00  0.00    +0.000 OA
ATOM     14  C   UNL     1       2.461  11.829  18.065  0.00  0.00    +0.000 C 
ENDBRANCH  10  13
BRANCH   6  15
ATOM     15  C   UNL     1       3.310   3.749  18.104  0.00  0.00    +0.000 C 
BRANCH  15  16
ATOM     16  C   UNL     1       4.751   4.110  17.682  0.00  0.00    +0.000 A 
ATOM     17  C   UNL     1       5.124   4.188  16.352  0.00  0.00    +0.000 A 
ATOM     18  C   UNL     1       6.442   4.500  16.102  0.00  0.00    +0.000 A 
ATOM     19  N   UNL     1       7.346   4.740  17.067  0.00  0.00    +0.000 NA
ATOM     20  C   UNL     1       6.893   4.646  18.325  0.00  0.00    +0.000 A 
ATOM     21  N   UNL     1       5.636   4.345  18.690  0.00  0.00    +0.000 NA
ENDBRANCH  15  16
BRANCH  15  22
ATOM     22  C   UNL     1       3.266   2.393  18.896  0.00  0.00    +0.000 C 
ATOM     23  C   UNL     1       1.828   1.931  19.199  0.00  0.00    +0.000 C 
ATOM     24  C   UNL     1       3.963   1.245  18.141  0.00  0.00    +0.000 C 
ENDBRANCH  15  22
BRANCH  15  25
ATOM     25  O   UNL     1       2.530   3.530  16.906  0.00  0.00    +0.000 OA
ATOM     26  H   UNL     1       3.114   3.002  16.322  0.00  0.00    +0.000 HD
ENDBRANCH  15  25
ENDBRANCH   6  15
TORSDOF 6
ENDMDL
MODEL 8
REMARK VINA RESULT:      -7.0      1.489      2.681
REMARK  Name = 
REMARK  10 active torsions:
REMARK  status: ('A' for Active; 'I' for Inactive)
REMARK    1  A    between atoms: C_1  and  O_2
REMARK    2  A    between atoms: O_2  and  C_3
REMARK    3  A    between atoms: C_8  and  C_9
REMARK    4  A    between atoms: C_9  and  O_10
REMARK    5  A    between atoms: C_9  and  C_11
REMARK    6  A    between atoms: C_9  and  C_17
REMARK    7  A    between atoms: C_17  and  C_18
REMARK    8  A    between atoms: C_17  and  C_19
REMARK    9  A    between atoms: C_23  and  O_24
REMARK   10  A    between atoms: O_24  and  C_25
REMARK                            x       y       z     vdW  Elec       q    Type
REMARK                         _______ _______ _______ _____ _____    ______ ____
ROOT
ATOM      1  C   UNL     1       1.168  10.024  20.463  0.00  0.00    +0.000 A 
ATOM      2  C   UNL     1       1.181   8.773  21.103  0.00  0.00    +0.000 A 
ATOM      3  C   UNL     1       1.529   7.606  20.412  0.00  0.00    +0.000 A 
ATOM      4  C   UNL     1       1.698   6.385  21.076  0.00  0.00    +0.000 A 
ATOM      5  C   UNL     1       2.126   5.250  20.384  0.00  0.00    +0.000 A 
ATOM      6  C   UNL     1       2.350   5.290  18.997  0.00  0.00    +0.000 A 
ATOM      7  C   UNL     1       2.147   6.518  18.337  0.00  0.00    +0.000 A 
ATOM      8  C   UNL     1       1.759   7.675  19.029  0.00  0.00    +0.000 A 
ATOM      9  C   UNL     1       1.632   8.905  18.374  0.00  0.00    +0.000 A 
ATOM     10  C   UNL     1       1.359  10.089  19.075  0.00  0.00    +0.000 A 
ENDROOT
BRANCH   1  12
ATOM     11  C   UNL     1      -0.409  11.468  21.465  0.00  0.00    +0.000 C 
ATOM     12  O   UNL     1       0.960  11.170  21.183  0.00  0.00    +0.000 OA
ENDBRANCH   1  12
BRANCH  10  13
ATOM     13  O   UNL     1       1.354  11.179  18.246  0.00  0.00    +0.000 OA
ATOM     14  C   UNL     1       2.530  11.960  18.126  0.00  0.00    +0.000 C 
ENDBRANCH  10  13
BRANCH   6  15
ATOM     15  C   UNL     1       2.908   4.095  18.207  0.00  0.00    +0.000 C 
BRANCH  15  16
ATOM     16  C   UNL     1       4.385   4.365  17.847  0.00  0.00    +0.000 A 
ATOM     17  C   UNL     1       5.316   4.731  18.805  0.00  0.00    +0.000 A 
ATOM     18  C   UNL     1       6.597   4.963  18.358  0.00  0.00    +0.000 A 
ATOM     19  N   UNL     1       6.972   4.838  17.074  0.00  0.00    +0.000 NA
ATOM     20  C   UNL     1       6.005   4.475  16.218  0.00  0.00    +0.000 A 
ATOM     21  N   UNL     1       4.723   4.227  16.535  0.00  0.00    +0.000 NA
ENDBRANCH  15  16
BRANCH  15  22
ATOM     22  C   UNL     1       2.733   2.699  18.904  0.00  0.00    +0.000 C 
ATOM     23  C   UNL     1       1.266   2.226  18.923  0.00  0.00    +0.000 C 
ATOM     24  C   UNL     1       3.559   1.591  18.223  0.00  0.00    +0.000 C 
ENDBRANCH  15  22
BRANCH  15  25
ATOM     25  O   UNL     1       2.151   4.019  16.978  0.00  0.00    +0.000 OA
ATOM     26  H   UNL     1       1.754   4.909  16.874  0.00  0.00    +0.000 HD
ENDBRANCH  15  25
ENDBRANCH   6  15
TORSDOF 6
ENDMDL
MODEL 9
REMARK VINA RESULT:      -7.0      1.889      2.985
REMARK  Name = 
REMARK  10 active torsions:
REMARK  status: ('A' for Active; 'I' for Inactive)
REMARK    1  A    between atoms: C_1  and  O_2
REMARK    2  A    between atoms: O_2  and  C_3
REMARK    3  A    between atoms: C_8  and  C_9
REMARK    4  A    between atoms: C_9  and  O_10
REMARK    5  A    between atoms: C_9  and  C_11
REMARK    6  A    between atoms: C_9  and  C_17
REMARK    7  A    between atoms: C_17  and  C_18
REMARK    8  A    between atoms: C_17  and  C_19
REMARK    9  A    between atoms: C_23  and  O_24
REMARK   10  A    between atoms: O_24  and  C_25
REMARK                            x       y       z     vdW  Elec       q    Type
REMARK                         _______ _______ _______ _____ _____    ______ ____
ROOT
ATOM      1  C   UNL     1      -0.084   9.928  19.935  0.00  0.00    +0.000 A 
ATOM      2  C   UNL     1       0.798   9.817  18.847  0.00  0.00    +0.000 A 
ATOM      3  C   UNL     1       1.739   8.782  18.776  0.00  0.00    +0.000 A 
ATOM      4  C   UNL     1       2.511   8.573  17.626  0.00  0.00    +0.000 A 
ATOM      5  C   UNL     1       3.384   7.485  17.542  0.00  0.00    +0.000 A 
ATOM      6  C   UNL     1       3.548   6.604  18.624  0.00  0.00    +0.000 A 
ATOM      7  C   UNL     1       2.787   6.846  19.785  0.00  0.00    +0.000 A 
ATOM      8  C   UNL     1       1.876   7.908  19.865  0.00  0.00    +0.000 A 
ATOM      9  C   UNL     1       1.073   8.093  20.997  0.00  0.00    +0.000 A 
ATOM     10  C   UNL     1       0.078   9.080  21.041  0.00  0.00    +0.000 A 
ENDROOT
BRANCH   1  12
ATOM     11  C   UNL     1      -1.908  10.853  18.754  0.00  0.00    +0.000 C 
ATOM     12  O   UNL     1      -1.086  10.861  19.924  0.00  0.00    +0.000 OA
ENDBRANCH   1  12
BRANCH  10  13
ATOM     13  O   UNL     1      -0.634   9.031  22.211  0.00  0.00    +0.000 OA
ATOM     14  C   UNL     1      -0.309   9.932  23.255  0.00  0.00    +0.000 C 
ENDBRANCH  10  13
BRANCH   6  15
ATOM     15  C   UNL     1       4.426   5.344  18.548  0.00  0.00    +0.000 C 
BRANCH  15  16
ATOM     16  C   UNL     1       3.522   4.099  18.419  0.00  0.00    +0.000 A 
ATOM     17  C   UNL     1       2.170   4.203  18.139  0.00  0.00    +0.000 A 
ATOM     18  C   UNL     1       1.466   3.022  18.068  0.00  0.00    +0.000 A 
ATOM     19  N   UNL     1       2.024   1.811  18.237  0.00  0.00    +0.000 NA
ATOM     20  C   UNL     1       3.339   1.808  18.498  0.00  0.00    +0.000 A 
ATOM     21  N   UNL     1       4.126   2.892  18.597  0.00  0.00    +0.000 NA
ENDBRANCH  15  16
BRANCH  15  22
ATOM     22  C   UNL     1       5.530   5.371  17.432  0.00  0.00    +0.000 C 
ATOM     23  C   UNL     1       4.937   5.366  16.011  0.00  0.00    +0.000 C 
ATOM     24  C   UNL     1       6.447   6.605  17.538  0.00  0.00    +0.000 C 
ENDBRANCH  15  22
BRANCH  15  25
ATOM     25  O   UNL     1       5.138   5.257  19.804  0.00  0.00    +0.000 OA
ATOM     26  H   UNL     1       5.803   5.975  19.764  0.00  0.00    +0.000 HD
ENDBRANCH  15  25
ENDBRANCH   6  15
TORSDOF 6
ENDMDL
