MODEL 1
REMARK VINA RESULT:      -8.3      0.000      0.000
REMARK  Name = 
REMARK  4 active torsions:
REMARK  status: ('A' for Active; 'I' for Inactive)
REMARK    1  A    between atoms: C_2  and  C_5
REMARK    2  A    between atoms: N_3  and  O_4
REMARK    3  A    between atoms: N_12  and  S_13
REMARK    4  A    between atoms: S_13  and  C_16
REMARK                            x       y       z     vdW  Elec       q    Type
REMARK                         _______ _______ _______ _____ _____    ______ ____
ROOT
ATOM      1  C   UNL     1       0.241  10.042  21.254  0.00  0.00    +0.000 A 
ATOM      2  C   UNL     1       0.463  10.258  19.912  0.00  0.00    +0.000 A 
ATOM      3  N   UNL     1       1.236   9.308  19.274  0.00  0.00    +0.000 NA
ATOM      4  C   UNL     1       1.549   8.331  20.097  0.00  0.00    +0.000 A 
ATOM      5  N   UNL     1       2.238   7.227  19.709  0.00  0.00    +0.000 N 
ATOM      6  C   UNL     1       2.166   5.951  20.423  0.00  0.00    +0.000 C 
ATOM      7  C   UNL     1       2.012   4.779  19.431  0.00  0.00    +0.000 C 
ATOM      8  N   UNL     1       3.027   4.809  18.330  0.00  0.00    +0.000 NA
ATOM      9  C   UNL     1       2.949   6.129  17.615  0.00  0.00    +0.000 C 
ATOM     10  C   UNL     1       3.164   7.312  18.572  0.00  0.00    +0.000 C 
ATOM     11  S   UNL     1       1.002   8.588  21.719  0.00  0.00    +0.000 S 
ENDROOT
BRANCH   1  13
ATOM     12  O   UNL     1      -0.482  10.746  23.385  0.00  0.00    +0.000 OA
ATOM     13  C   UNL     1      -0.527  10.860  22.159  0.00  0.00    +0.000 C 
ATOM     14  N   UNL     1      -1.360  11.797  21.584  0.00  0.00    +0.000 N 
ATOM     15  H   UNL     1      -1.581  11.810  20.596  0.00  0.00    +0.000 HD
BRANCH  14  16
ATOM     16  O   UNL     1      -2.197  12.531  22.450  0.00  0.00    +0.000 OA
ATOM     17  H   UNL     1      -3.072  12.105  22.314  0.00  0.00    +0.000 HD
ENDBRANCH  14  16
ENDBRANCH   1  13
BRANCH   8  18
ATOM     18  S   UNL     1       4.608   4.309  18.732  0.00  0.00    +0.000 S 
ATOM     19  O   UNL     1       5.135   5.231  19.712  0.00  0.00    +0.000 OA
ATOM     20  O   UNL     1       4.581   2.884  18.986  0.00  0.00    +0.000 OA
BRANCH  18  21
ATOM     21  C   UNL     1       5.498   4.580  17.221  0.00  0.00    +0.000 A 
ATOM     22  C   UNL     1       6.610   5.422  17.203  0.00  0.00    +0.000 A 
ATOM     23  C   UNL     1       7.301   5.616  16.006  0.00  0.00    +0.000 A 
ATOM     24  C   UNL     1       6.898   4.961  14.830  0.00  0.00    +0.000 A 
ATOM     25  C   UNL     1       7.596   5.135  13.624  0.00  0.00    +0.000 A 
ATOM     26  C   UNL     1       7.205   4.455  12.470  0.00  0.00    +0.000 A 
ATOM     27  C   UNL     1       6.106   3.601  12.503  0.00  0.00    +0.000 A 
ATOM     28  C   UNL     1       5.388   3.432  13.688  0.00  0.00    +0.000 A 
ATOM     29  C   UNL     1       5.772   4.103  14.860  0.00  0.00    +0.000 A 
ATOM     30  C   UNL     1       5.069   3.930  16.060  0.00  0.00    +0.000 A 
ENDBRANCH  18  21
ENDBRANCH   8  18
TORSDOF 4
ENDMDL
MODEL 2
REMARK VINA RESULT:      -7.8      3.047     11.040
REMARK  Name = 
REMARK  4 active torsions:
REMARK  status: ('A' for Active; 'I' for Inactive)
REMARK    1  A    between atoms: C_2  and  C_5
REMARK    2  A    between atoms: N_3  and  O_4
REMARK    3  A    between atoms: N_12  and  S_13
REMARK    4  A    between atoms: S_13  and  C_16
REMARK                            x       y       z     vdW  Elec       q    Type
REMARK                         _______ _______ _______ _____ _____    ______ ____
ROOT
ATOM      1  C   UNL     1       3.941   5.705  17.677  0.00  0.00    +0.000 A 
ATOM      2  C   UNL     1       3.206   5.015  18.616  0.00  0.00    +0.000 A 
ATOM      3  N   UNL     1       2.432   5.791  19.455  0.00  0.00    +0.000 NA
ATOM      4  C   UNL     1       2.511   7.062  19.124  0.00  0.00    +0.000 A 
ATOM      5  N   UNL     1       1.788   8.034  19.735  0.00  0.00    +0.000 N 
ATOM      6  C   UNL     1       1.474   9.314  19.098  0.00  0.00    +0.000 C 
ATOM      7  C   UNL     1      -0.006   9.686  19.324  0.00  0.00    +0.000 C 
ATOM      8  N   UNL     1      -0.416   9.602  20.763  0.00  0.00    +0.000 NA
ATOM      9  C   UNL     1      -0.126   8.221  21.284  0.00  0.00    +0.000 C 
ATOM     10  C   UNL     1       1.357   7.851  21.128  0.00  0.00    +0.000 C 
ATOM     11  S   UNL     1       3.627   7.374  17.837  0.00  0.00    +0.000 S 
ENDROOT
BRANCH   1  13
ATOM     12  O   UNL     1       5.195   5.778  15.681  0.00  0.00    +0.000 OA
ATOM     13  C   UNL     1       4.825   5.157  16.678  0.00  0.00    +0.000 C 
ATOM     14  N   UNL     1       5.241   3.856  16.874  0.00  0.00    +0.000 N 
ATOM     15  H   UNL     1       4.827   3.239  17.561  0.00  0.00    +0.000 HD
BRANCH  14  16
ATOM     16  O   UNL     1       6.017   3.270  15.853  0.00  0.00    +0.000 OA
ATOM     17  H   UNL     1       5.342   2.800  15.314  0.00  0.00    +0.000 HD
ENDBRANCH  14  16
ENDBRANCH   1  13
BRANCH   8  18
ATOM     18  S   UNL     1       0.099  10.870  21.783  0.00  0.00    +0.000 S 
ATOM     19  O   UNL     1       0.369  10.314  23.089  0.00  0.00    +0.000 OA
ATOM     20  O   UNL     1       1.102  11.639  21.077  0.00  0.00    +0.000 OA
BRANCH  18  21
ATOM     21  C   UNL     1      -1.360  11.870  21.925  0.00  0.00    +0.000 A 
ATOM     22  C   UNL     1      -1.715  12.744  20.898  0.00  0.00    +0.000 A 
ATOM     23  C   UNL     1      -2.870  13.517  21.026  0.00  0.00    +0.000 A 
ATOM     24  C   UNL     1      -3.683  13.409  22.167  0.00  0.00    +0.000 A 
ATOM     25  C   UNL     1      -4.856  14.168  22.298  0.00  0.00    +0.000 A 
ATOM     26  C   UNL     1      -5.672  14.030  23.423  0.00  0.00    +0.000 A 
ATOM     27  C   UNL     1      -5.320  13.141  24.434  0.00  0.00    +0.000 A 
ATOM     28  C   UNL     1      -4.146  12.393  24.328  0.00  0.00    +0.000 A 
ATOM     29  C   UNL     1      -3.318  12.514  23.202  0.00  0.00    +0.000 A 
ATOM     30  C   UNL     1      -2.144  11.758  23.076  0.00  0.00    +0.000 A 
ENDBRANCH  18  21
ENDBRANCH   8  18
TORSDOF 4
ENDMDL
MODEL 3
REMARK VINA RESULT:      -7.7      0.996      1.068
REMARK  Name = 
REMARK  4 active torsions:
REMARK  status: ('A' for Active; 'I' for Inactive)
REMARK    1  A    between atoms: C_2  and  C_5
REMARK    2  A    between atoms: N_3  and  O_4
REMARK    3  A    between atoms: N_12  and  S_13
REMARK    4  A    between atoms: S_13  and  C_16
REMARK                            x       y       z     vdW  Elec       q    Type
REMARK                         _______ _______ _______ _____ _____    ______ ____
ROOT
ATOM      1  C   UNL     1       0.804  10.104  20.906  0.00  0.00    +0.000 A 
ATOM      2  C   UNL     1       1.012  10.109  19.545  0.00  0.00    +0.000 A 
ATOM      3  N   UNL     1       1.567   8.958  19.020  0.00  0.00    +0.000 NA
ATOM      4  C   UNL     1       1.721   8.046  19.956  0.00  0.00    +0.000 A 
ATOM      5  N   UNL     1       2.173   6.792  19.701  0.00  0.00    +0.000 N 
ATOM      6  C   UNL     1       1.889   5.649  20.571  0.00  0.00    +0.000 C 
ATOM      7  C   UNL     1       1.478   4.418  19.737  0.00  0.00    +0.000 C 
ATOM      8  N   UNL     1       2.438   4.118  18.627  0.00  0.00    +0.000 NA
ATOM      9  C   UNL     1       2.584   5.332  17.752  0.00  0.00    +0.000 C 
ATOM     10  C   UNL     1       3.055   6.558  18.549  0.00  0.00    +0.000 C 
ATOM     11  S   UNL     1       1.294   8.598  21.540  0.00  0.00    +0.000 S 
ENDROOT
BRANCH   1  13
ATOM     12  O   UNL     1       0.615  12.330  21.662  0.00  0.00    +0.000 OA
ATOM     13  C   UNL     1       0.240  11.158  21.712  0.00  0.00    +0.000 C 
ATOM     14  N   UNL     1      -0.759  10.791  22.590  0.00  0.00    +0.000 N 
ATOM     15  H   UNL     1      -0.977   9.827  22.812  0.00  0.00    +0.000 HD
BRANCH  14  16
ATOM     16  O   UNL     1      -1.246  11.787  23.461  0.00  0.00    +0.000 OA
ATOM     17  H   UNL     1      -2.147  11.959  23.109  0.00  0.00    +0.000 HD
ENDBRANCH  14  16
ENDBRANCH   1  13
BRANCH   8  18
ATOM     18  S   UNL     1       3.911   3.376  19.066  0.00  0.00    +0.000 S 
ATOM     19  O   UNL     1       4.351   3.956  20.315  0.00  0.00    +0.000 OA
ATOM     20  O   UNL     1       3.756   1.944  18.921  0.00  0.00    +0.000 OA
BRANCH  18  21
ATOM     21  C   UNL     1       5.022   3.938  17.802  0.00  0.00    +0.000 A 
ATOM     22  C   UNL     1       6.151   4.683  18.142  0.00  0.00    +0.000 A 
ATOM     23  C   UNL     1       7.017   5.110  17.134  0.00  0.00    +0.000 A 
ATOM     24  C   UNL     1       6.771   4.781  15.790  0.00  0.00    +0.000 A 
ATOM     25  C   UNL     1       7.645   5.190  14.770  0.00  0.00    +0.000 A 
ATOM     26  C   UNL     1       7.407   4.831  13.442  0.00  0.00    +0.000 A 
ATOM     27  C   UNL     1       6.288   4.071  13.115  0.00  0.00    +0.000 A 
ATOM     28  C   UNL     1       5.398   3.673  14.115  0.00  0.00    +0.000 A 
ATOM     29  C   UNL     1       5.626   4.018  15.456  0.00  0.00    +0.000 A 
ATOM     30  C   UNL     1       4.749   3.613  16.471  0.00  0.00    +0.000 A 
ENDBRANCH  18  21
ENDBRANCH   8  18
TORSDOF 4
ENDMDL
MODEL 4
REMARK VINA RESULT:      -7.5      1.801      2.246
REMARK  Name = 
REMARK  4 active torsions:
REMARK  status: ('A' for Active; 'I' for Inactive)
REMARK    1  A    between atoms: C_2  and  C_5
REMARK    2  A    between atoms: N_3  and  O_4
REMARK    3  A    between atoms: N_12  and  S_13
REMARK    4  A    between atoms: S_13  and  C_16
REMARK                            x       y       z     vdW  Elec       q    Type
REMARK                         _______ _______ _______ _____ _____    ______ ____
ROOT
ATOM      1  C   UNL     1       0.662  10.494  19.434  0.00  0.00    +0.000 A 
ATOM      2  C   UNL     1       0.624   9.727  20.577  0.00  0.00    +0.000 A 
ATOM      3  N   UNL     1       1.206   8.479  20.478  0.00  0.00    +0.000 NA
ATOM      4  C   UNL     1       1.750   8.309  19.292  0.00  0.00    +0.000 A 
ATOM      5  N   UNL     1       2.457   7.202  18.953  0.00  0.00    +0.000 N 
ATOM      6  C   UNL     1       3.459   7.191  17.885  0.00  0.00    +0.000 C 
ATOM      7  C   UNL     1       4.731   6.445  18.340  0.00  0.00    +0.000 C 
ATOM      8  N   UNL     1       4.441   5.095  18.920  0.00  0.00    +0.000 NA
ATOM      9  C   UNL     1       3.470   5.240  20.059  0.00  0.00    +0.000 C 
ATOM     10  C   UNL     1       2.167   5.923  19.617  0.00  0.00    +0.000 C 
ATOM     11  S   UNL     1       1.477   9.631  18.208  0.00  0.00    +0.000 S 
ENDROOT
BRANCH   1  13
ATOM     12  O   UNL     1       0.149  12.687  20.133  0.00  0.00    +0.000 OA
ATOM     13  C   UNL     1       0.141  11.826  19.252  0.00  0.00    +0.000 C 
ATOM     14  N   UNL     1      -0.407  12.108  18.018  0.00  0.00    +0.000 N 
ATOM     15  H   UNL     1      -0.614  11.398  17.327  0.00  0.00    +0.000 HD
BRANCH  14  16
ATOM     16  O   UNL     1      -1.018  13.369  17.859  0.00  0.00    +0.000 OA
ATOM     17  H   UNL     1      -1.878  13.140  17.442  0.00  0.00    +0.000 HD
ENDBRANCH  14  16
ENDBRANCH   1  13
BRANCH   8  18
ATOM     18  S   UNL     1       4.061   3.851  17.815  0.00  0.00    +0.000 S 
ATOM     19  O   UNL     1       4.463   2.592  18.401  0.00  0.00    +0.000 OA
ATOM     20  O   UNL     1       2.706   4.059  17.349  0.00  0.00    +0.000 OA
BRANCH  18  21
ATOM     21  C   UNL     1       5.162   4.181  16.464  0.00  0.00    +0.000 A 
ATOM     22  C   UNL     1       6.369   4.844  16.688  0.00  0.00    +0.000 A 
ATOM     23  C   UNL     1       7.225   5.087  15.614  0.00  0.00    +0.000 A 
ATOM     24  C   UNL     1       6.892   4.656  14.318  0.00  0.00    +0.000 A 
ATOM     25  C   UNL     1       7.754   4.880  13.233  0.00  0.00    +0.000 A 
ATOM     26  C   UNL     1       7.426   4.420  11.957  0.00  0.00    +0.000 A 
ATOM     27  C   UNL     1       6.229   3.742  11.746  0.00  0.00    +0.000 A 
ATOM     28  C   UNL     1       5.351   3.529  12.811  0.00  0.00    +0.000 A 
ATOM     29  C   UNL     1       5.669   3.978  14.102  0.00  0.00    +0.000 A 
ATOM     30  C   UNL     1       4.803   3.757  15.182  0.00  0.00    +0.000 A 
ENDBRANCH  18  21
ENDBRANCH   8  18
TORSDOF 4
ENDMDL
MODEL 5
REMARK VINA RESULT:      -7.5      3.066     10.969
REMARK  Name = 
REMARK  4 active torsions:
REMARK  status: ('A' for Active; 'I' for Inactive)
REMARK    1  A    between atoms: C_2  and  C_5
REMARK    2  A    between atoms: N_3  and  O_4
REMARK    3  A    between atoms: N_12  and  S_13
REMARK    4  A    between atoms: S_13  and  C_16
REMARK                            x       y       z     vdW  Elec       q    Type
REMARK                         _______ _______ _______ _____ _____    ______ ____
ROOT
ATOM      1  C   UNL     1       3.786   5.129  18.990  0.00  0.00    +0.000 A 
ATOM      2  C   UNL     1       2.877   4.850  19.986  0.00  0.00    +0.000 A 
ATOM      3  N   UNL     1       2.092   5.910  20.394  0.00  0.00    +0.000 NA
ATOM      4  C   UNL     1       2.341   6.981  19.671  0.00  0.00    +0.000 A 
ATOM      5  N   UNL     1       1.655   8.144  19.807  0.00  0.00    +0.000 N 
ATOM      6  C   UNL     1       1.552   9.139  18.738  0.00  0.00    +0.000 C 
ATOM      7  C   UNL     1       0.102   9.649  18.606  0.00  0.00    +0.000 C 
ATOM      8  N   UNL     1      -0.483  10.091  19.913  0.00  0.00    +0.000 NA
ATOM      9  C   UNL     1      -0.401   8.963  20.903  0.00  0.00    +0.000 C 
ATOM     10  C   UNL     1       1.044   8.479  21.101  0.00  0.00    +0.000 C 
ATOM     11  S   UNL     1       3.628   6.765  18.532  0.00  0.00    +0.000 S 
ENDROOT
BRANCH   1  13
ATOM     12  O   UNL     1       5.599   3.621  18.996  0.00  0.00    +0.000 OA
ATOM     13  C   UNL     1       4.721   4.221  18.374  0.00  0.00    +0.000 C 
ATOM     14  N   UNL     1       4.608   4.055  17.009  0.00  0.00    +0.000 N 
ATOM     15  H   UNL     1       4.041   4.655  16.423  0.00  0.00    +0.000 HD
BRANCH  14  16
ATOM     16  O   UNL     1       5.581   3.256  16.376  0.00  0.00    +0.000 OA
ATOM     17  H   UNL     1       5.378   2.357  16.720  0.00  0.00    +0.000 HD
ENDBRANCH  14  16
ENDBRANCH   1  13
BRANCH   8  18
ATOM     18  S   UNL     1       0.034  11.603  20.512  0.00  0.00    +0.000 S 
ATOM     19  O   UNL     1       0.881  11.366  21.659  0.00  0.00    +0.000 OA
ATOM     20  O   UNL     1       0.497  12.398  19.394  0.00  0.00    +0.000 OA
BRANCH  18  21
ATOM     21  C   UNL     1      -1.474  12.322  21.109  0.00  0.00    +0.000 A 
ATOM     22  C   UNL     1      -2.208  13.187  20.299  0.00  0.00    +0.000 A 
ATOM     23  C   UNL     1      -3.396  13.736  20.784  0.00  0.00    +0.000 A 
ATOM     24  C   UNL     1      -3.865  13.411  22.068  0.00  0.00    +0.000 A 
ATOM     25  C   UNL     1      -5.067  13.943  22.560  0.00  0.00    +0.000 A 
ATOM     26  C   UNL     1      -5.538  13.590  23.826  0.00  0.00    +0.000 A 
ATOM     27  C   UNL     1      -4.808  12.709  24.619  0.00  0.00    +0.000 A 
ATOM     28  C   UNL     1      -3.600  12.187  24.154  0.00  0.00    +0.000 A 
ATOM     29  C   UNL     1      -3.116  12.526  22.881  0.00  0.00    +0.000 A 
ATOM     30  C   UNL     1      -1.912  11.997  22.396  0.00  0.00    +0.000 A 
ENDBRANCH  18  21
ENDBRANCH   8  18
TORSDOF 4
ENDMDL
MODEL 6
REMARK VINA RESULT:      -7.4      3.528     10.660
REMARK  Name = 
REMARK  4 active torsions:
REMARK  status: ('A' for Active; 'I' for Inactive)
REMARK    1  A    between atoms: C_2  and  C_5
REMARK    2  A    between atoms: N_3  and  O_4
REMARK    3  A    between atoms: N_12  and  S_13
REMARK    4  A    between atoms: S_13  and  C_16
REMARK                            x       y       z     vdW  Elec       q    Type
REMARK                         _______ _______ _______ _____ _____    ______ ____
ROOT
ATOM      1  C   UNL     1       3.229   5.027  19.391  0.00  0.00    +0.000 A 
ATOM      2  C   UNL     1       3.770   5.785  18.378  0.00  0.00    +0.000 A 
ATOM      3  N   UNL     1       3.223   7.042  18.213  0.00  0.00    +0.000 NA
ATOM      4  C   UNL     1       2.316   7.281  19.135  0.00  0.00    +0.000 A 
ATOM      5  N   UNL     1       1.676   8.472  19.254  0.00  0.00    +0.000 N 
ATOM      6  C   UNL     1       1.071   8.931  20.507  0.00  0.00    +0.000 C 
ATOM      7  C   UNL     1       1.419  10.410  20.770  0.00  0.00    +0.000 C 
ATOM      8  N   UNL     1       1.138  11.295  19.594  0.00  0.00    +0.000 NA
ATOM      9  C   UNL     1       1.877  10.777  18.392  0.00  0.00    +0.000 C 
ATOM     10  C   UNL     1       1.499   9.323  18.070  0.00  0.00    +0.000 C 
ATOM     11  S   UNL     1       2.015   5.932  20.178  0.00  0.00    +0.000 S 
ENDROOT
BRANCH   1  13
ATOM     12  O   UNL     1       2.904   2.969  20.496  0.00  0.00    +0.000 OA
ATOM     13  C   UNL     1       3.605   3.693  19.788  0.00  0.00    +0.000 C 
ATOM     14  N   UNL     1       4.834   3.246  19.348  0.00  0.00    +0.000 N 
ATOM     15  H   UNL     1       5.528   3.853  18.930  0.00  0.00    +0.000 HD
BRANCH  14  16
ATOM     16  O   UNL     1       5.264   1.987  19.816  0.00  0.00    +0.000 OA
ATOM     17  H   UNL     1       4.554   1.739  20.448  0.00  0.00    +0.000 HD
ENDBRANCH  14  16
ENDBRANCH   1  13
BRANCH   8  18
ATOM     18  S   UNL     1      -0.498  11.692  19.308  0.00  0.00    +0.000 S 
ATOM     19  O   UNL     1      -0.546  12.624  18.204  0.00  0.00    +0.000 OA
ATOM     20  O   UNL     1      -1.263  10.463  19.281  0.00  0.00    +0.000 OA
BRANCH  18  21
ATOM     21  C   UNL     1      -0.944  12.585  20.774  0.00  0.00    +0.000 A 
ATOM     22  C   UNL     1      -0.201  13.697  21.171  0.00  0.00    +0.000 A 
ATOM     23  C   UNL     1      -0.573  14.392  22.323  0.00  0.00    +0.000 A 
ATOM     24  C   UNL     1      -1.693  13.992  23.072  0.00  0.00    +0.000 A 
ATOM     25  C   UNL     1      -2.086  14.693  24.223  0.00  0.00    +0.000 A 
ATOM     26  C   UNL     1      -3.218  14.305  24.941  0.00  0.00    +0.000 A 
ATOM     27  C   UNL     1      -3.964  13.206  24.526  0.00  0.00    +0.000 A 
ATOM     28  C   UNL     1      -3.575  12.485  23.396  0.00  0.00    +0.000 A 
ATOM     29  C   UNL     1      -2.444  12.866  22.657  0.00  0.00    +0.000 A 
ATOM     30  C   UNL     1      -2.051  12.160  21.512  0.00  0.00    +0.000 A 
ENDBRANCH  18  21
ENDBRANCH   8  18
TORSDOF 4
ENDMDL
MODEL 7
REMARK VINA RESULT:      -7.4      3.324     11.070
REMARK  Name = 
REMARK  4 active torsions:
REMARK  status: ('A' for Active; 'I' for Inactive)
REMARK    1  A    between atoms: C_2  and  C_5
REMARK    2  A    between atoms: N_3  and  O_4
REMARK    3  A    between atoms: N_12  and  S_13
REMARK    4  A    between atoms: S_13  and  C_16
REMARK                            x       y       z     vdW  Elec       q    Type
REMARK                         _______ _______ _______ _____ _____    ______ ____
ROOT
ATOM      1  C   UNL     1       3.990   6.084  17.663  0.00  0.00    +0.000 A 
ATOM      2  C   UNL     1       3.331   5.563  18.754  0.00  0.00    +0.000 A 
ATOM      3  N   UNL     1       2.503   6.439  19.427  0.00  0.00    +0.000 NA
ATOM      4  C   UNL     1       2.466   7.606  18.821  0.00  0.00    +0.000 A 
ATOM      5  N   UNL     1       1.669   8.627  19.226  0.00  0.00    +0.000 N 
ATOM      6  C   UNL     1       1.235   9.703  18.332  0.00  0.00    +0.000 C 
ATOM      7  C   UNL     1      -0.269   9.993  18.520  0.00  0.00    +0.000 C 
ATOM      8  N   UNL     1      -0.650  10.197  19.954  0.00  0.00    +0.000 NA
ATOM      9  C   UNL     1      -0.233   8.996  20.757  0.00  0.00    +0.000 C 
ATOM     10  C   UNL     1       1.274   8.724  20.638  0.00  0.00    +0.000 C 
ATOM     11  S   UNL     1       3.533   7.715  17.461  0.00  0.00    +0.000 S 
ENDROOT
BRANCH   1  13
ATOM     12  O   UNL     1       5.197   4.211  16.891  0.00  0.00    +0.000 OA
ATOM     13  C   UNL     1       4.905   5.403  16.782  0.00  0.00    +0.000 C 
ATOM     14  N   UNL     1       5.480   6.164  15.786  0.00  0.00    +0.000 N 
ATOM     15  H   UNL     1       5.429   7.175  15.762  0.00  0.00    +0.000 HD
BRANCH  14  16
ATOM     16  O   UNL     1       6.458   5.541  14.984  0.00  0.00    +0.000 OA
ATOM     17  H   UNL     1       6.987   6.303  14.659  0.00  0.00    +0.000 HD
ENDBRANCH  14  16
ENDBRANCH   1  13
BRANCH   8  18
ATOM     18  S   UNL     1      -0.235  11.699  20.651  0.00  0.00    +0.000 S 
ATOM     19  O   UNL     1       0.834  11.474  21.597  0.00  0.00    +0.000 OA
ATOM     20  O   UNL     1      -0.098  12.669  19.586  0.00  0.00    +0.000 OA
BRANCH  18  21
ATOM     21  C   UNL     1      -1.688  12.109  21.584  0.00  0.00    +0.000 A 
ATOM     22  C   UNL     1      -1.718  11.900  22.963  0.00  0.00    +0.000 A 
ATOM     23  C   UNL     1      -2.868  12.236  23.680  0.00  0.00    +0.000 A 
ATOM     24  C   UNL     1      -3.980  12.797  23.030  0.00  0.00    +0.000 A 
ATOM     25  C   UNL     1      -5.134  13.156  23.744  0.00  0.00    +0.000 A 
ATOM     26  C   UNL     1      -6.222  13.741  23.093  0.00  0.00    +0.000 A 
ATOM     27  C   UNL     1      -6.174  13.965  21.720  0.00  0.00    +0.000 A 
ATOM     28  C   UNL     1      -5.041  13.595  20.992  0.00  0.00    +0.000 A 
ATOM     29  C   UNL     1      -3.937  13.013  21.632  0.00  0.00    +0.000 A 
ATOM     30  C   UNL     1      -2.788  12.651  20.914  0.00  0.00    +0.000 A 
ENDBRANCH  18  21
ENDBRANCH   8  18
TORSDOF 4
ENDMDL
MODEL 8
REMARK VINA RESULT:      -7.4      3.203     10.897
REMARK  Name = 
REMARK  4 active torsions:
REMARK  status: ('A' for Active; 'I' for Inactive)
REMARK    1  A    between atoms: C_2  and  C_5
REMARK    2  A    between atoms: N_3  and  O_4
REMARK    3  A    between atoms: N_12  and  S_13
REMARK    4  A    between atoms: S_13  and  C_16
REMARK                            x       y       z     vdW  Elec       q    Type
REMARK                         _______ _______ _______ _____ _____    ______ ____
ROOT
ATOM      1  C   UNL     1       3.593   5.197  19.076  0.00  0.00    +0.000 A 
ATOM      2  C   UNL     1       2.736   5.025  20.139  0.00  0.00    +0.000 A 
ATOM      3  N   UNL     1       2.021   6.144  20.519  0.00  0.00    +0.000 NA
ATOM      4  C   UNL     1       2.270   7.153  19.712  0.00  0.00    +0.000 A 
ATOM      5  N   UNL     1       1.642   8.352  19.808  0.00  0.00    +0.000 N 
ATOM      6  C   UNL     1       1.515   9.280  18.682  0.00  0.00    +0.000 C 
ATOM      7  C   UNL     1       0.083   9.845  18.600  0.00  0.00    +0.000 C 
ATOM      8  N   UNL     1      -0.403  10.397  19.905  0.00  0.00    +0.000 NA
ATOM      9  C   UNL     1      -0.308   9.333  20.963  0.00  0.00    +0.000 C 
ATOM     10  C   UNL     1       1.125   8.798  21.109  0.00  0.00    +0.000 C 
ATOM     11  S   UNL     1       3.476   6.805  18.518  0.00  0.00    +0.000 S 
ENDROOT
BRANCH   1  13
ATOM     12  O   UNL     1       5.089   3.375  19.113  0.00  0.00    +0.000 OA
ATOM     13  C   UNL     1       4.451   4.209  18.470  0.00  0.00    +0.000 C 
ATOM     14  N   UNL     1       4.552   4.245  17.095  0.00  0.00    +0.000 N 
ATOM     15  H   UNL     1       4.209   5.014  16.533  0.00  0.00    +0.000 HD
BRANCH  14  16
ATOM     16  O   UNL     1       5.469   3.357  16.495  0.00  0.00    +0.000 OA
ATOM     17  H   UNL     1       6.301   3.881  16.487  0.00  0.00    +0.000 HD
ENDBRANCH  14  16
ENDBRANCH   1  13
BRANCH   8  18
ATOM     18  S   UNL     1       0.211  11.920  20.369  0.00  0.00    +0.000 S 
ATOM     19  O   UNL     1       1.395  11.701  21.170  0.00  0.00    +0.000 OA
ATOM     20  O   UNL     1       0.250  12.769  19.197  0.00  0.00    +0.000 OA
BRANCH  18  21
ATOM     21  C   UNL     1      -1.052  12.536  21.452  0.00  0.00    +0.000 A 
ATOM     22  C   UNL     1      -0.706  13.183  22.638  0.00  0.00    +0.000 A 
ATOM     23  C   UNL     1      -1.715  13.668  23.472  0.00  0.00    +0.000 A 
ATOM     24  C   UNL     1      -3.068  13.525  23.120  0.00  0.00    +0.000 A 
ATOM     25  C   UNL     1      -4.090  14.024  23.942  0.00  0.00    +0.000 A 
ATOM     26  C   UNL     1      -5.429  13.904  23.567  0.00  0.00    +0.000 A 
ATOM     27  C   UNL     1      -5.764  13.274  22.372  0.00  0.00    +0.000 A 
ATOM     28  C   UNL     1      -4.760  12.754  21.552  0.00  0.00    +0.000 A 
ATOM     29  C   UNL     1      -3.409  12.873  21.910  0.00  0.00    +0.000 A 
ATOM     30  C   UNL     1      -2.391  12.369  21.089  0.00  0.00    +0.000 A 
ENDBRANCH  18  21
ENDBRANCH   8  18
TORSDOF 4
ENDMDL
MODEL 9
REMARK VINA RESULT:      -7.3      3.807     10.857
REMARK  Name = 
REMARK  4 active torsions:
REMARK  status: ('A' for Active; 'I' for Inactive)
REMARK    1  A    between atoms: C_2  and  C_5
REMARK    2  A    between atoms: N_3  and  O_4
REMARK    3  A    between atoms: N_12  and  S_13
REMARK    4  A    between atoms: S_13  and  C_16
REMARK                            x       y       z     vdW  Elec       q    Type
REMARK                         _______ _______ _______ _____ _____    ______ ____
ROOT
ATOM      1  C   UNL     1       3.172   4.415  19.742  0.00  0.00    +0.000 A 
ATOM      2  C   UNL     1       2.140   4.423  20.654  0.00  0.00    +0.000 A 
ATOM      3  N   UNL     1       1.562   5.655  20.891  0.00  0.00    +0.000 NA
ATOM      4  C   UNL     1       2.094   6.577  20.118  0.00  0.00    +0.000 A 
ATOM      5  N   UNL     1       1.657   7.862  20.089  0.00  0.00    +0.000 N 
ATOM      6  C   UNL     1       1.861   8.748  18.941  0.00  0.00    +0.000 C 
ATOM      7  C   UNL     1       0.568   9.524  18.616  0.00  0.00    +0.000 C 
ATOM      8  N   UNL     1      -0.024  10.200  19.814  0.00  0.00    +0.000 NA
ATOM      9  C   UNL     1      -0.269   9.181  20.892  0.00  0.00    +0.000 C 
ATOM     10  C   UNL     1       1.018   8.438  21.280  0.00  0.00    +0.000 C 
ATOM     11  S   UNL     1       3.403   5.996  19.145  0.00  0.00    +0.000 S 
ENDROOT
BRANCH   1  13
ATOM     12  O   UNL     1       4.046   2.938  18.124  0.00  0.00    +0.000 OA
ATOM     13  C   UNL     1       3.946   3.281  19.303  0.00  0.00    +0.000 C 
ATOM     14  N   UNL     1       4.580   2.552  20.288  0.00  0.00    +0.000 N 
ATOM     15  H   UNL     1       4.385   2.666  21.275  0.00  0.00    +0.000 HD
BRANCH  14  16
ATOM     16  O   UNL     1       5.252   1.378  19.887  0.00  0.00    +0.000 OA
ATOM     17  H   UNL     1       6.186   1.677  19.822  0.00  0.00    +0.000 HD
ENDBRANCH  14  16
ENDBRANCH   1  13
BRANCH   8  18
ATOM     18  S   UNL     1       0.743  11.629  20.345  0.00  0.00    +0.000 S 
ATOM     19  O   UNL     1       1.608  11.288  21.453  0.00  0.00    +0.000 OA
ATOM     20  O   UNL     1       1.256  12.325  19.184  0.00  0.00    +0.000 OA
BRANCH  18  21
ATOM     21  C   UNL     1      -0.606  12.575  21.001  0.00  0.00    +0.000 A 
ATOM     22  C   UNL     1      -1.795  12.694  20.281  0.00  0.00    +0.000 A 
ATOM     23  C   UNL     1      -2.848  13.437  20.818  0.00  0.00    +0.000 A 
ATOM     24  C   UNL     1      -2.727  14.046  22.078  0.00  0.00    +0.000 A 
ATOM     25  C   UNL     1      -3.786  14.781  22.635  0.00  0.00    +0.000 A 
ATOM     26  C   UNL     1      -3.665  15.356  23.901  0.00  0.00    +0.000 A 
ATOM     27  C   UNL     1      -2.483  15.215  24.621  0.00  0.00    +0.000 A 
ATOM     28  C   UNL     1      -1.412  14.505  24.073  0.00  0.00    +0.000 A 
ATOM     29  C   UNL     1      -1.519  13.914  22.804  0.00  0.00    +0.000 A 
ATOM     30  C   UNL     1      -0.458  13.186  22.249  0.00  0.00    +0.000 A 
ENDBRANCH  18  21
ENDBRANCH   8  18
TORSDOF 4
ENDMDL
