MODEL 1
REMARK VINA RESULT:      -7.5      0.000      0.000
REMARK  Name = 
REMARK  11 active torsions:
REMARK  status: ('A' for Active; 'I' for Inactive)
REMARK    1  A    between atoms: C_1  and  C_2
REMARK    2  A    between atoms: C_2  and  C_3
REMARK    3  A    between atoms: C_3  and  N_4
REMARK    4  A    between atoms: N_4  and  C_5
REMARK    5  A    between atoms: C_5  and  C_6
REMARK    6  A    between atoms: C_11  and  C_12
REMARK    7  A    between atoms: N_14  and  C_15
REMARK    8  A    between atoms: C_18  and  S_19
REMARK    9  A    between atoms: S_19  and  N_22
REMARK   10  A    between atoms: N_22  and  C_23
REMARK   11  A    between atoms: C_25  and  C_26
REMARK                            x       y       z     vdW  Elec       q    Type
REMARK                         _______ _______ _______ _____ _____    ______ ____
ROOT
ATOM      1  C   UNL     1       1.964   6.108  20.241  0.00  0.00    +0.000 C 
ATOM      2  O   UNL     1       0.915   5.612  20.652  0.00  0.00    +0.000 OA
ATOM      3  N   UNL     1       2.255   7.469  20.167  0.00  0.00    +0.000 N 
ATOM      4  H   UNL     1       3.108   7.709  19.675  0.00  0.00    +0.000 HD
ENDROOT
BRANCH   1   8
ATOM      5  N   UNL     1       5.884   5.265  17.473  0.00  0.00    +0.000 N 
ATOM      6  C   UNL     1       4.894   4.810  18.360  0.00  0.00    +0.000 A 
ATOM      7  C   UNL     1       3.855   5.629  18.716  0.00  0.00    +0.000 A 
ATOM      8  C   UNL     1       3.005   5.175  19.718  0.00  0.00    +0.000 A 
ATOM      9  N   UNL     1       3.096   3.962  20.306  0.00  0.00    +0.000 NA
ATOM     10  C   UNL     1       4.118   3.228  19.860  0.00  0.00    +0.000 A 
ATOM     11  N   UNL     1       5.032   3.604  18.949  0.00  0.00    +0.000 NA
BRANCH   5  12
ATOM     12  C   UNL     1       7.215   4.746  17.803  0.00  0.00    +0.000 C 
BRANCH  12  14
ATOM     13  C   UNL     1       8.095   7.100  18.593  0.00  0.00    +0.000 C 
ATOM     14  C   UNL     1       8.098   5.583  18.733  0.00  0.00    +0.000 C 
ENDBRANCH  12  14
ENDBRANCH   5  12
BRANCH   5  15
ATOM     15  C   UNL     1       5.470   5.584  16.102  0.00  0.00    +0.000 C 
BRANCH  15  16
ATOM     16  C   UNL     1       6.191   4.957  14.928  0.00  0.00    +0.000 C 
ATOM     17  C   UNL     1       6.195   3.455  14.760  0.00  0.00    +0.000 C 
ATOM     18  C   UNL     1       5.601   4.322  13.688  0.00  0.00    +0.000 C 
ENDBRANCH  15  16
ENDBRANCH   5  15
ENDBRANCH   1   8
BRANCH   3  19
ATOM     19  C   UNL     1       1.416   8.512  20.644  0.00  0.00    +0.000 A 
ATOM     20  C   UNL     1       1.110   8.608  22.013  0.00  0.00    +0.000 A 
ATOM     21  C   UNL     1       0.294   9.614  22.522  0.00  0.00    +0.000 A 
ATOM     22  C   UNL     1      -0.218  10.574  21.662  0.00  0.00    +0.000 A 
ATOM     23  C   UNL     1       0.085  10.527  20.295  0.00  0.00    +0.000 A 
ATOM     24  C   UNL     1       0.881   9.482  19.767  0.00  0.00    +0.000 A 
ATOM     25  C   UNL     1       1.091   9.438  18.275  0.00  0.00    +0.000 C 
BRANCH  22  26
ATOM     26  S   UNL     1      -1.198  11.875  22.344  0.00  0.00    +0.000 S 
ATOM     27  O   UNL     1      -2.039  11.293  23.379  0.00  0.00    +0.000 OA
ATOM     28  O   UNL     1      -0.354  13.010  22.612  0.00  0.00    +0.000 OA
BRANCH  26  29
ATOM     29  N   UNL     1      -2.238  12.277  21.082  0.00  0.00    +0.000 NA
ATOM     30  C   UNL     1      -2.800  13.623  21.050  0.00  0.00    +0.000 C 
ATOM     31  H   UNL     1      -2.858  11.502  20.842  0.00  0.00    +0.000 HD
ENDBRANCH  26  29
ENDBRANCH  22  26
ENDBRANCH   3  19
TORSDOF 8
ENDMDL
MODEL 2
REMARK VINA RESULT:      -7.3      0.971      1.140
REMARK  Name = 
REMARK  11 active torsions:
REMARK  status: ('A' for Active; 'I' for Inactive)
REMARK    1  A    between atoms: C_1  and  C_2
REMARK    2  A    between atoms: C_2  and  C_3
REMARK    3  A    between atoms: C_3  and  N_4
REMARK    4  A    between atoms: N_4  and  C_5
REMARK    5  A    between atoms: C_5  and  C_6
REMARK    6  A    between atoms: C_11  and  C_12
REMARK    7  A    between atoms: N_14  and  C_15
REMARK    8  A    between atoms: C_18  and  S_19
REMARK    9  A    between atoms: S_19  and  N_22
REMARK   10  A    between atoms: N_22  and  C_23
REMARK   11  A    between atoms: C_25  and  C_26
REMARK                            x       y       z     vdW  Elec       q    Type
REMARK                         _______ _______ _______ _____ _____    ______ ____
ROOT
ATOM      1  C   UNL     1       1.947   6.318  20.272  0.00  0.00    +0.000 C 
ATOM      2  O   UNL     1       0.962   5.828  20.825  0.00  0.00    +0.000 OA
ATOM      3  N   UNL     1       2.156   7.671  20.013  0.00  0.00    +0.000 N 
ATOM      4  H   UNL     1       2.954   7.887  19.427  0.00  0.00    +0.000 HD
ENDROOT
BRANCH   1   8
ATOM      5  N   UNL     1       6.012   5.468  17.724  0.00  0.00    +0.000 N 
ATOM      6  C   UNL     1       4.957   5.008  18.529  0.00  0.00    +0.000 A 
ATOM      7  C   UNL     1       3.918   5.843  18.851  0.00  0.00    +0.000 A 
ATOM      8  C   UNL     1       2.995   5.375  19.779  0.00  0.00    +0.000 A 
ATOM      9  N   UNL     1       3.017   4.139  20.323  0.00  0.00    +0.000 NA
ATOM     10  C   UNL     1       4.046   3.394  19.914  0.00  0.00    +0.000 A 
ATOM     11  N   UNL     1       5.025   3.778  19.078  0.00  0.00    +0.000 NA
BRANCH   5  12
ATOM     12  C   UNL     1       7.305   4.900  18.116  0.00  0.00    +0.000 C 
BRANCH  12  14
ATOM     13  C   UNL     1       8.322   7.231  18.801  0.00  0.00    +0.000 C 
ATOM     14  C   UNL     1       8.202   5.731  19.038  0.00  0.00    +0.000 C 
ENDBRANCH  12  14
ENDBRANCH   5  12
BRANCH   5  15
ATOM     15  C   UNL     1       5.695   5.850  16.343  0.00  0.00    +0.000 C 
BRANCH  15  16
ATOM     16  C   UNL     1       5.338   4.787  15.327  0.00  0.00    +0.000 C 
ATOM     17  C   UNL     1       6.255   4.525  14.155  0.00  0.00    +0.000 C 
ATOM     18  C   UNL     1       5.960   3.422  15.131  0.00  0.00    +0.000 C 
ENDBRANCH  15  16
ENDBRANCH   5  15
ENDBRANCH   1   8
BRANCH   3  19
ATOM     19  C   UNL     1       1.300   8.725  20.431  0.00  0.00    +0.000 A 
ATOM     20  C   UNL     1       0.969   8.876  21.788  0.00  0.00    +0.000 A 
ATOM     21  C   UNL     1       0.135   9.895  22.241  0.00  0.00    +0.000 A 
ATOM     22  C   UNL     1      -0.369  10.814  21.332  0.00  0.00    +0.000 A 
ATOM     23  C   UNL     1      -0.041  10.713  19.973  0.00  0.00    +0.000 A 
ATOM     24  C   UNL     1       0.773   9.653  19.504  0.00  0.00    +0.000 A 
ATOM     25  C   UNL     1       1.010   9.549  18.019  0.00  0.00    +0.000 C 
BRANCH  22  26
ATOM     26  S   UNL     1      -1.371  12.134  21.941  0.00  0.00    +0.000 S 
ATOM     27  O   UNL     1      -0.478  13.165  22.445  0.00  0.00    +0.000 OA
ATOM     28  O   UNL     1      -2.395  12.433  20.975  0.00  0.00    +0.000 OA
BRANCH  26  29
ATOM     29  N   UNL     1      -2.107  11.463  23.300  0.00  0.00    +0.000 NA
ATOM     30  C   UNL     1      -3.297  12.116  23.836  0.00  0.00    +0.000 C 
ATOM     31  H   UNL     1      -1.419  11.116  23.969  0.00  0.00    +0.000 HD
ENDBRANCH  26  29
ENDBRANCH  22  26
ENDBRANCH   3  19
TORSDOF 8
ENDMDL
MODEL 3
REMARK VINA RESULT:      -7.1      1.752      2.300
REMARK  Name = 
REMARK  11 active torsions:
REMARK  status: ('A' for Active; 'I' for Inactive)
REMARK    1  A    between atoms: C_1  and  C_2
REMARK    2  A    between atoms: C_2  and  C_3
REMARK    3  A    between atoms: C_3  and  N_4
REMARK    4  A    between atoms: N_4  and  C_5
REMARK    5  A    between atoms: C_5  and  C_6
REMARK    6  A    between atoms: C_11  and  C_12
REMARK    7  A    between atoms: N_14  and  C_15
REMARK    8  A    between atoms: C_18  and  S_19
REMARK    9  A    between atoms: S_19  and  N_22
REMARK   10  A    between atoms: N_22  and  C_23
REMARK   11  A    between atoms: C_25  and  C_26
REMARK                            x       y       z     vdW  Elec       q    Type
REMARK                         _______ _______ _______ _____ _____    ______ ____
ROOT
ATOM      1  C   UNL     1       1.920   8.156  18.769  0.00  0.00    +0.000 C 
ATOM      2  O   UNL     1       1.862   8.794  17.718  0.00  0.00    +0.000 OA
ATOM      3  N   UNL     1       1.341   8.519  19.984  0.00  0.00    +0.000 N 
ATOM      4  H   UNL     1       1.602   7.951  20.782  0.00  0.00    +0.000 HD
ENDROOT
BRANCH   1   8
ATOM      5  N   UNL     1       5.734   5.592  17.153  0.00  0.00    +0.000 N 
ATOM      6  C   UNL     1       4.584   5.697  17.953  0.00  0.00    +0.000 A 
ATOM      7  C   UNL     1       3.759   6.786  17.837  0.00  0.00    +0.000 A 
ATOM      8  C   UNL     1       2.733   6.904  18.767  0.00  0.00    +0.000 A 
ATOM      9  N   UNL     1       2.458   5.989  19.722  0.00  0.00    +0.000 NA
ATOM     10  C   UNL     1       3.296   4.951  19.724  0.00  0.00    +0.000 A 
ATOM     11  N   UNL     1       4.356   4.780  18.915  0.00  0.00    +0.000 NA
BRANCH   5  12
ATOM     12  C   UNL     1       6.853   4.961  17.861  0.00  0.00    +0.000 C 
BRANCH  12  14
ATOM     13  C   UNL     1       7.969   7.323  18.200  0.00  0.00    +0.000 C 
ATOM     14  C   UNL     1       7.816   5.869  18.631  0.00  0.00    +0.000 C 
ENDBRANCH  12  14
ENDBRANCH   5  12
BRANCH   5  15
ATOM     15  C   UNL     1       5.544   5.479  15.702  0.00  0.00    +0.000 C 
BRANCH  15  16
ATOM     16  C   UNL     1       6.343   4.468  14.910  0.00  0.00    +0.000 C 
ATOM     17  C   UNL     1       5.774   3.888  13.635  0.00  0.00    +0.000 C 
ATOM     18  C   UNL     1       7.064   4.657  13.593  0.00  0.00    +0.000 C 
ENDBRANCH  15  16
ENDBRANCH   5  15
ENDBRANCH   1   8
BRANCH   3  19
ATOM     19  C   UNL     1       0.503   9.649  20.185  0.00  0.00    +0.000 A 
ATOM     20  C   UNL     1       0.050  10.402  19.089  0.00  0.00    +0.000 A 
ATOM     21  C   UNL     1      -0.773  11.515  19.241  0.00  0.00    +0.000 A 
ATOM     22  C   UNL     1      -1.185  11.885  20.513  0.00  0.00    +0.000 A 
ATOM     23  C   UNL     1      -0.775  11.144  21.629  0.00  0.00    +0.000 A 
ATOM     24  C   UNL     1       0.094  10.037  21.482  0.00  0.00    +0.000 A 
ATOM     25  C   UNL     1       0.572   9.342  22.731  0.00  0.00    +0.000 C 
BRANCH  22  26
ATOM     26  S   UNL     1      -2.280  13.262  20.672  0.00  0.00    +0.000 S 
ATOM     27  O   UNL     1      -3.557  12.875  20.092  0.00  0.00    +0.000 OA
ATOM     28  O   UNL     1      -2.191  13.782  22.011  0.00  0.00    +0.000 OA
BRANCH  26  29
ATOM     29  N   UNL     1      -1.624  14.399  19.617  0.00  0.00    +0.000 NA
ATOM     30  C   UNL     1      -0.673  15.369  20.149  0.00  0.00    +0.000 C 
ATOM     31  H   UNL     1      -2.317  14.738  18.948  0.00  0.00    +0.000 HD
ENDBRANCH  26  29
ENDBRANCH  22  26
ENDBRANCH   3  19
TORSDOF 8
ENDMDL
MODEL 4
REMARK VINA RESULT:      -7.0      1.778      2.454
REMARK  Name = 
REMARK  11 active torsions:
REMARK  status: ('A' for Active; 'I' for Inactive)
REMARK    1  A    between atoms: C_1  and  C_2
REMARK    2  A    between atoms: C_2  and  C_3
REMARK    3  A    between atoms: C_3  and  N_4
REMARK    4  A    between atoms: N_4  and  C_5
REMARK    5  A    between atoms: C_5  and  C_6
REMARK    6  A    between atoms: C_11  and  C_12
REMARK    7  A    between atoms: N_14  and  C_15
REMARK    8  A    between atoms: C_18  and  S_19
REMARK    9  A    between atoms: S_19  and  N_22
REMARK   10  A    between atoms: N_22  and  C_23
REMARK   11  A    between atoms: C_25  and  C_26
REMARK                            x       y       z     vdW  Elec       q    Type
REMARK                         _______ _______ _______ _____ _____    ______ ____
ROOT
ATOM      1  C   UNL     1       1.641   8.595  19.059  0.00  0.00    +0.000 C 
ATOM      2  O   UNL     1       1.731   9.370  18.107  0.00  0.00    +0.000 OA
ATOM      3  N   UNL     1       0.887   8.797  20.214  0.00  0.00    +0.000 N 
ATOM      4  H   UNL     1       1.035   8.125  20.958  0.00  0.00    +0.000 HD
ENDROOT
BRANCH   1   8
ATOM      5  N   UNL     1       5.407   6.076  17.268  0.00  0.00    +0.000 N 
ATOM      6  C   UNL     1       4.285   6.163  18.109  0.00  0.00    +0.000 A 
ATOM      7  C   UNL     1       3.452   7.250  18.040  0.00  0.00    +0.000 A 
ATOM      8  C   UNL     1       2.459   7.347  19.008  0.00  0.00    +0.000 A 
ATOM      9  N   UNL     1       2.222   6.415  19.957  0.00  0.00    +0.000 NA
ATOM     10  C   UNL     1       3.064   5.381  19.911  0.00  0.00    +0.000 A 
ATOM     11  N   UNL     1       4.094   5.229  19.063  0.00  0.00    +0.000 NA
BRANCH   5  12
ATOM     12  C   UNL     1       6.553   5.439  17.925  0.00  0.00    +0.000 C 
BRANCH  12  14
ATOM     13  C   UNL     1       7.810   7.753  17.844  0.00  0.00    +0.000 C 
ATOM     14  C   UNL     1       7.694   6.340  18.404  0.00  0.00    +0.000 C 
ENDBRANCH  12  14
ENDBRANCH   5  12
BRANCH   5  15
ATOM     15  C   UNL     1       5.166   5.987  15.823  0.00  0.00    +0.000 C 
BRANCH  15  16
ATOM     16  C   UNL     1       6.078   5.150  14.953  0.00  0.00    +0.000 C 
ATOM     17  C   UNL     1       6.120   3.649  15.128  0.00  0.00    +0.000 C 
ATOM     18  C   UNL     1       5.710   4.234  13.807  0.00  0.00    +0.000 C 
ENDBRANCH  15  16
ENDBRANCH   5  15
ENDBRANCH   1   8
BRANCH   3  19
ATOM     19  C   UNL     1       0.017   9.898  20.440  0.00  0.00    +0.000 A 
ATOM     20  C   UNL     1      -0.520  10.614  19.357  0.00  0.00    +0.000 A 
ATOM     21  C   UNL     1      -1.377  11.698  19.535  0.00  0.00    +0.000 A 
ATOM     22  C   UNL     1      -1.738  12.073  20.820  0.00  0.00    +0.000 A 
ATOM     23  C   UNL     1      -1.244  11.368  21.925  0.00  0.00    +0.000 A 
ATOM     24  C   UNL     1      -0.340  10.293  21.750  0.00  0.00    +0.000 A 
ATOM     25  C   UNL     1       0.227   9.638  22.983  0.00  0.00    +0.000 C 
BRANCH  22  26
ATOM     26  S   UNL     1      -2.876  13.410  21.014  0.00  0.00    +0.000 S 
ATOM     27  O   UNL     1      -3.619  13.177  22.243  0.00  0.00    +0.000 OA
ATOM     28  O   UNL     1      -2.189  14.652  20.776  0.00  0.00    +0.000 OA
BRANCH  26  29
ATOM     29  N   UNL     1      -3.976  13.165  19.762  0.00  0.00    +0.000 NA
ATOM     30  C   UNL     1      -5.353  12.831  20.106  0.00  0.00    +0.000 C 
ATOM     31  H   UNL     1      -3.552  12.666  18.979  0.00  0.00    +0.000 HD
ENDBRANCH  26  29
ENDBRANCH  22  26
ENDBRANCH   3  19
TORSDOF 8
ENDMDL
MODEL 5
REMARK VINA RESULT:      -7.0      3.831      9.017
REMARK  Name = 
REMARK  11 active torsions:
REMARK  status: ('A' for Active; 'I' for Inactive)
REMARK    1  A    between atoms: C_1  and  C_2
REMARK    2  A    between atoms: C_2  and  C_3
REMARK    3  A    between atoms: C_3  and  N_4
REMARK    4  A    between atoms: N_4  and  C_5
REMARK    5  A    between atoms: C_5  and  C_6
REMARK    6  A    between atoms: C_11  and  C_12
REMARK    7  A    between atoms: N_14  and  C_15
REMARK    8  A    between atoms: C_18  and  S_19
REMARK    9  A    between atoms: S_19  and  N_22
REMARK   10  A    between atoms: N_22  and  C_23
REMARK   11  A    between atoms: C_25  and  C_26
REMARK                            x       y       z     vdW  Elec       q    Type
REMARK                         _______ _______ _______ _____ _____    ______ ____
ROOT
ATOM      1  C   UNL     1       0.263   9.074  21.236  0.00  0.00    +0.000 C 
ATOM      2  O   UNL     1      -0.565   8.214  21.537  0.00  0.00    +0.000 OA
ATOM      3  N   UNL     1       1.460   8.859  20.556  0.00  0.00    +0.000 N 
ATOM      4  H   UNL     1       2.089   9.653  20.512  0.00  0.00    +0.000 HD
ENDROOT
BRANCH   1   8
ATOM      5  N   UNL     1       0.805  13.881  20.663  0.00  0.00    +0.000 N 
ATOM      6  C   UNL     1       0.289  12.787  21.377  0.00  0.00    +0.000 A 
ATOM      7  C   UNL     1       0.663  11.509  21.049  0.00  0.00    +0.000 A 
ATOM      8  C   UNL     1      -0.006  10.471  21.687  0.00  0.00    +0.000 A 
ATOM      9  N   UNL     1      -0.941  10.640  22.647  0.00  0.00    +0.000 NA
ATOM     10  C   UNL     1      -1.203  11.920  22.917  0.00  0.00    +0.000 A 
ATOM     11  N   UNL     1      -0.663  12.990  22.311  0.00  0.00    +0.000 NA
BRANCH   5  12
ATOM     12  C   UNL     1      -0.176  14.959  20.502  0.00  0.00    +0.000 C 
BRANCH  12  14
ATOM     13  C   UNL     1      -0.283  16.769  18.592  0.00  0.00    +0.000 C 
ATOM     14  C   UNL     1      -0.577  15.356  19.079  0.00  0.00    +0.000 C 
ENDBRANCH  12  14
ENDBRANCH   5  12
BRANCH   5  15
ATOM     15  C   UNL     1       2.250  14.125  20.746  0.00  0.00    +0.000 C 
BRANCH  15  16
ATOM     16  C   UNL     1       3.110  14.005  19.506  0.00  0.00    +0.000 C 
ATOM     17  C   UNL     1       2.553  13.355  18.261  0.00  0.00    +0.000 C 
ATOM     18  C   UNL     1       3.014  14.784  18.213  0.00  0.00    +0.000 C 
ENDBRANCH  15  16
ENDBRANCH   5  15
ENDBRANCH   1   8
BRANCH   3  19
ATOM     19  C   UNL     1       1.881   7.614  20.014  0.00  0.00    +0.000 A 
ATOM     20  C   UNL     1       1.899   6.460  20.814  0.00  0.00    +0.000 A 
ATOM     21  C   UNL     1       2.304   5.221  20.322  0.00  0.00    +0.000 A 
ATOM     22  C   UNL     1       2.676   5.108  18.991  0.00  0.00    +0.000 A 
ATOM     23  C   UNL     1       2.647   6.232  18.154  0.00  0.00    +0.000 A 
ATOM     24  C   UNL     1       2.277   7.501  18.661  0.00  0.00    +0.000 A 
ATOM     25  C   UNL     1       2.357   8.684  17.731  0.00  0.00    +0.000 C 
BRANCH  22  26
ATOM     26  S   UNL     1       3.123   3.514  18.377  0.00  0.00    +0.000 S 
ATOM     27  O   UNL     1       3.955   3.716  17.201  0.00  0.00    +0.000 OA
ATOM     28  O   UNL     1       3.561   2.692  19.474  0.00  0.00    +0.000 OA
BRANCH  26  29
ATOM     29  N   UNL     1       1.663   2.899  17.805  0.00  0.00    +0.000 NA
ATOM     30  C   UNL     1       0.734   2.315  18.766  0.00  0.00    +0.000 C 
ATOM     31  H   UNL     1       1.780   2.418  16.912  0.00  0.00    +0.000 HD
ENDBRANCH  26  29
ENDBRANCH  22  26
ENDBRANCH   3  19
TORSDOF 8
ENDMDL
MODEL 6
REMARK VINA RESULT:      -7.0      3.573      9.503
REMARK  Name = 
REMARK  11 active torsions:
REMARK  status: ('A' for Active; 'I' for Inactive)
REMARK    1  A    between atoms: C_1  and  C_2
REMARK    2  A    between atoms: C_2  and  C_3
REMARK    3  A    between atoms: C_3  and  N_4
REMARK    4  A    between atoms: N_4  and  C_5
REMARK    5  A    between atoms: C_5  and  C_6
REMARK    6  A    between atoms: C_11  and  C_12
REMARK    7  A    between atoms: N_14  and  C_15
REMARK    8  A    between atoms: C_18  and  S_19
REMARK    9  A    between atoms: S_19  and  N_22
REMARK   10  A    between atoms: N_22  and  C_23
REMARK   11  A    between atoms: C_25  and  C_26
REMARK                            x       y       z     vdW  Elec       q    Type
REMARK                         _______ _______ _______ _____ _____    ______ ____
ROOT
ATOM      1  C   UNL     1       1.034   9.226  21.637  0.00  0.00    +0.000 C 
ATOM      2  O   UNL     1       1.888   9.102  22.514  0.00  0.00    +0.000 OA
ATOM      3  N   UNL     1       0.920   8.451  20.485  0.00  0.00    +0.000 N 
ATOM      4  H   UNL     1       0.246   8.776  19.801  0.00  0.00    +0.000 HD
ENDROOT
BRANCH   1   8
ATOM      5  N   UNL     1      -1.969  12.509  19.651  0.00  0.00    +0.000 N 
ATOM      6  C   UNL     1      -1.375  11.924  20.782  0.00  0.00    +0.000 A 
ATOM      7  C   UNL     1      -0.370  11.003  20.636  0.00  0.00    +0.000 A 
ATOM      8  C   UNL     1       0.059  10.348  21.784  0.00  0.00    +0.000 A 
ATOM      9  N   UNL     1      -0.397  10.608  23.029  0.00  0.00    +0.000 NA
ATOM     10  C   UNL     1      -1.345  11.547  23.064  0.00  0.00    +0.000 A 
ATOM     11  N   UNL     1      -1.874  12.186  22.008  0.00  0.00    +0.000 NA
BRANCH   5  12
ATOM     12  C   UNL     1      -3.404  12.752  19.834  0.00  0.00    +0.000 C 
BRANCH  12  14
ATOM     13  C   UNL     1      -4.038  11.511  17.599  0.00  0.00    +0.000 C 
ATOM     14  C   UNL     1      -4.383  11.889  19.034  0.00  0.00    +0.000 C 
ENDBRANCH  12  14
ENDBRANCH   5  12
BRANCH   5  15
ATOM     15  C   UNL     1      -1.121  13.349  18.798  0.00  0.00    +0.000 C 
BRANCH  15  16
ATOM     16  C   UNL     1      -0.456  14.582  19.370  0.00  0.00    +0.000 C 
ATOM     17  C   UNL     1       0.942  14.956  18.933  0.00  0.00    +0.000 C 
ATOM     18  C   UNL     1      -0.193  15.911  18.697  0.00  0.00    +0.000 C 
ENDBRANCH  15  16
ENDBRANCH   5  15
ENDBRANCH   1   8
BRANCH   3  19
ATOM     19  C   UNL     1       1.723   7.319  20.178  0.00  0.00    +0.000 A 
ATOM     20  C   UNL     1       1.728   6.199  21.027  0.00  0.00    +0.000 A 
ATOM     21  C   UNL     1       2.499   5.070  20.763  0.00  0.00    +0.000 A 
ATOM     22  C   UNL     1       3.272   5.030  19.612  0.00  0.00    +0.000 A 
ATOM     23  C   UNL     1       3.275   6.117  18.728  0.00  0.00    +0.000 A 
ATOM     24  C   UNL     1       2.525   7.283  19.014  0.00  0.00    +0.000 A 
ATOM     25  C   UNL     1       2.646   8.451  18.069  0.00  0.00    +0.000 C 
BRANCH  22  26
ATOM     26  S   UNL     1       4.190   3.561  19.269  0.00  0.00    +0.000 S 
ATOM     27  O   UNL     1       5.579   3.949  19.075  0.00  0.00    +0.000 OA
ATOM     28  O   UNL     1       3.820   2.542  20.216  0.00  0.00    +0.000 OA
BRANCH  26  29
ATOM     29  N   UNL     1       3.628   3.101  17.750  0.00  0.00    +0.000 NA
ATOM     30  C   UNL     1       2.428   2.274  17.677  0.00  0.00    +0.000 C 
ATOM     31  H   UNL     1       4.395   2.874  17.116  0.00  0.00    +0.000 HD
ENDBRANCH  26  29
ENDBRANCH  22  26
ENDBRANCH   3  19
TORSDOF 8
ENDMDL
MODEL 7
REMARK VINA RESULT:      -6.9      2.834      4.503
REMARK  Name = 
REMARK  11 active torsions:
REMARK  status: ('A' for Active; 'I' for Inactive)
REMARK    1  A    between atoms: C_1  and  C_2
REMARK    2  A    between atoms: C_2  and  C_3
REMARK    3  A    between atoms: C_3  and  N_4
REMARK    4  A    between atoms: N_4  and  C_5
REMARK    5  A    between atoms: C_5  and  C_6
REMARK    6  A    between atoms: C_11  and  C_12
REMARK    7  A    between atoms: N_14  and  C_15
REMARK    8  A    between atoms: C_18  and  S_19
REMARK    9  A    between atoms: S_19  and  N_22
REMARK   10  A    between atoms: N_22  and  C_23
REMARK   11  A    between atoms: C_25  and  C_26
REMARK                            x       y       z     vdW  Elec       q    Type
REMARK                         _______ _______ _______ _____ _____    ______ ____
ROOT
ATOM      1  C   UNL     1       1.218   9.383  19.101  0.00  0.00    +0.000 C 
ATOM      2  O   UNL     1       0.294   9.747  18.374  0.00  0.00    +0.000 OA
ATOM      3  N   UNL     1       1.504   9.873  20.374  0.00  0.00    +0.000 N 
ATOM      4  H   UNL     1       2.381   9.562  20.777  0.00  0.00    +0.000 HD
ENDROOT
BRANCH   1   8
ATOM      5  N   UNL     1       2.774   4.773  18.841  0.00  0.00    +0.000 N 
ATOM      6  C   UNL     1       2.883   6.122  18.465  0.00  0.00    +0.000 A 
ATOM      7  C   UNL     1       2.119   7.077  19.084  0.00  0.00    +0.000 A 
ATOM      8  C   UNL     1       2.159   8.361  18.554  0.00  0.00    +0.000 A 
ATOM      9  N   UNL     1       2.946   8.738  17.523  0.00  0.00    +0.000 NA
ATOM     10  C   UNL     1       3.677   7.743  17.018  0.00  0.00    +0.000 A 
ATOM     11  N   UNL     1       3.658   6.459  17.413  0.00  0.00    +0.000 NA
BRANCH   5  12
ATOM     12  C   UNL     1       2.924   3.859  17.705  0.00  0.00    +0.000 C 
BRANCH  12  14
ATOM     13  C   UNL     1       3.527   1.411  18.467  0.00  0.00    +0.000 C 
ATOM     14  C   UNL     1       3.948   2.728  17.826  0.00  0.00    +0.000 C 
ENDBRANCH  12  14
ENDBRANCH   5  12
BRANCH   5  15
ATOM     15  C   UNL     1       3.171   4.417  20.208  0.00  0.00    +0.000 C 
BRANCH  15  16
ATOM     16  C   UNL     1       2.130   3.950  21.202  0.00  0.00    +0.000 C 
ATOM     17  C   UNL     1       0.910   3.199  20.720  0.00  0.00    +0.000 C 
ATOM     18  C   UNL     1       1.853   2.545  21.689  0.00  0.00    +0.000 C 
ENDBRANCH  15  16
ENDBRANCH   5  15
ENDBRANCH   1   8
BRANCH   3  19
ATOM     19  C   UNL     1       0.713  10.816  21.084  0.00  0.00    +0.000 A 
ATOM     20  C   UNL     1       0.835  12.190  20.817  0.00  0.00    +0.000 A 
ATOM     21  C   UNL     1       0.080  13.148  21.489  0.00  0.00    +0.000 A 
ATOM     22  C   UNL     1      -0.847  12.739  22.437  0.00  0.00    +0.000 A 
ATOM     23  C   UNL     1      -1.016  11.376  22.713  0.00  0.00    +0.000 A 
ATOM     24  C   UNL     1      -0.220  10.402  22.062  0.00  0.00    +0.000 A 
ATOM     25  C   UNL     1      -0.388   8.962  22.473  0.00  0.00    +0.000 C 
BRANCH  22  26
ATOM     26  S   UNL     1      -1.837  13.969  23.227  0.00  0.00    +0.000 S 
ATOM     27  O   UNL     1      -1.089  14.462  24.373  0.00  0.00    +0.000 OA
ATOM     28  O   UNL     1      -2.361  14.865  22.231  0.00  0.00    +0.000 OA
BRANCH  26  29
ATOM     29  N   UNL     1      -3.118  13.081  23.866  0.00  0.00    +0.000 NA
ATOM     30  C   UNL     1      -4.342  12.970  23.081  0.00  0.00    +0.000 C 
ATOM     31  H   UNL     1      -3.215  13.227  24.871  0.00  0.00    +0.000 HD
ENDBRANCH  26  29
ENDBRANCH  22  26
ENDBRANCH   3  19
TORSDOF 8
ENDMDL
MODEL 8
REMARK VINA RESULT:      -6.9      4.041      9.693
REMARK  Name = 
REMARK  11 active torsions:
REMARK  status: ('A' for Active; 'I' for Inactive)
REMARK    1  A    between atoms: C_1  and  C_2
REMARK    2  A    between atoms: C_2  and  C_3
REMARK    3  A    between atoms: C_3  and  N_4
REMARK    4  A    between atoms: N_4  and  C_5
REMARK    5  A    between atoms: C_5  and  C_6
REMARK    6  A    between atoms: C_11  and  C_12
REMARK    7  A    between atoms: N_14  and  C_15
REMARK    8  A    between atoms: C_18  and  S_19
REMARK    9  A    between atoms: S_19  and  N_22
REMARK   10  A    between atoms: N_22  and  C_23
REMARK   11  A    between atoms: C_25  and  C_26
REMARK                            x       y       z     vdW  Elec       q    Type
REMARK                         _______ _______ _______ _____ _____    ______ ____
ROOT
ATOM      1  C   UNL     1       1.440   9.961  18.337  0.00  0.00    +0.000 C 
ATOM      2  O   UNL     1       2.328  10.342  17.575  0.00  0.00    +0.000 OA
ATOM      3  N   UNL     1       1.343   8.698  18.919  0.00  0.00    +0.000 N 
ATOM      4  H   UNL     1       0.476   8.506  19.409  0.00  0.00    +0.000 HD
ENDROOT
BRANCH   1   8
ATOM      5  N   UNL     1      -3.249  11.228  17.957  0.00  0.00    +0.000 N 
ATOM      6  C   UNL     1      -1.946  11.492  18.410  0.00  0.00    +0.000 A 
ATOM      7  C   UNL     1      -0.903  10.695  18.014  0.00  0.00    +0.000 A 
ATOM      8  C   UNL     1       0.327  10.914  18.624  0.00  0.00    +0.000 A 
ATOM      9  N   UNL     1       0.572  11.895  19.520  0.00  0.00    +0.000 NA
ATOM     10  C   UNL     1      -0.499  12.637  19.806  0.00  0.00    +0.000 A 
ATOM     11  N   UNL     1      -1.742  12.463  19.324  0.00  0.00    +0.000 NA
BRANCH   5  12
ATOM     12  C   UNL     1      -4.265  11.517  18.975  0.00  0.00    +0.000 C 
BRANCH  12  14
ATOM     13  C   UNL     1      -6.799  11.154  18.355  0.00  0.00    +0.000 C 
ATOM     14  C   UNL     1      -5.605  12.089  18.506  0.00  0.00    +0.000 C 
ENDBRANCH  12  14
ENDBRANCH   5  12
BRANCH   5  15
ATOM     15  C   UNL     1      -3.506  11.352  16.518  0.00  0.00    +0.000 C 
BRANCH  15  16
ATOM     16  C   UNL     1      -3.508  10.119  15.641  0.00  0.00    +0.000 C 
ATOM     17  C   UNL     1      -4.017  10.205  14.220  0.00  0.00    +0.000 C 
ATOM     18  C   UNL     1      -2.598   9.785  14.479  0.00  0.00    +0.000 C 
ENDBRANCH  15  16
ENDBRANCH   5  15
ENDBRANCH   1   8
BRANCH   3  19
ATOM     19  C   UNL     1       2.313   7.666  18.801  0.00  0.00    +0.000 A 
ATOM     20  C   UNL     1       3.229   7.671  17.735  0.00  0.00    +0.000 A 
ATOM     21  C   UNL     1       4.195   6.680  17.582  0.00  0.00    +0.000 A 
ATOM     22  C   UNL     1       4.281   5.665  18.523  0.00  0.00    +0.000 A 
ATOM     23  C   UNL     1       3.401   5.639  19.614  0.00  0.00    +0.000 A 
ATOM     24  C   UNL     1       2.391   6.622  19.750  0.00  0.00    +0.000 A 
ATOM     25  C   UNL     1       1.420   6.483  20.894  0.00  0.00    +0.000 C 
BRANCH  22  26
ATOM     26  S   UNL     1       5.556   4.457  18.340  0.00  0.00    +0.000 S 
ATOM     27  O   UNL     1       6.786   5.165  18.019  0.00  0.00    +0.000 OA
ATOM     28  O   UNL     1       5.489   3.530  19.438  0.00  0.00    +0.000 OA
BRANCH  26  29
ATOM     29  N   UNL     1       5.117   3.643  16.933  0.00  0.00    +0.000 NA
ATOM     30  C   UNL     1       5.901   3.875  15.725  0.00  0.00    +0.000 C 
ATOM     31  H   UNL     1       4.103   3.583  16.831  0.00  0.00    +0.000 HD
ENDBRANCH  26  29
ENDBRANCH  22  26
ENDBRANCH   3  19
TORSDOF 8
ENDMDL
MODEL 9
REMARK VINA RESULT:      -6.9      1.713      2.314
REMARK  Name = 
REMARK  11 active torsions:
REMARK  status: ('A' for Active; 'I' for Inactive)
REMARK    1  A    between atoms: C_1  and  C_2
REMARK    2  A    between atoms: C_2  and  C_3
REMARK    3  A    between atoms: C_3  and  N_4
REMARK    4  A    between atoms: N_4  and  C_5
REMARK    5  A    between atoms: C_5  and  C_6
REMARK    6  A    between atoms: C_11  and  C_12
REMARK    7  A    between atoms: N_14  and  C_15
REMARK    8  A    between atoms: C_18  and  S_19
REMARK    9  A    between atoms: S_19  and  N_22
REMARK   10  A    between atoms: N_22  and  C_23
REMARK   11  A    between atoms: C_25  and  C_26
REMARK                            x       y       z     vdW  Elec       q    Type
REMARK                         _______ _______ _______ _____ _____    ______ ____
ROOT
ATOM      1  C   UNL     1       2.144   8.178  18.340  0.00  0.00    +0.000 C 
ATOM      2  O   UNL     1       2.351   8.964  17.416  0.00  0.00    +0.000 OA
ATOM      3  N   UNL     1       1.450   8.456  19.516  0.00  0.00    +0.000 N 
ATOM      4  H   UNL     1       1.492   7.739  20.231  0.00  0.00    +0.000 HD
ENDROOT
BRANCH   1   8
ATOM      5  N   UNL     1       5.677   5.223  16.751  0.00  0.00    +0.000 N 
ATOM      6  C   UNL     1       4.464   5.421  17.431  0.00  0.00    +0.000 A 
ATOM      7  C   UNL     1       3.847   6.644  17.402  0.00  0.00    +0.000 A 
ATOM      8  C   UNL     1       2.739   6.813  18.225  0.00  0.00    +0.000 A 
ATOM      9  N   UNL     1       2.198   5.839  18.988  0.00  0.00    +0.000 NA
ATOM     10  C   UNL     1       2.851   4.678  18.914  0.00  0.00    +0.000 A 
ATOM     11  N   UNL     1       3.967   4.434  18.205  0.00  0.00    +0.000 NA
BRANCH   5  12
ATOM     12  C   UNL     1       6.578   4.312  17.464  0.00  0.00    +0.000 C 
BRANCH  12  14
ATOM     13  C   UNL     1       7.790   6.112  18.955  0.00  0.00    +0.000 C 
ATOM     14  C   UNL     1       7.869   4.892  18.046  0.00  0.00    +0.000 C 
ENDBRANCH  12  14
ENDBRANCH   5  12
BRANCH   5  15
ATOM     15  C   UNL     1       5.664   5.348  15.289  0.00  0.00    +0.000 C 
BRANCH  15  16
ATOM     16  C   UNL     1       6.570   4.478  14.446  0.00  0.00    +0.000 C 
ATOM     17  C   UNL     1       6.015   3.756  13.240  0.00  0.00    +0.000 C 
ATOM     18  C   UNL     1       7.125   4.752  13.065  0.00  0.00    +0.000 C 
ENDBRANCH  15  16
ENDBRANCH   5  15
ENDBRANCH   1   8
BRANCH   3  19
ATOM     19  C   UNL     1       0.781   9.677  19.801  0.00  0.00    +0.000 A 
ATOM     20  C   UNL     1       0.307  10.489  18.756  0.00  0.00    +0.000 A 
ATOM     21  C   UNL     1      -0.354  11.692  18.991  0.00  0.00    +0.000 A 
ATOM     22  C   UNL     1      -0.581  12.097  20.298  0.00  0.00    +0.000 A 
ATOM     23  C   UNL     1      -0.146  11.303  21.367  0.00  0.00    +0.000 A 
ATOM     24  C   UNL     1       0.563  10.100  21.132  0.00  0.00    +0.000 A 
ATOM     25  C   UNL     1       1.084   9.342  22.325  0.00  0.00    +0.000 C 
BRANCH  22  26
ATOM     26  S   UNL     1      -1.478  13.594  20.568  0.00  0.00    +0.000 S 
ATOM     27  O   UNL     1      -1.712  13.712  21.999  0.00  0.00    +0.000 OA
ATOM     28  O   UNL     1      -0.860  14.656  19.818  0.00  0.00    +0.000 OA
BRANCH  26  29
ATOM     29  N   UNL     1      -2.983  13.271  19.884  0.00  0.00    +0.000 NA
ATOM     30  C   UNL     1      -4.177  13.590  20.658  0.00  0.00    +0.000 C 
ATOM     31  H   UNL     1      -2.980  12.393  19.363  0.00  0.00    +0.000 HD
ENDBRANCH  26  29
ENDBRANCH  22  26
ENDBRANCH   3  19
TORSDOF 8
ENDMDL
