MODEL 1
REMARK VINA RESULT:      -7.6      0.000      0.000
REMARK  Name = 
REMARK  10 active torsions:
REMARK  status: ('A' for Active; 'I' for Inactive)
REMARK    1  A    between atoms: C_1  and  O_2
REMARK    2  A    between atoms: O_2  and  C_3
REMARK    3  A    between atoms: C_6  and  C_7
REMARK    4  A    between atoms: N_8  and  N_9
REMARK    5  A    between atoms: C_10  and  C_12
REMARK    6  A    between atoms: C_12  and  C_13
REMARK    7  A    between atoms: C_13  and  S_14
REMARK    8  A    between atoms: S_14  and  C_15
REMARK    9  A    between atoms: C_25  and  O_26
REMARK   10  A    between atoms: O_26  and  C_27
REMARK                            x       y       z     vdW  Elec       q    Type
REMARK                         _______ _______ _______ _____ _____    ______ ____
ROOT
ATOM      1  N   UNL     1       2.239   5.821  21.064  0.00  0.00    +0.000 N 
ATOM      2  C   UNL     1       1.688   4.618  20.640  0.00  0.00    +0.000 C 
ATOM      3  O   UNL     1       0.864   4.500  19.734  0.00  0.00    +0.000 OA
ATOM      4  H   UNL     1       2.919   5.861  21.814  0.00  0.00    +0.000 HD
ENDROOT
BRANCH   1   6
ATOM      5  C   UNL     1       1.210   7.853  21.110  0.00  0.00    +0.000 C 
ATOM      6  N   UNL     1       1.854   6.963  20.427  0.00  0.00    +0.000 NA
BRANCH   5  10
ATOM      7  C   UNL     1      -0.226  11.430  19.222  0.00  0.00    +0.000 A 
ATOM      8  C   UNL     1       0.740  10.624  18.598  0.00  0.00    +0.000 A 
ATOM      9  C   UNL     1       1.199   9.453  19.202  0.00  0.00    +0.000 A 
ATOM     10  C   UNL     1       0.761   9.109  20.473  0.00  0.00    +0.000 A 
ATOM     11  C   UNL     1      -0.128   9.955  21.146  0.00  0.00    +0.000 A 
ATOM     12  C   UNL     1      -0.631  11.118  20.533  0.00  0.00    +0.000 A 
BRANCH   7  14
ATOM     13  C   UNL     1       0.093  13.664  18.506  0.00  0.00    +0.000 C 
ATOM     14  O   UNL     1      -0.757  12.514  18.571  0.00  0.00    +0.000 OA
ENDBRANCH   7  14
BRANCH  12  15
ATOM     15  O   UNL     1      -1.508  11.784  21.354  0.00  0.00    +0.000 OA
ATOM     16  C   UNL     1      -1.103  12.173  22.659  0.00  0.00    +0.000 C 
ENDBRANCH  12  15
ENDBRANCH   5  10
ENDBRANCH   1   6
BRANCH   2  17
ATOM     17  C   UNL     1       2.162   3.403  21.405  0.00  0.00    +0.000 C 
BRANCH  17  18
ATOM     18  C   UNL     1       3.447   2.818  20.815  0.00  0.00    +0.000 C 
BRANCH  18  19
ATOM     19  S   UNL     1       3.483   2.616  19.001  0.00  0.00    +0.000 S 
BRANCH  19  20
ATOM     20  C   UNL     1       4.620   3.846  18.499  0.00  0.00    +0.000 A 
ATOM     21  N   UNL     1       5.737   4.054  19.151  0.00  0.00    +0.000 NA
ATOM     22  C   UNL     1       6.373   5.173  18.652  0.00  0.00    +0.000 A 
ATOM     23  C   UNL     1       7.561   5.732  19.161  0.00  0.00    +0.000 A 
ATOM     24  C   UNL     1       8.083   6.893  18.589  0.00  0.00    +0.000 A 
ATOM     25  C   UNL     1       7.440   7.494  17.510  0.00  0.00    +0.000 A 
ATOM     26  C   UNL     1       6.266   6.950  16.976  0.00  0.00    +0.000 A 
ATOM     27  C   UNL     1       5.743   5.789  17.570  0.00  0.00    +0.000 A 
ATOM     28  S   UNL     1       4.317   4.900  17.184  0.00  0.00    +0.000 S 
ENDBRANCH  19  20
ENDBRANCH  18  19
ENDBRANCH  17  18
ENDBRANCH   2  17
TORSDOF 8
ENDMDL
MODEL 2
REMARK VINA RESULT:      -7.5      5.326      8.036
REMARK  Name = 
REMARK  10 active torsions:
REMARK  status: ('A' for Active; 'I' for Inactive)
REMARK    1  A    between atoms: C_1  and  O_2
REMARK    2  A    between atoms: O_2  and  C_3
REMARK    3  A    between atoms: C_6  and  C_7
REMARK    4  A    between atoms: N_8  and  N_9
REMARK    5  A    between atoms: C_10  and  C_12
REMARK    6  A    between atoms: C_12  and  C_13
REMARK    7  A    between atoms: C_13  and  S_14
REMARK    8  A    between atoms: S_14  and  C_15
REMARK    9  A    between atoms: C_25  and  O_26
REMARK   10  A    between atoms: O_26  and  C_27
REMARK                            x       y       z     vdW  Elec       q    Type
REMARK                         _______ _______ _______ _____ _____    ______ ____
ROOT
ATOM      1  N   UNL     1       8.565   8.031  18.937  0.00  0.00    +0.000 N 
ATOM      2  C   UNL     1       7.746   7.389  18.017  0.00  0.00    +0.000 C 
ATOM      3  O   UNL     1       7.381   7.867  16.944  0.00  0.00    +0.000 OA
ATOM      4  H   UNL     1       8.841   7.588  19.806  0.00  0.00    +0.000 HD
ENDROOT
BRANCH   1   6
ATOM      5  C   UNL     1       9.392  10.045  19.606  0.00  0.00    +0.000 C 
ATOM      6  N   UNL     1       9.016   9.281  18.632  0.00  0.00    +0.000 NA
BRANCH   5  10
ATOM      7  C   UNL     1      10.797  13.994  18.682  0.00  0.00    +0.000 A 
ATOM      8  C   UNL     1      11.697  12.971  19.023  0.00  0.00    +0.000 A 
ATOM      9  C   UNL     1      11.245  11.683  19.310  0.00  0.00    +0.000 A 
ATOM     10  C   UNL     1       9.884  11.414  19.340  0.00  0.00    +0.000 A 
ATOM     11  C   UNL     1       8.973  12.449  19.097  0.00  0.00    +0.000 A 
ATOM     12  C   UNL     1       9.416  13.744  18.766  0.00  0.00    +0.000 A 
BRANCH   7  14
ATOM     13  C   UNL     1      11.281  15.444  16.873  0.00  0.00    +0.000 C 
ATOM     14  O   UNL     1      11.257  15.225  18.288  0.00  0.00    +0.000 OA
ENDBRANCH   7  14
BRANCH  12  15
ATOM     15  O   UNL     1       8.362  14.595  18.539  0.00  0.00    +0.000 OA
ATOM     16  C   UNL     1       7.493  14.948  19.606  0.00  0.00    +0.000 C 
ENDBRANCH  12  15
ENDBRANCH   5  10
ENDBRANCH   1   6
BRANCH   2  17
ATOM     17  C   UNL     1       7.285   6.012  18.437  0.00  0.00    +0.000 C 
BRANCH  17  18
ATOM     18  C   UNL     1       7.349   5.009  17.283  0.00  0.00    +0.000 C 
BRANCH  18  19
ATOM     19  S   UNL     1       5.766   4.629  16.456  0.00  0.00    +0.000 S 
BRANCH  19  20
ATOM     20  C   UNL     1       4.659   4.466  17.800  0.00  0.00    +0.000 A 
ATOM     21  N   UNL     1       4.809   3.528  18.702  0.00  0.00    +0.000 NA
ATOM     22  C   UNL     1       3.725   3.518  19.556  0.00  0.00    +0.000 A 
ATOM     23  C   UNL     1       3.517   2.595  20.600  0.00  0.00    +0.000 A 
ATOM     24  C   UNL     1       2.354   2.669  21.370  0.00  0.00    +0.000 A 
ATOM     25  C   UNL     1       1.407   3.658  21.118  0.00  0.00    +0.000 A 
ATOM     26  C   UNL     1       1.598   4.595  20.096  0.00  0.00    +0.000 A 
ATOM     27  C   UNL     1       2.764   4.502  19.319  0.00  0.00    +0.000 A 
ATOM     28  S   UNL     1       3.277   5.462  17.982  0.00  0.00    +0.000 S 
ENDBRANCH  19  20
ENDBRANCH  18  19
ENDBRANCH  17  18
ENDBRANCH   2  17
TORSDOF 8
ENDMDL
MODEL 3
REMARK VINA RESULT:      -7.4      5.623      8.359
REMARK  Name = 
REMARK  10 active torsions:
REMARK  status: ('A' for Active; 'I' for Inactive)
REMARK    1  A    between atoms: C_1  and  O_2
REMARK    2  A    between atoms: O_2  and  C_3
REMARK    3  A    between atoms: C_6  and  C_7
REMARK    4  A    between atoms: N_8  and  N_9
REMARK    5  A    between atoms: C_10  and  C_12
REMARK    6  A    between atoms: C_12  and  C_13
REMARK    7  A    between atoms: C_13  and  S_14
REMARK    8  A    between atoms: S_14  and  C_15
REMARK    9  A    between atoms: C_25  and  O_26
REMARK   10  A    between atoms: O_26  and  C_27
REMARK                            x       y       z     vdW  Elec       q    Type
REMARK                         _______ _______ _______ _____ _____    ______ ____
ROOT
ATOM      1  N   UNL     1       8.597   8.626  18.834  0.00  0.00    +0.000 N 
ATOM      2  C   UNL     1       8.037   7.679  17.986  0.00  0.00    +0.000 C 
ATOM      3  O   UNL     1       7.783   7.862  16.795  0.00  0.00    +0.000 OA
ATOM      4  H   UNL     1       8.791   8.421  19.808  0.00  0.00    +0.000 HD
ENDROOT
BRANCH   1   6
ATOM      5  C   UNL     1       9.725  10.600  18.978  0.00  0.00    +0.000 C 
ATOM      6  N   UNL     1       8.903   9.850  18.317  0.00  0.00    +0.000 NA
BRANCH   5  10
ATOM      7  C   UNL     1      10.672  14.480  17.407  0.00  0.00    +0.000 A 
ATOM      8  C   UNL     1      11.462  13.363  17.091  0.00  0.00    +0.000 A 
ATOM      9  C   UNL     1      11.149  12.098  17.588  0.00  0.00    +0.000 A 
ATOM     10  C   UNL     1      10.091  11.940  18.472  0.00  0.00    +0.000 A 
ATOM     11  C   UNL     1       9.356  13.062  18.871  0.00  0.00    +0.000 A 
ATOM     12  C   UNL     1       9.634  14.338  18.345  0.00  0.00    +0.000 A 
BRANCH   7  14
ATOM     13  C   UNL     1      12.028  16.421  17.359  0.00  0.00    +0.000 C 
ATOM     14  O   UNL     1      10.916  15.696  16.821  0.00  0.00    +0.000 OA
ENDBRANCH   7  14
BRANCH  12  15
ATOM     15  O   UNL     1       8.778  15.289  18.846  0.00  0.00    +0.000 OA
ATOM     16  C   UNL     1       7.377  15.055  18.846  0.00  0.00    +0.000 C 
ENDBRANCH  12  15
ENDBRANCH   5  10
ENDBRANCH   1   6
BRANCH   2  17
ATOM     17  C   UNL     1       7.721   6.354  18.640  0.00  0.00    +0.000 C 
BRANCH  17  18
ATOM     18  C   UNL     1       6.829   5.477  17.760  0.00  0.00    +0.000 C 
BRANCH  18  19
ATOM     19  S   UNL     1       5.252   6.220  17.215  0.00  0.00    +0.000 S 
BRANCH  19  20
ATOM     20  C   UNL     1       4.061   5.239  18.039  0.00  0.00    +0.000 A 
ATOM     21  N   UNL     1       3.626   5.551  19.235  0.00  0.00    +0.000 NA
ATOM     22  C   UNL     1       2.819   4.541  19.720  0.00  0.00    +0.000 A 
ATOM     23  C   UNL     1       2.238   4.505  21.002  0.00  0.00    +0.000 A 
ATOM     24  C   UNL     1       1.472   3.403  21.387  0.00  0.00    +0.000 A 
ATOM     25  C   UNL     1       1.270   2.346  20.504  0.00  0.00    +0.000 A 
ATOM     26  C   UNL     1       1.824   2.364  19.218  0.00  0.00    +0.000 A 
ATOM     27  C   UNL     1       2.605   3.472  18.849  0.00  0.00    +0.000 A 
ATOM     28  S   UNL     1       3.447   3.784  17.376  0.00  0.00    +0.000 S 
ENDBRANCH  19  20
ENDBRANCH  18  19
ENDBRANCH  17  18
ENDBRANCH   2  17
TORSDOF 8
ENDMDL
MODEL 4
REMARK VINA RESULT:      -7.3      2.360      4.786
REMARK  Name = 
REMARK  10 active torsions:
REMARK  status: ('A' for Active; 'I' for Inactive)
REMARK    1  A    between atoms: C_1  and  O_2
REMARK    2  A    between atoms: O_2  and  C_3
REMARK    3  A    between atoms: C_6  and  C_7
REMARK    4  A    between atoms: N_8  and  N_9
REMARK    5  A    between atoms: C_10  and  C_12
REMARK    6  A    between atoms: C_12  and  C_13
REMARK    7  A    between atoms: C_13  and  S_14
REMARK    8  A    between atoms: S_14  and  C_15
REMARK    9  A    between atoms: C_25  and  O_26
REMARK   10  A    between atoms: O_26  and  C_27
REMARK                            x       y       z     vdW  Elec       q    Type
REMARK                         _______ _______ _______ _____ _____    ______ ____
ROOT
ATOM      1  N   UNL     1       4.653   6.775  16.898  0.00  0.00    +0.000 N 
ATOM      2  C   UNL     1       6.039   6.859  16.885  0.00  0.00    +0.000 C 
ATOM      3  O   UNL     1       6.708   7.597  17.608  0.00  0.00    +0.000 OA
ATOM      4  H   UNL     1       4.150   6.145  16.284  0.00  0.00    +0.000 HD
ENDROOT
BRANCH   1   6
ATOM      5  C   UNL     1       2.778   7.190  18.124  0.00  0.00    +0.000 C 
ATOM      6  N   UNL     1       3.971   7.557  17.784  0.00  0.00    +0.000 NA
BRANCH   5  10
ATOM      7  C   UNL     1       0.599   9.636  20.898  0.00  0.00    +0.000 A 
ATOM      8  C   UNL     1       1.148   8.407  21.299  0.00  0.00    +0.000 A 
ATOM      9  C   UNL     1       1.869   7.616  20.403  0.00  0.00    +0.000 A 
ATOM     10  C   UNL     1       1.986   8.000  19.075  0.00  0.00    +0.000 A 
ATOM     11  C   UNL     1       1.361   9.174  18.641  0.00  0.00    +0.000 A 
ATOM     12  C   UNL     1       0.666  10.004  19.542  0.00  0.00    +0.000 A 
BRANCH   7  14
ATOM     13  C   UNL     1      -0.552   9.805  22.961  0.00  0.00    +0.000 C 
ATOM     14  O   UNL     1      -0.005  10.461  21.811  0.00  0.00    +0.000 OA
ENDBRANCH   7  14
BRANCH  12  15
ATOM     15  O   UNL     1       0.157  11.115  18.916  0.00  0.00    +0.000 OA
ATOM     16  C   UNL     1      -1.112  11.054  18.280  0.00  0.00    +0.000 C 
ENDBRANCH  12  15
ENDBRANCH   5  10
ENDBRANCH   1   6
BRANCH   2  17
ATOM     17  C   UNL     1       6.715   5.966  15.870  0.00  0.00    +0.000 C 
BRANCH  17  18
ATOM     18  C   UNL     1       6.808   4.516  16.351  0.00  0.00    +0.000 C 
BRANCH  18  19
ATOM     19  S   UNL     1       5.437   3.414  15.861  0.00  0.00    +0.000 S 
BRANCH  19  20
ATOM     20  C   UNL     1       4.407   3.430  17.275  0.00  0.00    +0.000 A 
ATOM     21  N   UNL     1       3.116   3.229  17.185  0.00  0.00    +0.000 NA
ATOM     22  C   UNL     1       2.518   3.449  18.409  0.00  0.00    +0.000 A 
ATOM     23  C   UNL     1       1.134   3.395  18.663  0.00  0.00    +0.000 A 
ATOM     24  C   UNL     1       0.652   3.678  19.943  0.00  0.00    +0.000 A 
ATOM     25  C   UNL     1       1.534   4.001  20.970  0.00  0.00    +0.000 A 
ATOM     26  C   UNL     1       2.915   4.048  20.746  0.00  0.00    +0.000 A 
ATOM     27  C   UNL     1       3.387   3.775  19.452  0.00  0.00    +0.000 A 
ATOM     28  S   UNL     1       5.000   3.782  18.843  0.00  0.00    +0.000 S 
ENDBRANCH  19  20
ENDBRANCH  18  19
ENDBRANCH  17  18
ENDBRANCH   2  17
TORSDOF 8
ENDMDL
MODEL 5
REMARK VINA RESULT:      -7.2      2.308      4.773
REMARK  Name = 
REMARK  10 active torsions:
REMARK  status: ('A' for Active; 'I' for Inactive)
REMARK    1  A    between atoms: C_1  and  O_2
REMARK    2  A    between atoms: O_2  and  C_3
REMARK    3  A    between atoms: C_6  and  C_7
REMARK    4  A    between atoms: N_8  and  N_9
REMARK    5  A    between atoms: C_10  and  C_12
REMARK    6  A    between atoms: C_12  and  C_13
REMARK    7  A    between atoms: C_13  and  S_14
REMARK    8  A    between atoms: S_14  and  C_15
REMARK    9  A    between atoms: C_25  and  O_26
REMARK   10  A    between atoms: O_26  and  C_27
REMARK                            x       y       z     vdW  Elec       q    Type
REMARK                         _______ _______ _______ _____ _____    ______ ____
ROOT
ATOM      1  N   UNL     1       4.538   6.828  16.553  0.00  0.00    +0.000 N 
ATOM      2  C   UNL     1       5.916   6.880  16.717  0.00  0.00    +0.000 C 
ATOM      3  O   UNL     1       6.505   7.609  17.515  0.00  0.00    +0.000 OA
ATOM      4  H   UNL     1       4.104   6.204  15.883  0.00  0.00    +0.000 HD
ENDROOT
BRANCH   1   6
ATOM      5  C   UNL     1       2.967   7.070  18.185  0.00  0.00    +0.000 C 
ATOM      6  N   UNL     1       3.768   7.633  17.339  0.00  0.00    +0.000 NA
BRANCH   5  10
ATOM      7  C   UNL     1       0.576   9.541  20.754  0.00  0.00    +0.000 A 
ATOM      8  C   UNL     1       1.032   8.284  21.184  0.00  0.00    +0.000 A 
ATOM      9  C   UNL     1       1.821   7.485  20.357  0.00  0.00    +0.000 A 
ATOM     10  C   UNL     1       2.102   7.890  19.060  0.00  0.00    +0.000 A 
ATOM     11  C   UNL     1       1.572   9.095  18.587  0.00  0.00    +0.000 A 
ATOM     12  C   UNL     1       0.808   9.932  19.423  0.00  0.00    +0.000 A 
BRANCH   7  14
ATOM     13  C   UNL     1      -0.233   9.884  22.953  0.00  0.00    +0.000 C 
ATOM     14  O   UNL     1      -0.100  10.370  21.613  0.00  0.00    +0.000 OA
ENDBRANCH   7  14
BRANCH  12  15
ATOM     15  O   UNL     1       0.413  11.074  18.770  0.00  0.00    +0.000 OA
ATOM     16  C   UNL     1      -0.914  11.187  18.277  0.00  0.00    +0.000 C 
ENDBRANCH  12  15
ENDBRANCH   5  10
ENDBRANCH   1   6
BRANCH   2  17
ATOM     17  C   UNL     1       6.695   5.963  15.802  0.00  0.00    +0.000 C 
BRANCH  17  18
ATOM     18  C   UNL     1       6.795   4.542  16.361  0.00  0.00    +0.000 C 
BRANCH  18  19
ATOM     19  S   UNL     1       6.779   4.389  18.181  0.00  0.00    +0.000 S 
BRANCH  19  20
ATOM     20  C   UNL     1       5.093   4.075  18.525  0.00  0.00    +0.000 A 
ATOM     21  N   UNL     1       4.576   4.327  19.702  0.00  0.00    +0.000 NA
ATOM     22  C   UNL     1       3.283   3.847  19.761  0.00  0.00    +0.000 A 
ATOM     23  C   UNL     1       2.451   3.879  20.897  0.00  0.00    +0.000 A 
ATOM     24  C   UNL     1       1.172   3.322  20.837  0.00  0.00    +0.000 A 
ATOM     25  C   UNL     1       0.712   2.747  19.656  0.00  0.00    +0.000 A 
ATOM     26  C   UNL     1       1.514   2.715  18.509  0.00  0.00    +0.000 A 
ATOM     27  C   UNL     1       2.804   3.266  18.586  0.00  0.00    +0.000 A 
ATOM     28  S   UNL     1       4.038   3.355  17.385  0.00  0.00    +0.000 S 
ENDBRANCH  19  20
ENDBRANCH  18  19
ENDBRANCH  17  18
ENDBRANCH   2  17
TORSDOF 8
ENDMDL
MODEL 6
REMARK VINA RESULT:      -7.2      4.932      7.833
REMARK  Name = 
REMARK  10 active torsions:
REMARK  status: ('A' for Active; 'I' for Inactive)
REMARK    1  A    between atoms: C_1  and  O_2
REMARK    2  A    between atoms: O_2  and  C_3
REMARK    3  A    between atoms: C_6  and  C_7
REMARK    4  A    between atoms: N_8  and  N_9
REMARK    5  A    between atoms: C_10  and  C_12
REMARK    6  A    between atoms: C_12  and  C_13
REMARK    7  A    between atoms: C_13  and  S_14
REMARK    8  A    between atoms: S_14  and  C_15
REMARK    9  A    between atoms: C_25  and  O_26
REMARK   10  A    between atoms: O_26  and  C_27
REMARK                            x       y       z     vdW  Elec       q    Type
REMARK                         _______ _______ _______ _____ _____    ______ ____
ROOT
ATOM      1  N   UNL     1       7.502   7.811  17.113  0.00  0.00    +0.000 N 
ATOM      2  C   UNL     1       7.486   6.565  17.727  0.00  0.00    +0.000 C 
ATOM      3  O   UNL     1       7.677   6.367  18.927  0.00  0.00    +0.000 OA
ATOM      4  H   UNL     1       7.333   7.918  16.120  0.00  0.00    +0.000 HD
ENDROOT
BRANCH   1   6
ATOM      5  C   UNL     1       8.799   9.603  17.659  0.00  0.00    +0.000 C 
ATOM      6  N   UNL     1       7.733   8.907  17.891  0.00  0.00    +0.000 NA
BRANCH   5  10
ATOM      7  C   UNL     1       9.814  13.100  19.932  0.00  0.00    +0.000 A 
ATOM      8  C   UNL     1      10.087  11.814  20.428  0.00  0.00    +0.000 A 
ATOM      9  C   UNL     1       9.771  10.676  19.685  0.00  0.00    +0.000 A 
ATOM     10  C   UNL     1       9.107  10.798  18.474  0.00  0.00    +0.000 A 
ATOM     11  C   UNL     1       8.742  12.068  18.014  0.00  0.00    +0.000 A 
ATOM     12  C   UNL     1       9.090  13.229  18.732  0.00  0.00    +0.000 A 
BRANCH   7  14
ATOM     13  C   UNL     1      11.453  14.796  20.142  0.00  0.00    +0.000 C 
ATOM     14  O   UNL     1      10.232  14.214  20.613  0.00  0.00    +0.000 OA
ENDBRANCH   7  14
BRANCH  12  15
ATOM     15  O   UNL     1       8.663  14.367  18.093  0.00  0.00    +0.000 OA
ATOM     16  C   UNL     1       7.285  14.538  17.793  0.00  0.00    +0.000 C 
ENDBRANCH  12  15
ENDBRANCH   5  10
ENDBRANCH   1   6
BRANCH   2  17
ATOM     17  C   UNL     1       7.232   5.405  16.792  0.00  0.00    +0.000 C 
BRANCH  17  18
ATOM     18  C   UNL     1       5.900   5.544  16.052  0.00  0.00    +0.000 C 
BRANCH  18  19
ATOM     19  S   UNL     1       4.649   6.616  16.839  0.00  0.00    +0.000 S 
BRANCH  19  20
ATOM     20  C   UNL     1       3.679   5.475  17.743  0.00  0.00    +0.000 A 
ATOM     21  N   UNL     1       3.077   5.816  18.855  0.00  0.00    +0.000 NA
ATOM     22  C   UNL     1       2.515   4.703  19.448  0.00  0.00    +0.000 A 
ATOM     23  C   UNL     1       1.854   4.686  20.691  0.00  0.00    +0.000 A 
ATOM     24  C   UNL     1       1.363   3.482  21.200  0.00  0.00    +0.000 A 
ATOM     25  C   UNL     1       1.513   2.302  20.478  0.00  0.00    +0.000 A 
ATOM     26  C   UNL     1       2.154   2.295  19.233  0.00  0.00    +0.000 A 
ATOM     27  C   UNL     1       2.657   3.509  18.738  0.00  0.00    +0.000 A 
ATOM     28  S   UNL     1       3.515   3.834  17.279  0.00  0.00    +0.000 S 
ENDBRANCH  19  20
ENDBRANCH  18  19
ENDBRANCH  17  18
ENDBRANCH   2  17
TORSDOF 8
ENDMDL
MODEL 7
REMARK VINA RESULT:      -7.1      1.472      1.775
REMARK  Name = 
REMARK  10 active torsions:
REMARK  status: ('A' for Active; 'I' for Inactive)
REMARK    1  A    between atoms: C_1  and  O_2
REMARK    2  A    between atoms: O_2  and  C_3
REMARK    3  A    between atoms: C_6  and  C_7
REMARK    4  A    between atoms: N_8  and  N_9
REMARK    5  A    between atoms: C_10  and  C_12
REMARK    6  A    between atoms: C_12  and  C_13
REMARK    7  A    between atoms: C_13  and  S_14
REMARK    8  A    between atoms: S_14  and  C_15
REMARK    9  A    between atoms: C_25  and  O_26
REMARK   10  A    between atoms: O_26  and  C_27
REMARK                            x       y       z     vdW  Elec       q    Type
REMARK                         _______ _______ _______ _____ _____    ______ ____
ROOT
ATOM      1  N   UNL     1       1.677   7.009  21.182  0.00  0.00    +0.000 N 
ATOM      2  C   UNL     1       2.097   6.145  20.179  0.00  0.00    +0.000 C 
ATOM      3  O   UNL     1       2.329   6.473  19.016  0.00  0.00    +0.000 OA
ATOM      4  H   UNL     1       1.504   6.687  22.126  0.00  0.00    +0.000 HD
ENDROOT
BRANCH   1   6
ATOM      5  C   UNL     1       0.318   8.809  20.859  0.00  0.00    +0.000 C 
ATOM      6  N   UNL     1       1.519   8.327  20.868  0.00  0.00    +0.000 NA
BRANCH   5  10
ATOM      7  C   UNL     1      -0.440  12.948  20.011  0.00  0.00    +0.000 A 
ATOM      8  C   UNL     1      -1.190  11.936  19.388  0.00  0.00    +0.000 A 
ATOM      9  C   UNL     1      -0.956  10.590  19.673  0.00  0.00    +0.000 A 
ATOM     10  C   UNL     1       0.082  10.229  20.521  0.00  0.00    +0.000 A 
ATOM     11  C   UNL     1       0.899  11.223  21.070  0.00  0.00    +0.000 A 
ATOM     12  C   UNL     1       0.649  12.587  20.826  0.00  0.00    +0.000 A 
BRANCH   7  14
ATOM     13  C   UNL     1      -0.109  14.892  18.699  0.00  0.00    +0.000 C 
ATOM     14  O   UNL     1      -0.753  14.269  19.816  0.00  0.00    +0.000 OA
ENDBRANCH   7  14
BRANCH  12  15
ATOM     15  O   UNL     1       1.547  13.392  21.482  0.00  0.00    +0.000 OA
ATOM     16  C   UNL     1       2.758  13.773  20.845  0.00  0.00    +0.000 C 
ENDBRANCH  12  15
ENDBRANCH   5  10
ENDBRANCH   1   6
BRANCH   2  17
ATOM     17  C   UNL     1       2.238   4.702  20.609  0.00  0.00    +0.000 C 
BRANCH  17  18
ATOM     18  C   UNL     1       1.924   3.730  19.471  0.00  0.00    +0.000 C 
BRANCH  18  19
ATOM     19  S   UNL     1       3.294   2.652  18.929  0.00  0.00    +0.000 S 
BRANCH  19  20
ATOM     20  C   UNL     1       4.526   3.802  18.461  0.00  0.00    +0.000 A 
ATOM     21  N   UNL     1       5.559   4.049  19.228  0.00  0.00    +0.000 NA
ATOM     22  C   UNL     1       6.290   5.099  18.710  0.00  0.00    +0.000 A 
ATOM     23  C   UNL     1       7.423   5.680  19.311  0.00  0.00    +0.000 A 
ATOM     24  C   UNL     1       8.052   6.768  18.701  0.00  0.00    +0.000 A 
ATOM     25  C   UNL     1       7.570   7.272  17.497  0.00  0.00    +0.000 A 
ATOM     26  C   UNL     1       6.454   6.703  16.872  0.00  0.00    +0.000 A 
ATOM     27  C   UNL     1       5.822   5.618  17.502  0.00  0.00    +0.000 A 
ATOM     28  S   UNL     1       4.426   4.726  17.023  0.00  0.00    +0.000 S 
ENDBRANCH  19  20
ENDBRANCH  18  19
ENDBRANCH  17  18
ENDBRANCH   2  17
TORSDOF 8
ENDMDL
MODEL 8
REMARK VINA RESULT:      -7.0      1.322      2.193
REMARK  Name = 
REMARK  10 active torsions:
REMARK  status: ('A' for Active; 'I' for Inactive)
REMARK    1  A    between atoms: C_1  and  O_2
REMARK    2  A    between atoms: O_2  and  C_3
REMARK    3  A    between atoms: C_6  and  C_7
REMARK    4  A    between atoms: N_8  and  N_9
REMARK    5  A    between atoms: C_10  and  C_12
REMARK    6  A    between atoms: C_12  and  C_13
REMARK    7  A    between atoms: C_13  and  S_14
REMARK    8  A    between atoms: S_14  and  C_15
REMARK    9  A    between atoms: C_25  and  O_26
REMARK   10  A    between atoms: O_26  and  C_27
REMARK                            x       y       z     vdW  Elec       q    Type
REMARK                         _______ _______ _______ _____ _____    ______ ____
ROOT
ATOM      1  N   UNL     1       1.679   6.864  21.187  0.00  0.00    +0.000 N 
ATOM      2  C   UNL     1       2.212   6.185  20.099  0.00  0.00    +0.000 C 
ATOM      3  O   UNL     1       2.248   6.615  18.947  0.00  0.00    +0.000 OA
ATOM      4  H   UNL     1       1.679   6.465  22.118  0.00  0.00    +0.000 HD
ENDROOT
BRANCH   1   6
ATOM      5  C   UNL     1       0.338   8.582  21.853  0.00  0.00    +0.000 C 
ATOM      6  N   UNL     1       1.164   8.109  20.976  0.00  0.00    +0.000 NA
BRANCH   5  10
ATOM      7  C   UNL     1      -1.253  12.532  21.317  0.00  0.00    +0.000 A 
ATOM      8  C   UNL     1      -1.161  11.960  22.597  0.00  0.00    +0.000 A 
ATOM      9  C   UNL     1      -0.631  10.682  22.776  0.00  0.00    +0.000 A 
ATOM     10  C   UNL     1      -0.259   9.923  21.676  0.00  0.00    +0.000 A 
ATOM     11  C   UNL     1      -0.437  10.444  20.389  0.00  0.00    +0.000 A 
ATOM     12  C   UNL     1      -0.932  11.748  20.194  0.00  0.00    +0.000 A 
BRANCH   7  14
ATOM     13  C   UNL     1      -3.079  14.012  21.026  0.00  0.00    +0.000 C 
ATOM     14  O   UNL     1      -1.665  13.831  21.161  0.00  0.00    +0.000 OA
ENDBRANCH   7  14
BRANCH  12  15
ATOM     15  O   UNL     1      -0.999  12.069  18.861  0.00  0.00    +0.000 OA
ATOM     16  C   UNL     1      -1.687  11.215  17.958  0.00  0.00    +0.000 C 
ENDBRANCH  12  15
ENDBRANCH   5  10
ENDBRANCH   1   6
BRANCH   2  17
ATOM     17  C   UNL     1       2.753   4.810  20.419  0.00  0.00    +0.000 C 
BRANCH  17  18
ATOM     18  C   UNL     1       2.196   3.740  19.478  0.00  0.00    +0.000 C 
BRANCH  18  19
ATOM     19  S   UNL     1       3.425   2.789  18.520  0.00  0.00    +0.000 S 
BRANCH  19  20
ATOM     20  C   UNL     1       4.662   3.981  18.191  0.00  0.00    +0.000 A 
ATOM     21  N   UNL     1       5.694   4.135  18.983  0.00  0.00    +0.000 NA
ATOM     22  C   UNL     1       6.429   5.235  18.591  0.00  0.00    +0.000 A 
ATOM     23  C   UNL     1       7.562   5.739  19.258  0.00  0.00    +0.000 A 
ATOM     24  C   UNL     1       8.196   6.888  18.778  0.00  0.00    +0.000 A 
ATOM     25  C   UNL     1       7.719   7.528  17.638  0.00  0.00    +0.000 A 
ATOM     26  C   UNL     1       6.603   7.038  16.949  0.00  0.00    +0.000 A 
ATOM     27  C   UNL     1       5.966   5.891  17.450  0.00  0.00    +0.000 A 
ATOM     28  S   UNL     1       4.569   5.064  16.868  0.00  0.00    +0.000 S 
ENDBRANCH  19  20
ENDBRANCH  18  19
ENDBRANCH  17  18
ENDBRANCH   2  17
TORSDOF 8
ENDMDL
MODEL 9
REMARK VINA RESULT:      -7.0      4.682      7.347
REMARK  Name = 
REMARK  10 active torsions:
REMARK  status: ('A' for Active; 'I' for Inactive)
REMARK    1  A    between atoms: C_1  and  O_2
REMARK    2  A    between atoms: O_2  and  C_3
REMARK    3  A    between atoms: C_6  and  C_7
REMARK    4  A    between atoms: N_8  and  N_9
REMARK    5  A    between atoms: C_10  and  C_12
REMARK    6  A    between atoms: C_12  and  C_13
REMARK    7  A    between atoms: C_13  and  S_14
REMARK    8  A    between atoms: S_14  and  C_15
REMARK    9  A    between atoms: C_25  and  O_26
REMARK   10  A    between atoms: O_26  and  C_27
REMARK                            x       y       z     vdW  Elec       q    Type
REMARK                         _______ _______ _______ _____ _____    ______ ____
ROOT
ATOM      1  N   UNL     1       7.929   7.023  17.611  0.00  0.00    +0.000 N 
ATOM      2  C   UNL     1       7.669   5.860  18.325  0.00  0.00    +0.000 C 
ATOM      3  O   UNL     1       7.526   5.797  19.545  0.00  0.00    +0.000 OA
ATOM      4  H   UNL     1       8.033   7.019  16.604  0.00  0.00    +0.000 HD
ENDROOT
BRANCH   1   6
ATOM      5  C   UNL     1       8.715   9.154  17.784  0.00  0.00    +0.000 C 
ATOM      6  N   UNL     1       8.023   8.193  18.305  0.00  0.00    +0.000 NA
BRANCH   5  10
ATOM      7  C   UNL     1       9.266  12.924  19.761  0.00  0.00    +0.000 A 
ATOM      8  C   UNL     1       9.513  11.715  20.433  0.00  0.00    +0.000 A 
ATOM      9  C   UNL     1       9.349  10.489  19.789  0.00  0.00    +0.000 A 
ATOM     10  C   UNL     1       8.860  10.445  18.491  0.00  0.00    +0.000 A 
ATOM     11  C   UNL     1       8.517  11.637  17.845  0.00  0.00    +0.000 A 
ATOM     12  C   UNL     1       8.716  12.885  18.467  0.00  0.00    +0.000 A 
BRANCH   7  14
ATOM     13  C   UNL     1       9.982  14.042  21.722  0.00  0.00    +0.000 C 
ATOM     14  O   UNL     1       9.541  14.125  20.362  0.00  0.00    +0.000 OA
ENDBRANCH   7  14
BRANCH  12  15
ATOM     15  O   UNL     1       8.342  13.923  17.649  0.00  0.00    +0.000 OA
ATOM     16  C   UNL     1       7.045  14.488  17.767  0.00  0.00    +0.000 C 
ENDBRANCH  12  15
ENDBRANCH   5  10
ENDBRANCH   1   6
BRANCH   2  17
ATOM     17  C   UNL     1       7.588   4.608  17.481  0.00  0.00    +0.000 C 
BRANCH  17  18
ATOM     18  C   UNL     1       6.951   4.875  16.116  0.00  0.00    +0.000 C 
BRANCH  18  19
ATOM     19  S   UNL     1       5.500   3.851  15.689  0.00  0.00    +0.000 S 
BRANCH  19  20
ATOM     20  C   UNL     1       4.352   4.271  16.939  0.00  0.00    +0.000 A 
ATOM     21  N   UNL     1       4.075   5.520  17.223  0.00  0.00    +0.000 NA
ATOM     22  C   UNL     1       3.268   5.580  18.342  0.00  0.00    +0.000 A 
ATOM     23  C   UNL     1       2.835   6.762  18.973  0.00  0.00    +0.000 A 
ATOM     24  C   UNL     1       2.050   6.687  20.125  0.00  0.00    +0.000 A 
ATOM     25  C   UNL     1       1.685   5.448  20.645  0.00  0.00    +0.000 A 
ATOM     26  C   UNL     1       2.090   4.259  20.028  0.00  0.00    +0.000 A 
ATOM     27  C   UNL     1       2.891   4.348  18.878  0.00  0.00    +0.000 A 
ATOM     28  S   UNL     1       3.578   3.095  17.914  0.00  0.00    +0.000 S 
ENDBRANCH  19  20
ENDBRANCH  18  19
ENDBRANCH  17  18
ENDBRANCH   2  17
TORSDOF 8
ENDMDL
