MODEL 1
REMARK VINA RESULT:      -6.9      0.000      0.000
REMARK  Name = 
REMARK  6 active torsions:
REMARK  status: ('A' for Active; 'I' for Inactive)
REMARK    1  A    between atoms: C_1  and  C_2
REMARK    2  A    between atoms: C_2  and  O_3
REMARK    3  A    between atoms: O_3  and  C_4
REMARK    4  A    between atoms: C_4  and  C_6
REMARK    5  A    between atoms: C_8  and  C_9
REMARK    6  A    between atoms: C_16  and  N_17
REMARK                            x       y       z     vdW  Elec       q    Type
REMARK                         _______ _______ _______ _____ _____    ______ ____
ROOT
ATOM      1  C   UNL     1       6.112   4.479  16.713  0.00  0.00    +0.000 A 
ATOM      2  S   UNL     1       4.422   4.209  16.829  0.00  0.00    +0.000 S 
ATOM      3  C   UNL     1       4.560   4.061  18.539  0.00  0.00    +0.000 A 
ATOM      4  N   UNL     1       5.772   4.269  19.015  0.00  0.00    +0.000 NA
ATOM      5  C   UNL     1       6.643   4.493  17.984  0.00  0.00    +0.000 A 
ENDROOT
BRANCH   3   6
ATOM      6  C   UNL     1       3.383   3.757  19.369  0.00  0.00    +0.000 A 
ATOM      7  C   UNL     1       2.131   4.335  19.134  0.00  0.00    +0.000 A 
ATOM      8  C   UNL     1       1.075   4.001  19.964  0.00  0.00    +0.000 A 
ATOM      9  N   UNL     1       1.178   3.138  20.996  0.00  0.00    +0.000 NA
ATOM     10  C   UNL     1       2.388   2.577  21.200  0.00  0.00    +0.000 A 
ATOM     11  C   UNL     1       3.503   2.846  20.421  0.00  0.00    +0.000 A 
ENDBRANCH   3   6
BRANCH   5  12
ATOM     12  N   UNL     1       7.929   4.670  18.310  0.00  0.00    +0.000 N 
ATOM     13  H   UNL     1       8.163   5.047  19.222  0.00  0.00    +0.000 HD
ATOM     14  H   UNL     1       8.674   4.160  17.847  0.00  0.00    +0.000 HD
ENDBRANCH   5  12
BRANCH   1  15
ATOM     15  C   UNL     1       6.722   4.578  15.411  0.00  0.00    +0.000 C 
ATOM     16  O   UNL     1       7.629   5.335  15.090  0.00  0.00    +0.000 OA
BRANCH  15  17
ATOM     17  O   UNL     1       6.044   3.785  14.526  0.00  0.00    +0.000 OA
BRANCH  17  19
ATOM     18  C   UNL     1       5.366   3.298  12.297  0.00  0.00    +0.000 C 
ATOM     19  C   UNL     1       6.467   3.885  13.164  0.00  0.00    +0.000 C 
ENDBRANCH  17  19
ENDBRANCH  15  17
ENDBRANCH   1  15
TORSDOF 5
ENDMDL
MODEL 2
REMARK VINA RESULT:      -6.7      1.624      1.692
REMARK  Name = 
REMARK  6 active torsions:
REMARK  status: ('A' for Active; 'I' for Inactive)
REMARK    1  A    between atoms: C_1  and  C_2
REMARK    2  A    between atoms: C_2  and  O_3
REMARK    3  A    between atoms: O_3  and  C_4
REMARK    4  A    between atoms: C_4  and  C_6
REMARK    5  A    between atoms: C_8  and  C_9
REMARK    6  A    between atoms: C_16  and  N_17
REMARK                            x       y       z     vdW  Elec       q    Type
REMARK                         _______ _______ _______ _____ _____    ______ ____
ROOT
ATOM      1  C   UNL     1       5.988   5.204  15.935  0.00  0.00    +0.000 A 
ATOM      2  S   UNL     1       4.674   4.174  16.328  0.00  0.00    +0.000 S 
ATOM      3  C   UNL     1       4.291   5.173  17.677  0.00  0.00    +0.000 A 
ATOM      4  N   UNL     1       5.041   6.250  17.797  0.00  0.00    +0.000 NA
ATOM      5  C   UNL     1       6.001   6.258  16.822  0.00  0.00    +0.000 A 
ENDROOT
BRANCH   3   6
ATOM      6  C   UNL     1       3.181   4.831  18.580  0.00  0.00    +0.000 A 
ATOM      7  C   UNL     1       3.032   5.418  19.841  0.00  0.00    +0.000 A 
ATOM      8  C   UNL     1       1.962   5.037  20.633  0.00  0.00    +0.000 A 
ATOM      9  N   UNL     1       1.040   4.127  20.258  0.00  0.00    +0.000 NA
ATOM     10  C   UNL     1       1.188   3.582  19.033  0.00  0.00    +0.000 A 
ATOM     11  C   UNL     1       2.222   3.901  18.168  0.00  0.00    +0.000 A 
ENDBRANCH   3   6
BRANCH   5  12
ATOM     12  N   UNL     1       6.878   7.269  16.848  0.00  0.00    +0.000 N 
ATOM     13  H   UNL     1       7.840   7.086  17.111  0.00  0.00    +0.000 HD
ATOM     14  H   UNL     1       6.727   8.122  16.319  0.00  0.00    +0.000 HD
ENDBRANCH   5  12
BRANCH   1  15
ATOM     15  C   UNL     1       6.878   4.834  14.864  0.00  0.00    +0.000 C 
ATOM     16  O   UNL     1       7.875   5.446  14.504  0.00  0.00    +0.000 OA
BRANCH  15  17
ATOM     17  O   UNL     1       6.371   3.749  14.202  0.00  0.00    +0.000 OA
BRANCH  17  19
ATOM     18  C   UNL     1       5.259   3.312  12.143  0.00  0.00    +0.000 C 
ATOM     19  C   UNL     1       6.564   3.750  12.785  0.00  0.00    +0.000 C 
ENDBRANCH  17  19
ENDBRANCH  15  17
ENDBRANCH   1  15
TORSDOF 5
ENDMDL
MODEL 3
REMARK VINA RESULT:      -6.7      1.565      1.565
REMARK  Name = 
REMARK  6 active torsions:
REMARK  status: ('A' for Active; 'I' for Inactive)
REMARK    1  A    between atoms: C_1  and  C_2
REMARK    2  A    between atoms: C_2  and  O_3
REMARK    3  A    between atoms: O_3  and  C_4
REMARK    4  A    between atoms: C_4  and  C_6
REMARK    5  A    between atoms: C_8  and  C_9
REMARK    6  A    between atoms: C_16  and  N_17
REMARK                            x       y       z     vdW  Elec       q    Type
REMARK                         _______ _______ _______ _____ _____    ______ ____
ROOT
ATOM      1  C   UNL     1       5.887   5.141  15.955  0.00  0.00    +0.000 A 
ATOM      2  S   UNL     1       4.624   4.061  16.381  0.00  0.00    +0.000 S 
ATOM      3  C   UNL     1       4.207   5.069  17.713  0.00  0.00    +0.000 A 
ATOM      4  N   UNL     1       4.910   6.182  17.805  0.00  0.00    +0.000 NA
ATOM      5  C   UNL     1       5.861   6.212  16.821  0.00  0.00    +0.000 A 
ENDROOT
BRANCH   3   6
ATOM      6  C   UNL     1       3.122   4.696  18.633  0.00  0.00    +0.000 A 
ATOM      7  C   UNL     1       2.111   3.798  18.275  0.00  0.00    +0.000 A 
ATOM      8  C   UNL     1       1.122   3.503  19.197  0.00  0.00    +0.000 A 
ATOM      9  N   UNL     1       1.073   4.031  20.438  0.00  0.00    +0.000 NA
ATOM     10  C   UNL     1       2.064   4.883  20.774  0.00  0.00    +0.000 A 
ATOM     11  C   UNL     1       3.098   5.237  19.922  0.00  0.00    +0.000 A 
ENDBRANCH   3   6
BRANCH   5  12
ATOM     12  N   UNL     1       6.691   7.262  16.818  0.00  0.00    +0.000 N 
ATOM     13  H   UNL     1       7.657   7.132  17.099  0.00  0.00    +0.000 HD
ATOM     14  H   UNL     1       6.510   8.086  16.255  0.00  0.00    +0.000 HD
ENDBRANCH   5  12
BRANCH   1  15
ATOM     15  C   UNL     1       6.784   4.788  14.884  0.00  0.00    +0.000 C 
ATOM     16  O   UNL     1       7.796   5.394  14.556  0.00  0.00    +0.000 OA
BRANCH  15  17
ATOM     17  O   UNL     1       6.266   3.735  14.181  0.00  0.00    +0.000 OA
BRANCH  17  19
ATOM     18  C   UNL     1       5.266   3.224  12.082  0.00  0.00    +0.000 C 
ATOM     19  C   UNL     1       6.509   3.759  12.772  0.00  0.00    +0.000 C 
ENDBRANCH  17  19
ENDBRANCH  15  17
ENDBRANCH   1  15
TORSDOF 5
ENDMDL
MODEL 4
REMARK VINA RESULT:      -6.7      2.601      3.570
REMARK  Name = 
REMARK  6 active torsions:
REMARK  status: ('A' for Active; 'I' for Inactive)
REMARK    1  A    between atoms: C_1  and  C_2
REMARK    2  A    between atoms: C_2  and  O_3
REMARK    3  A    between atoms: O_3  and  C_4
REMARK    4  A    between atoms: C_4  and  C_6
REMARK    5  A    between atoms: C_8  and  C_9
REMARK    6  A    between atoms: C_16  and  N_17
REMARK                            x       y       z     vdW  Elec       q    Type
REMARK                         _______ _______ _______ _____ _____    ______ ____
ROOT
ATOM      1  C   UNL     1       6.503   6.005  18.138  0.00  0.00    +0.000 A 
ATOM      2  S   UNL     1       4.878   5.766  17.646  0.00  0.00    +0.000 S 
ATOM      3  C   UNL     1       4.589   4.815  19.051  0.00  0.00    +0.000 A 
ATOM      4  N   UNL     1       5.610   4.732  19.882  0.00  0.00    +0.000 NA
ATOM      5  C   UNL     1       6.687   5.393  19.359  0.00  0.00    +0.000 A 
ENDROOT
BRANCH   3   6
ATOM      6  C   UNL     1       3.278   4.189  19.284  0.00  0.00    +0.000 A 
ATOM      7  C   UNL     1       2.854   3.053  18.585  0.00  0.00    +0.000 A 
ATOM      8  C   UNL     1       1.603   2.529  18.860  0.00  0.00    +0.000 A 
ATOM      9  N   UNL     1       0.758   3.047  19.774  0.00  0.00    +0.000 NA
ATOM     10  C   UNL     1       1.187   4.132  20.451  0.00  0.00    +0.000 A 
ATOM     11  C   UNL     1       2.422   4.727  20.249  0.00  0.00    +0.000 A 
ENDBRANCH   3   6
BRANCH   5  12
ATOM     12  N   UNL     1       7.822   5.352  20.068  0.00  0.00    +0.000 N 
ATOM     13  H   UNL     1       7.835   4.862  20.956  0.00  0.00    +0.000 HD
ATOM     14  H   UNL     1       8.729   5.492  19.636  0.00  0.00    +0.000 HD
ENDBRANCH   5  12
BRANCH   1  15
ATOM     15  C   UNL     1       7.413   6.694  17.258  0.00  0.00    +0.000 C 
ATOM     16  O   UNL     1       7.602   6.450  16.073  0.00  0.00    +0.000 OA
BRANCH  15  17
ATOM     17  O   UNL     1       8.152   7.594  17.977  0.00  0.00    +0.000 OA
BRANCH  17  19
ATOM     18  C   UNL     1       8.826   9.808  18.533  0.00  0.00    +0.000 C 
ATOM     19  C   UNL     1       7.817   8.969  17.769  0.00  0.00    +0.000 C 
ENDBRANCH  17  19
ENDBRANCH  15  17
ENDBRANCH   1  15
TORSDOF 5
ENDMDL
MODEL 5
REMARK VINA RESULT:      -6.6      2.512      3.581
REMARK  Name = 
REMARK  6 active torsions:
REMARK  status: ('A' for Active; 'I' for Inactive)
REMARK    1  A    between atoms: C_1  and  C_2
REMARK    2  A    between atoms: C_2  and  O_3
REMARK    3  A    between atoms: O_3  and  C_4
REMARK    4  A    between atoms: C_4  and  C_6
REMARK    5  A    between atoms: C_8  and  C_9
REMARK    6  A    between atoms: C_16  and  N_17
REMARK                            x       y       z     vdW  Elec       q    Type
REMARK                         _______ _______ _______ _____ _____    ______ ____
ROOT
ATOM      1  C   UNL     1       6.455   5.937  18.100  0.00  0.00    +0.000 A 
ATOM      2  S   UNL     1       4.851   5.636  17.576  0.00  0.00    +0.000 S 
ATOM      3  C   UNL     1       4.555   4.713  18.999  0.00  0.00    +0.000 A 
ATOM      4  N   UNL     1       5.558   4.683  19.855  0.00  0.00    +0.000 NA
ATOM      5  C   UNL     1       6.628   5.363  19.340  0.00  0.00    +0.000 A 
ENDROOT
BRANCH   3   6
ATOM      6  C   UNL     1       3.258   4.054  19.217  0.00  0.00    +0.000 A 
ATOM      7  C   UNL     1       2.859   3.582  20.472  0.00  0.00    +0.000 A 
ATOM      8  C   UNL     1       1.624   2.969  20.593  0.00  0.00    +0.000 A 
ATOM      9  N   UNL     1       0.768   2.800  19.564  0.00  0.00    +0.000 NA
ATOM     10  C   UNL     1       1.160   3.276  18.364  0.00  0.00    +0.000 A 
ATOM     11  C   UNL     1       2.374   3.906  18.145  0.00  0.00    +0.000 A 
ENDBRANCH   3   6
BRANCH   5  12
ATOM     12  N   UNL     1       7.745   5.374  20.077  0.00  0.00    +0.000 N 
ATOM     13  H   UNL     1       8.297   4.527  20.156  0.00  0.00    +0.000 HD
ATOM     14  H   UNL     1       8.239   6.235  20.288  0.00  0.00    +0.000 HD
ENDBRANCH   5  12
BRANCH   1  15
ATOM     15  C   UNL     1       7.365   6.631  17.224  0.00  0.00    +0.000 C 
ATOM     16  O   UNL     1       7.570   6.379  16.043  0.00  0.00    +0.000 OA
BRANCH  15  17
ATOM     17  O   UNL     1       8.085   7.546  17.942  0.00  0.00    +0.000 OA
BRANCH  17  19
ATOM     18  C   UNL     1       8.774   9.768  18.444  0.00  0.00    +0.000 C 
ATOM     19  C   UNL     1       7.788   8.916  17.664  0.00  0.00    +0.000 C 
ENDBRANCH  17  19
ENDBRANCH  15  17
ENDBRANCH   1  15
TORSDOF 5
ENDMDL
MODEL 6
REMARK VINA RESULT:      -6.6      1.317      1.761
REMARK  Name = 
REMARK  6 active torsions:
REMARK  status: ('A' for Active; 'I' for Inactive)
REMARK    1  A    between atoms: C_1  and  C_2
REMARK    2  A    between atoms: C_2  and  O_3
REMARK    3  A    between atoms: O_3  and  C_4
REMARK    4  A    between atoms: C_4  and  C_6
REMARK    5  A    between atoms: C_8  and  C_9
REMARK    6  A    between atoms: C_16  and  N_17
REMARK                            x       y       z     vdW  Elec       q    Type
REMARK                         _______ _______ _______ _____ _____    ______ ____
ROOT
ATOM      1  C   UNL     1       6.260   5.799  17.719  0.00  0.00    +0.000 A 
ATOM      2  S   UNL     1       4.605   5.408  17.502  0.00  0.00    +0.000 S 
ATOM      3  C   UNL     1       4.559   4.710  19.075  0.00  0.00    +0.000 A 
ATOM      4  N   UNL     1       5.681   4.819  19.760  0.00  0.00    +0.000 NA
ATOM      5  C   UNL     1       6.638   5.422  18.990  0.00  0.00    +0.000 A 
ENDROOT
BRANCH   3   6
ATOM      6  C   UNL     1       3.332   4.081  19.588  0.00  0.00    +0.000 A 
ATOM      7  C   UNL     1       3.072   2.714  19.440  0.00  0.00    +0.000 A 
ATOM      8  C   UNL     1       1.891   2.201  19.948  0.00  0.00    +0.000 A 
ATOM      9  N   UNL     1       0.965   2.944  20.587  0.00  0.00    +0.000 NA
ATOM     10  C   UNL     1       1.238   4.257  20.736  0.00  0.00    +0.000 A 
ATOM     11  C   UNL     1       2.393   4.862  20.267  0.00  0.00    +0.000 A 
ENDBRANCH   3   6
BRANCH   5  12
ATOM     12  N   UNL     1       7.854   5.555  19.534  0.00  0.00    +0.000 N 
ATOM     13  H   UNL     1       8.099   6.425  19.994  0.00  0.00    +0.000 HD
ATOM     14  H   UNL     1       8.413   4.751  19.798  0.00  0.00    +0.000 HD
ENDBRANCH   5  12
BRANCH   1  15
ATOM     15  C   UNL     1       7.003   6.359  16.619  0.00  0.00    +0.000 C 
ATOM     16  O   UNL     1       7.900   7.188  16.695  0.00  0.00    +0.000 OA
BRANCH  15  17
ATOM     17  O   UNL     1       6.466   5.926  15.437  0.00  0.00    +0.000 OA
BRANCH  17  19
ATOM     18  C   UNL     1       6.061   4.004  14.094  0.00  0.00    +0.000 C 
ATOM     19  C   UNL     1       7.116   4.798  14.845  0.00  0.00    +0.000 C 
ENDBRANCH  17  19
ENDBRANCH  15  17
ENDBRANCH   1  15
TORSDOF 5
ENDMDL
MODEL 7
REMARK VINA RESULT:      -6.6      1.115      1.783
REMARK  Name = 
REMARK  6 active torsions:
REMARK  status: ('A' for Active; 'I' for Inactive)
REMARK    1  A    between atoms: C_1  and  C_2
REMARK    2  A    between atoms: C_2  and  O_3
REMARK    3  A    between atoms: O_3  and  C_4
REMARK    4  A    between atoms: C_4  and  C_6
REMARK    5  A    between atoms: C_8  and  C_9
REMARK    6  A    between atoms: C_16  and  N_17
REMARK                            x       y       z     vdW  Elec       q    Type
REMARK                         _______ _______ _______ _____ _____    ______ ____
ROOT
ATOM      1  C   UNL     1       5.622   5.335  17.051  0.00  0.00    +0.000 A 
ATOM      2  S   UNL     1       3.967   5.325  17.500  0.00  0.00    +0.000 S 
ATOM      3  C   UNL     1       4.333   4.310  18.841  0.00  0.00    +0.000 A 
ATOM      4  N   UNL     1       5.615   4.046  19.000  0.00  0.00    +0.000 NA
ATOM      5  C   UNL     1       6.334   4.615  17.984  0.00  0.00    +0.000 A 
ENDROOT
BRANCH   3   6
ATOM      6  C   UNL     1       3.270   3.826  19.736  0.00  0.00    +0.000 A 
ATOM      7  C   UNL     1       3.481   2.804  20.667  0.00  0.00    +0.000 A 
ATOM      8  C   UNL     1       2.427   2.402  21.469  0.00  0.00    +0.000 A 
ATOM      9  N   UNL     1       1.194   2.945  21.412  0.00  0.00    +0.000 NA
ATOM     10  C   UNL     1       1.010   3.942  20.521  0.00  0.00    +0.000 A 
ATOM     11  C   UNL     1       2.003   4.414  19.678  0.00  0.00    +0.000 A 
ENDBRANCH   3   6
BRANCH   5  12
ATOM     12  N   UNL     1       7.654   4.388  17.980  0.00  0.00    +0.000 N 
ATOM     13  H   UNL     1       8.010   3.537  17.559  0.00  0.00    +0.000 HD
ATOM     14  H   UNL     1       8.327   5.141  18.073  0.00  0.00    +0.000 HD
ENDBRANCH   5  12
BRANCH   1  15
ATOM     15  C   UNL     1       6.015   5.978  15.823  0.00  0.00    +0.000 C 
ATOM     16  O   UNL     1       5.382   6.831  15.214  0.00  0.00    +0.000 OA
BRANCH  15  17
ATOM     17  O   UNL     1       7.159   5.396  15.348  0.00  0.00    +0.000 OA
BRANCH  17  19
ATOM     18  C   UNL     1       7.883   5.340  13.081  0.00  0.00    +0.000 C 
ATOM     19  C   UNL     1       7.013   4.665  14.127  0.00  0.00    +0.000 C 
ENDBRANCH  17  19
ENDBRANCH  15  17
ENDBRANCH   1  15
TORSDOF 5
ENDMDL
MODEL 8
REMARK VINA RESULT:      -6.6      1.389      1.757
REMARK  Name = 
REMARK  6 active torsions:
REMARK  status: ('A' for Active; 'I' for Inactive)
REMARK    1  A    between atoms: C_1  and  C_2
REMARK    2  A    between atoms: C_2  and  O_3
REMARK    3  A    between atoms: O_3  and  C_4
REMARK    4  A    between atoms: C_4  and  C_6
REMARK    5  A    between atoms: C_8  and  C_9
REMARK    6  A    between atoms: C_16  and  N_17
REMARK                            x       y       z     vdW  Elec       q    Type
REMARK                         _______ _______ _______ _____ _____    ______ ____
ROOT
ATOM      1  C   UNL     1       6.070   5.734  17.727  0.00  0.00    +0.000 A 
ATOM      2  S   UNL     1       4.421   5.386  17.415  0.00  0.00    +0.000 S 
ATOM      3  C   UNL     1       4.282   4.637  18.959  0.00  0.00    +0.000 A 
ATOM      4  N   UNL     1       5.370   4.700  19.702  0.00  0.00    +0.000 NA
ATOM      5  C   UNL     1       6.376   5.307  19.001  0.00  0.00    +0.000 A 
ENDROOT
BRANCH   3   6
ATOM      6  C   UNL     1       3.019   4.018  19.389  0.00  0.00    +0.000 A 
ATOM      7  C   UNL     1       2.517   4.162  20.687  0.00  0.00    +0.000 A 
ATOM      8  C   UNL     1       1.323   3.543  21.013  0.00  0.00    +0.000 A 
ATOM      9  N   UNL     1       0.601   2.805  20.146  0.00  0.00    +0.000 NA
ATOM     10  C   UNL     1       1.089   2.689  18.894  0.00  0.00    +0.000 A 
ATOM     11  C   UNL     1       2.272   3.273  18.471  0.00  0.00    +0.000 A 
ENDBRANCH   3   6
BRANCH   5  12
ATOM     12  N   UNL     1       7.565   5.396  19.609  0.00  0.00    +0.000 N 
ATOM     13  H   UNL     1       7.604   5.412  20.623  0.00  0.00    +0.000 HD
ATOM     14  H   UNL     1       8.426   5.126  19.145  0.00  0.00    +0.000 HD
ENDBRANCH   5  12
BRANCH   1  15
ATOM     15  C   UNL     1       6.879   6.313  16.685  0.00  0.00    +0.000 C 
ATOM     16  O   UNL     1       7.793   7.113  16.834  0.00  0.00    +0.000 OA
BRANCH  15  17
ATOM     17  O   UNL     1       6.387   5.941  15.463  0.00  0.00    +0.000 OA
BRANCH  17  19
ATOM     18  C   UNL     1       6.029   4.036  14.081  0.00  0.00    +0.000 C 
ATOM     19  C   UNL     1       7.066   4.851  14.834  0.00  0.00    +0.000 C 
ENDBRANCH  17  19
ENDBRANCH  15  17
ENDBRANCH   1  15
TORSDOF 5
ENDMDL
MODEL 9
REMARK VINA RESULT:      -6.6      1.055      1.109
REMARK  Name = 
REMARK  6 active torsions:
REMARK  status: ('A' for Active; 'I' for Inactive)
REMARK    1  A    between atoms: C_1  and  C_2
REMARK    2  A    between atoms: C_2  and  O_3
REMARK    3  A    between atoms: O_3  and  C_4
REMARK    4  A    between atoms: C_4  and  C_6
REMARK    5  A    between atoms: C_8  and  C_9
REMARK    6  A    between atoms: C_16  and  N_17
REMARK                            x       y       z     vdW  Elec       q    Type
REMARK                         _______ _______ _______ _____ _____    ______ ____
ROOT
ATOM      1  C   UNL     1       5.486   5.170  16.962  0.00  0.00    +0.000 A 
ATOM      2  S   UNL     1       3.855   5.135  17.493  0.00  0.00    +0.000 S 
ATOM      3  C   UNL     1       4.318   4.204  18.865  0.00  0.00    +0.000 A 
ATOM      4  N   UNL     1       5.614   3.986  18.973  0.00  0.00    +0.000 NA
ATOM      5  C   UNL     1       6.265   4.521  17.895  0.00  0.00    +0.000 A 
ENDROOT
BRANCH   3   6
ATOM      6  C   UNL     1       3.315   3.737  19.835  0.00  0.00    +0.000 A 
ATOM      7  C   UNL     1       2.039   4.303  19.925  0.00  0.00    +0.000 A 
ATOM      8  C   UNL     1       1.155   3.809  20.869  0.00  0.00    +0.000 A 
ATOM      9  N   UNL     1       1.449   2.801  21.715  0.00  0.00    +0.000 NA
ATOM     10  C   UNL     1       2.678   2.255  21.605  0.00  0.00    +0.000 A 
ATOM     11  C   UNL     1       3.629   2.678  20.691  0.00  0.00    +0.000 A 
ENDBRANCH   3   6
BRANCH   5  12
ATOM     12  N   UNL     1       7.589   4.334  17.837  0.00  0.00    +0.000 N 
ATOM     13  H   UNL     1       8.045   4.290  16.932  0.00  0.00    +0.000 HD
ATOM     14  H   UNL     1       8.197   4.555  18.619  0.00  0.00    +0.000 HD
ENDBRANCH   5  12
BRANCH   1  15
ATOM     15  C   UNL     1       5.799   5.758  15.685  0.00  0.00    +0.000 C 
ATOM     16  O   UNL     1       5.375   6.822  15.252  0.00  0.00    +0.000 OA
BRANCH  15  17
ATOM     17  O   UNL     1       6.548   4.881  14.948  0.00  0.00    +0.000 OA
BRANCH  17  19
ATOM     18  C   UNL     1       6.526   3.805  12.825  0.00  0.00    +0.000 C 
ATOM     19  C   UNL     1       5.803   3.956  14.152  0.00  0.00    +0.000 C 
ENDBRANCH  17  19
ENDBRANCH  15  17
ENDBRANCH   1  15
TORSDOF 5
ENDMDL
