MODEL 1
REMARK VINA RESULT:      -8.2      0.000      0.000
REMARK  Name = 
REMARK  6 active torsions:
REMARK  status: ('A' for Active; 'I' for Inactive)
REMARK    1  A    between atoms: C_2  and  C_3
REMARK    2  A    between atoms: C_3  and  C_4
REMARK    3  A    between atoms: N_7  and  C_8
REMARK    4  A    between atoms: C_15  and  C_16
REMARK    5  A    between atoms: N_22  and  C_23
REMARK    6  A    between atoms: C_23  and  C_24
REMARK                            x       y       z     vdW  Elec       q    Type
REMARK                         _______ _______ _______ _____ _____    ______ ____
ROOT
ATOM      1  C   UNL     1       0.336  11.608  19.900  0.00  0.00    +0.000 A 
ATOM      2  S   UNL     1       1.453  12.769  20.524  0.00  0.00    +0.000 S 
ATOM      3  C   UNL     1       0.637  14.037  19.704  0.00  0.00    +0.000 A 
ATOM      4  N   UNL     1       1.094  15.311  19.763  0.00  0.00    +0.000 N 
ATOM      5  N   UNL     1      -0.446  13.650  19.074  0.00  0.00    +0.000 NA
ATOM      6  C   UNL     1      -0.640  12.282  19.171  0.00  0.00    +0.000 A 
ATOM      7  H   UNL     1       1.873  15.503  20.381  0.00  0.00    +0.000 HD
ENDROOT
BRANCH   4   8
ATOM      8  C   UNL     1       0.983  16.252  18.717  0.00  0.00    +0.000 A 
ATOM      9  C   UNL     1       2.130  16.613  17.997  0.00  0.00    +0.000 A 
ATOM     10  C   UNL     1       2.066  17.568  16.977  0.00  0.00    +0.000 A 
ATOM     11  C   UNL     1       0.850  18.164  16.650  0.00  0.00    +0.000 A 
ATOM     12  C   UNL     1      -0.299  17.815  17.352  0.00  0.00    +0.000 A 
ATOM     13  C   UNL     1      -0.229  16.876  18.383  0.00  0.00    +0.000 A 
ENDBRANCH   4   8
BRANCH   6  14
ATOM     14  C   UNL     1      -1.830  11.700  18.542  0.00  0.00    +0.000 A 
ATOM     15  C   UNL     1      -1.770  10.834  17.443  0.00  0.00    +0.000 A 
ATOM     16  C   UNL     1      -2.934  10.300  16.881  0.00  0.00    +0.000 A 
ATOM     17  C   UNL     1      -4.180  10.653  17.386  0.00  0.00    +0.000 A 
ATOM     18  C   UNL     1      -4.265  11.538  18.456  0.00  0.00    +0.000 A 
ATOM     19  C   UNL     1      -3.098  12.054  19.031  0.00  0.00    +0.000 A 
ENDBRANCH   6  14
BRANCH   1  20
ATOM     20  C   UNL     1       0.467  10.137  20.175  0.00  0.00    +0.000 C 
BRANCH  20  22
ATOM     21  O   UNL     1       1.556   9.765  18.066  0.00  0.00    +0.000 OA
ATOM     22  C   UNL     1       1.332   9.363  19.206  0.00  0.00    +0.000 C 
ATOM     23  N   UNL     1       1.799   8.164  19.692  0.00  0.00    +0.000 N 
ATOM     24  H   UNL     1       1.611   7.898  20.648  0.00  0.00    +0.000 HD
BRANCH  23  25
ATOM     25  C   UNL     1       2.552   7.250  18.868  0.00  0.00    +0.000 C 
BRANCH  25  26
ATOM     26  C   UNL     1       2.089   5.834  19.090  0.00  0.00    +0.000 A 
ATOM     27  C   UNL     1       1.977   4.946  18.009  0.00  0.00    +0.000 A 
ATOM     28  C   UNL     1       1.556   3.632  18.215  0.00  0.00    +0.000 A 
ATOM     29  C   UNL     1       1.230   3.196  19.498  0.00  0.00    +0.000 A 
ATOM     30  C   UNL     1       1.314   4.077  20.575  0.00  0.00    +0.000 A 
ATOM     31  C   UNL     1       1.738   5.391  20.373  0.00  0.00    +0.000 A 
ENDBRANCH  25  26
ENDBRANCH  23  25
ENDBRANCH  20  22
ENDBRANCH   1  20
TORSDOF 6
ENDMDL
MODEL 2
REMARK VINA RESULT:      -8.1      3.800      8.909
REMARK  Name = 
REMARK  6 active torsions:
REMARK  status: ('A' for Active; 'I' for Inactive)
REMARK    1  A    between atoms: C_2  and  C_3
REMARK    2  A    between atoms: C_3  and  C_4
REMARK    3  A    between atoms: N_7  and  C_8
REMARK    4  A    between atoms: C_15  and  C_16
REMARK    5  A    between atoms: N_22  and  C_23
REMARK    6  A    between atoms: C_23  and  C_24
REMARK                            x       y       z     vdW  Elec       q    Type
REMARK                         _______ _______ _______ _____ _____    ______ ____
ROOT
ATOM      1  C   UNL     1       2.027   7.392  19.722  0.00  0.00    +0.000 A 
ATOM      2  S   UNL     1       2.620   8.431  18.476  0.00  0.00    +0.000 S 
ATOM      3  C   UNL     1       3.368   7.103  17.686  0.00  0.00    +0.000 A 
ATOM      4  N   UNL     1       4.101   7.287  16.560  0.00  0.00    +0.000 N 
ATOM      5  N   UNL     1       3.129   5.946  18.253  0.00  0.00    +0.000 NA
ATOM      6  C   UNL     1       2.372   6.081  19.405  0.00  0.00    +0.000 A 
ATOM      7  H   UNL     1       4.112   8.213  16.152  0.00  0.00    +0.000 HD
ENDROOT
BRANCH   4   8
ATOM      8  C   UNL     1       5.234   6.521  16.208  0.00  0.00    +0.000 A 
ATOM      9  C   UNL     1       5.195   5.737  15.048  0.00  0.00    +0.000 A 
ATOM     10  C   UNL     1       6.284   4.938  14.684  0.00  0.00    +0.000 A 
ATOM     11  C   UNL     1       7.436   4.925  15.469  0.00  0.00    +0.000 A 
ATOM     12  C   UNL     1       7.493   5.701  16.622  0.00  0.00    +0.000 A 
ATOM     13  C   UNL     1       6.396   6.481  16.993  0.00  0.00    +0.000 A 
ENDBRANCH   4   8
BRANCH   6  14
ATOM     14  C   UNL     1       1.995   4.868  20.138  0.00  0.00    +0.000 A 
ATOM     15  C   UNL     1       2.568   4.502  21.362  0.00  0.00    +0.000 A 
ATOM     16  C   UNL     1       2.171   3.338  22.025  0.00  0.00    +0.000 A 
ATOM     17  C   UNL     1       1.219   2.499  21.458  0.00  0.00    +0.000 A 
ATOM     18  C   UNL     1       0.660   2.825  20.226  0.00  0.00    +0.000 A 
ATOM     19  C   UNL     1       1.043   4.002  19.574  0.00  0.00    +0.000 A 
ENDBRANCH   6  14
BRANCH   1  20
ATOM     20  C   UNL     1       1.256   7.910  20.903  0.00  0.00    +0.000 C 
BRANCH  20  22
ATOM     21  O   UNL     1       1.239  10.239  21.491  0.00  0.00    +0.000 OA
ATOM     22  C   UNL     1       0.773   9.339  20.795  0.00  0.00    +0.000 C 
ATOM     23  N   UNL     1      -0.252   9.528  19.898  0.00  0.00    +0.000 N 
ATOM     24  H   UNL     1      -0.574   8.758  19.329  0.00  0.00    +0.000 HD
BRANCH  23  25
ATOM     25  C   UNL     1      -0.903  10.806  19.744  0.00  0.00    +0.000 C 
BRANCH  25  26
ATOM     26  C   UNL     1      -1.844  10.782  18.569  0.00  0.00    +0.000 A 
ATOM     27  C   UNL     1      -1.559   9.987  17.448  0.00  0.00    +0.000 A 
ATOM     28  C   UNL     1      -2.434   9.957  16.362  0.00  0.00    +0.000 A 
ATOM     29  C   UNL     1      -3.594  10.731  16.378  0.00  0.00    +0.000 A 
ATOM     30  C   UNL     1      -3.874  11.543  17.475  0.00  0.00    +0.000 A 
ATOM     31  C   UNL     1      -3.002  11.572  18.565  0.00  0.00    +0.000 A 
ENDBRANCH  25  26
ENDBRANCH  23  25
ENDBRANCH  20  22
ENDBRANCH   1  20
TORSDOF 6
ENDMDL
MODEL 3
REMARK VINA RESULT:      -8.1      0.337      1.299
REMARK  Name = 
REMARK  6 active torsions:
REMARK  status: ('A' for Active; 'I' for Inactive)
REMARK    1  A    between atoms: C_2  and  C_3
REMARK    2  A    between atoms: C_3  and  C_4
REMARK    3  A    between atoms: N_7  and  C_8
REMARK    4  A    between atoms: C_15  and  C_16
REMARK    5  A    between atoms: N_22  and  C_23
REMARK    6  A    between atoms: C_23  and  C_24
REMARK                            x       y       z     vdW  Elec       q    Type
REMARK                         _______ _______ _______ _____ _____    ______ ____
ROOT
ATOM      1  C   UNL     1       0.099  11.518  19.618  0.00  0.00    +0.000 A 
ATOM      2  S   UNL     1       1.353  12.519  20.259  0.00  0.00    +0.000 S 
ATOM      3  C   UNL     1       0.643  13.912  19.550  0.00  0.00    +0.000 A 
ATOM      4  N   UNL     1       1.231  15.128  19.663  0.00  0.00    +0.000 N 
ATOM      5  N   UNL     1      -0.497  13.677  18.946  0.00  0.00    +0.000 NA
ATOM      6  C   UNL     1      -0.828  12.332  18.972  0.00  0.00    +0.000 A 
ATOM      7  H   UNL     1       2.048  15.201  20.257  0.00  0.00    +0.000 HD
ENDROOT
BRANCH   4   8
ATOM      8  C   UNL     1       1.180  16.138  18.678  0.00  0.00    +0.000 A 
ATOM      9  C   UNL     1       2.331  16.425  17.933  0.00  0.00    +0.000 A 
ATOM     10  C   UNL     1       2.329  17.442  16.973  0.00  0.00    +0.000 A 
ATOM     11  C   UNL     1       1.170  18.177  16.734  0.00  0.00    +0.000 A 
ATOM     12  C   UNL     1       0.017  17.904  17.463  0.00  0.00    +0.000 A 
ATOM     13  C   UNL     1       0.028  16.901  18.434  0.00  0.00    +0.000 A 
ENDBRANCH   4   8
BRANCH   6  14
ATOM     14  C   UNL     1      -2.094  11.913  18.362  0.00  0.00    +0.000 A 
ATOM     15  C   UNL     1      -3.333  12.043  19.001  0.00  0.00    +0.000 A 
ATOM     16  C   UNL     1      -4.514  11.634  18.375  0.00  0.00    +0.000 A 
ATOM     17  C   UNL     1      -4.472  11.053  17.113  0.00  0.00    +0.000 A 
ATOM     18  C   UNL     1      -3.249  10.883  16.472  0.00  0.00    +0.000 A 
ATOM     19  C   UNL     1      -2.070  11.313  17.091  0.00  0.00    +0.000 A 
ENDBRANCH   6  14
BRANCH   1  20
ATOM     20  C   UNL     1       0.087  10.028  19.801  0.00  0.00    +0.000 C 
BRANCH  20  22
ATOM     21  O   UNL     1       1.605   9.609  17.987  0.00  0.00    +0.000 OA
ATOM     22  C   UNL     1       1.187   9.270  19.092  0.00  0.00    +0.000 C 
ATOM     23  N   UNL     1       1.636   8.157  19.763  0.00  0.00    +0.000 N 
ATOM     24  H   UNL     1       1.279   7.944  20.684  0.00  0.00    +0.000 HD
BRANCH  23  25
ATOM     25  C   UNL     1       2.608   7.260  19.186  0.00  0.00    +0.000 C 
BRANCH  25  26
ATOM     26  C   UNL     1       2.114   5.839  19.242  0.00  0.00    +0.000 A 
ATOM     27  C   UNL     1       1.730   5.268  20.465  0.00  0.00    +0.000 A 
ATOM     28  C   UNL     1       1.265   3.954  20.517  0.00  0.00    +0.000 A 
ATOM     29  C   UNL     1       1.192   3.193  19.352  0.00  0.00    +0.000 A 
ATOM     30  C   UNL     1       1.593   3.742  18.135  0.00  0.00    +0.000 A 
ATOM     31  C   UNL     1       2.055   5.057  18.080  0.00  0.00    +0.000 A 
ENDBRANCH  25  26
ENDBRANCH  23  25
ENDBRANCH  20  22
ENDBRANCH   1  20
TORSDOF 6
ENDMDL
MODEL 4
REMARK VINA RESULT:      -8.0      7.751     11.609
REMARK  Name = 
REMARK  6 active torsions:
REMARK  status: ('A' for Active; 'I' for Inactive)
REMARK    1  A    between atoms: C_2  and  C_3
REMARK    2  A    between atoms: C_3  and  C_4
REMARK    3  A    between atoms: N_7  and  C_8
REMARK    4  A    between atoms: C_15  and  C_16
REMARK    5  A    between atoms: N_22  and  C_23
REMARK    6  A    between atoms: C_23  and  C_24
REMARK                            x       y       z     vdW  Elec       q    Type
REMARK                         _______ _______ _______ _____ _____    ______ ____
ROOT
ATOM      1  C   UNL     1       6.918   5.622  17.784  0.00  0.00    +0.000 A 
ATOM      2  S   UNL     1       6.488   5.358  19.436  0.00  0.00    +0.000 S 
ATOM      3  C   UNL     1       5.281   4.229  18.971  0.00  0.00    +0.000 A 
ATOM      4  N   UNL     1       4.485   3.641  19.897  0.00  0.00    +0.000 N 
ATOM      5  N   UNL     1       5.247   3.990  17.682  0.00  0.00    +0.000 NA
ATOM      6  C   UNL     1       6.164   4.763  16.989  0.00  0.00    +0.000 A 
ATOM      7  H   UNL     1       4.688   3.818  20.873  0.00  0.00    +0.000 HD
ENDROOT
BRANCH   4   8
ATOM      8  C   UNL     1       3.140   3.270  19.678  0.00  0.00    +0.000 A 
ATOM      9  C   UNL     1       2.860   2.154  18.879  0.00  0.00    +0.000 A 
ATOM     10  C   UNL     1       1.540   1.777  18.611  0.00  0.00    +0.000 A 
ATOM     11  C   UNL     1       0.480   2.502  19.153  0.00  0.00    +0.000 A 
ATOM     12  C   UNL     1       0.740   3.611  19.951  0.00  0.00    +0.000 A 
ATOM     13  C   UNL     1       2.059   3.997  20.200  0.00  0.00    +0.000 A 
ENDBRANCH   4   8
BRANCH   6  14
ATOM     14  C   UNL     1       6.268   4.586  15.537  0.00  0.00    +0.000 A 
ATOM     15  C   UNL     1       5.303   3.917  14.775  0.00  0.00    +0.000 A 
ATOM     16  C   UNL     1       5.444   3.778  13.391  0.00  0.00    +0.000 A 
ATOM     17  C   UNL     1       6.573   4.276  12.750  0.00  0.00    +0.000 A 
ATOM     18  C   UNL     1       7.561   4.916  13.491  0.00  0.00    +0.000 A 
ATOM     19  C   UNL     1       7.407   5.073  14.874  0.00  0.00    +0.000 A 
ENDBRANCH   6  14
BRANCH   1  20
ATOM     20  C   UNL     1       7.964   6.619  17.374  0.00  0.00    +0.000 C 
BRANCH  20  22
ATOM     21  O   UNL     1       6.529   8.503  16.972  0.00  0.00    +0.000 OA
ATOM     22  C   UNL     1       7.562   8.073  17.481  0.00  0.00    +0.000 C 
ATOM     23  N   UNL     1       8.466   8.867  18.147  0.00  0.00    +0.000 N 
ATOM     24  H   UNL     1       9.283   8.453  18.573  0.00  0.00    +0.000 HD
BRANCH  23  25
ATOM     25  C   UNL     1       8.293  10.295  18.252  0.00  0.00    +0.000 C 
BRANCH  25  26
ATOM     26  C   UNL     1       9.563  10.947  18.729  0.00  0.00    +0.000 A 
ATOM     27  C   UNL     1      10.581  11.271  17.818  0.00  0.00    +0.000 A 
ATOM     28  C   UNL     1      11.755  11.883  18.258  0.00  0.00    +0.000 A 
ATOM     29  C   UNL     1      11.931  12.165  19.612  0.00  0.00    +0.000 A 
ATOM     30  C   UNL     1      10.937  11.826  20.528  0.00  0.00    +0.000 A 
ATOM     31  C   UNL     1       9.760  11.217  20.091  0.00  0.00    +0.000 A 
ENDBRANCH  25  26
ENDBRANCH  23  25
ENDBRANCH  20  22
ENDBRANCH   1  20
TORSDOF 6
ENDMDL
MODEL 5
REMARK VINA RESULT:      -8.0      3.517      3.997
REMARK  Name = 
REMARK  6 active torsions:
REMARK  status: ('A' for Active; 'I' for Inactive)
REMARK    1  A    between atoms: C_2  and  C_3
REMARK    2  A    between atoms: C_3  and  C_4
REMARK    3  A    between atoms: N_7  and  C_8
REMARK    4  A    between atoms: C_15  and  C_16
REMARK    5  A    between atoms: N_22  and  C_23
REMARK    6  A    between atoms: C_23  and  C_24
REMARK                            x       y       z     vdW  Elec       q    Type
REMARK                         _______ _______ _______ _____ _____    ______ ____
ROOT
ATOM      1  C   UNL     1       0.230  10.041  19.166  0.00  0.00    +0.000 A 
ATOM      2  S   UNL     1       0.855  10.112  20.775  0.00  0.00    +0.000 S 
ATOM      3  C   UNL     1      -0.584  10.865  21.331  0.00  0.00    +0.000 A 
ATOM      4  N   UNL     1      -0.712  11.252  22.624  0.00  0.00    +0.000 N 
ATOM      5  N   UNL     1      -1.510  10.984  20.410  0.00  0.00    +0.000 NA
ATOM      6  C   UNL     1      -1.076  10.524  19.178  0.00  0.00    +0.000 A 
ATOM      7  H   UNL     1       0.027  10.996  23.266  0.00  0.00    +0.000 HD
ENDROOT
BRANCH   4   8
ATOM      8  C   UNL     1      -1.445  12.379  23.054  0.00  0.00    +0.000 A 
ATOM      9  C   UNL     1      -2.770  12.213  23.478  0.00  0.00    +0.000 A 
ATOM     10  C   UNL     1      -3.538  13.311  23.879  0.00  0.00    +0.000 A 
ATOM     11  C   UNL     1      -2.986  14.590  23.876  0.00  0.00    +0.000 A 
ATOM     12  C   UNL     1      -1.671  14.773  23.462  0.00  0.00    +0.000 A 
ATOM     13  C   UNL     1      -0.913  13.678  23.043  0.00  0.00    +0.000 A 
ENDBRANCH   4   8
BRANCH   6  14
ATOM     14  C   UNL     1      -2.012  10.562  18.050  0.00  0.00    +0.000 A 
ATOM     15  C   UNL     1      -1.837   9.810  16.882  0.00  0.00    +0.000 A 
ATOM     16  C   UNL     1      -2.761   9.876  15.835  0.00  0.00    +0.000 A 
ATOM     17  C   UNL     1      -3.859  10.725  15.924  0.00  0.00    +0.000 A 
ATOM     18  C   UNL     1      -4.035  11.507  17.061  0.00  0.00    +0.000 A 
ATOM     19  C   UNL     1      -3.120  11.423  18.117  0.00  0.00    +0.000 A 
ENDBRANCH   6  14
BRANCH   1  20
ATOM     20  C   UNL     1       1.032   9.506  18.014  0.00  0.00    +0.000 C 
BRANCH  20  22
ATOM     21  O   UNL     1       3.164   8.433  17.740  0.00  0.00    +0.000 OA
ATOM     22  C   UNL     1       2.112   8.511  18.372  0.00  0.00    +0.000 C 
ATOM     23  N   UNL     1       1.797   7.681  19.422  0.00  0.00    +0.000 N 
ATOM     24  H   UNL     1       0.931   7.810  19.926  0.00  0.00    +0.000 HD
BRANCH  23  25
ATOM     25  C   UNL     1       2.667   6.605  19.831  0.00  0.00    +0.000 C 
BRANCH  25  26
ATOM     26  C   UNL     1       2.053   5.272  19.494  0.00  0.00    +0.000 A 
ATOM     27  C   UNL     1       2.125   4.766  18.187  0.00  0.00    +0.000 A 
ATOM     28  C   UNL     1       1.564   3.528  17.876  0.00  0.00    +0.000 A 
ATOM     29  C   UNL     1       0.914   2.788  18.862  0.00  0.00    +0.000 A 
ATOM     30  C   UNL     1       0.816   3.291  20.158  0.00  0.00    +0.000 A 
ATOM     31  C   UNL     1       1.379   4.528  20.473  0.00  0.00    +0.000 A 
ENDBRANCH  25  26
ENDBRANCH  23  25
ENDBRANCH  20  22
ENDBRANCH   1  20
TORSDOF 6
ENDMDL
MODEL 6
REMARK VINA RESULT:      -8.0      4.563      8.056
REMARK  Name = 
REMARK  6 active torsions:
REMARK  status: ('A' for Active; 'I' for Inactive)
REMARK    1  A    between atoms: C_2  and  C_3
REMARK    2  A    between atoms: C_3  and  C_4
REMARK    3  A    between atoms: N_7  and  C_8
REMARK    4  A    between atoms: C_15  and  C_16
REMARK    5  A    between atoms: N_22  and  C_23
REMARK    6  A    between atoms: C_23  and  C_24
REMARK                            x       y       z     vdW  Elec       q    Type
REMARK                         _______ _______ _______ _____ _____    ______ ____
ROOT
ATOM      1  C   UNL     1       3.634   5.648  17.780  0.00  0.00    +0.000 A 
ATOM      2  S   UNL     1       3.935   7.240  17.181  0.00  0.00    +0.000 S 
ATOM      3  C   UNL     1       2.736   7.890  18.223  0.00  0.00    +0.000 A 
ATOM      4  N   UNL     1       2.433   9.211  18.198  0.00  0.00    +0.000 N 
ATOM      5  N   UNL     1       2.200   7.006  19.030  0.00  0.00    +0.000 NA
ATOM      6  C   UNL     1       2.692   5.731  18.801  0.00  0.00    +0.000 A 
ATOM      7  H   UNL     1       3.002   9.812  17.614  0.00  0.00    +0.000 HD
ENDROOT
BRANCH   4   8
ATOM      8  C   UNL     1       1.149   9.744  18.443  0.00  0.00    +0.000 A 
ATOM      9  C   UNL     1       0.911  10.428  19.643  0.00  0.00    +0.000 A 
ATOM     10  C   UNL     1      -0.357  10.940  19.937  0.00  0.00    +0.000 A 
ATOM     11  C   UNL     1      -1.401  10.789  19.027  0.00  0.00    +0.000 A 
ATOM     12  C   UNL     1      -1.182  10.116  17.831  0.00  0.00    +0.000 A 
ATOM     13  C   UNL     1       0.080   9.588  17.548  0.00  0.00    +0.000 A 
ENDBRANCH   4   8
BRANCH   6  14
ATOM     14  C   UNL     1       2.209   4.636  19.648  0.00  0.00    +0.000 A 
ATOM     15  C   UNL     1       1.250   3.707  19.227  0.00  0.00    +0.000 A 
ATOM     16  C   UNL     1       0.825   2.675  20.070  0.00  0.00    +0.000 A 
ATOM     17  C   UNL     1       1.327   2.578  21.363  0.00  0.00    +0.000 A 
ATOM     18  C   UNL     1       2.255   3.510  21.815  0.00  0.00    +0.000 A 
ATOM     19  C   UNL     1       2.696   4.528  20.962  0.00  0.00    +0.000 A 
ENDBRANCH   6  14
BRANCH   1  20
ATOM     20  C   UNL     1       4.342   4.438  17.241  0.00  0.00    +0.000 C 
BRANCH  20  22
ATOM     21  O   UNL     1       6.581   5.176  16.781  0.00  0.00    +0.000 OA
ATOM     22  C   UNL     1       5.528   4.716  16.345  0.00  0.00    +0.000 C 
ATOM     23  N   UNL     1       5.309   4.457  15.013  0.00  0.00    +0.000 N 
ATOM     24  H   UNL     1       4.434   4.049  14.714  0.00  0.00    +0.000 HD
BRANCH  23  25
ATOM     25  C   UNL     1       6.295   4.763  14.005  0.00  0.00    +0.000 C 
BRANCH  25  26
ATOM     26  C   UNL     1       6.250   3.746  12.895  0.00  0.00    +0.000 A 
ATOM     27  C   UNL     1       7.436   3.288  12.302  0.00  0.00    +0.000 A 
ATOM     28  C   UNL     1       7.395   2.340  11.280  0.00  0.00    +0.000 A 
ATOM     29  C   UNL     1       6.170   1.850  10.830  0.00  0.00    +0.000 A 
ATOM     30  C   UNL     1       4.984   2.315  11.396  0.00  0.00    +0.000 A 
ATOM     31  C   UNL     1       5.022   3.261  12.421  0.00  0.00    +0.000 A 
ENDBRANCH  25  26
ENDBRANCH  23  25
ENDBRANCH  20  22
ENDBRANCH   1  20
TORSDOF 6
ENDMDL
MODEL 7
REMARK VINA RESULT:      -8.0      0.236      1.282
REMARK  Name = 
REMARK  6 active torsions:
REMARK  status: ('A' for Active; 'I' for Inactive)
REMARK    1  A    between atoms: C_2  and  C_3
REMARK    2  A    between atoms: C_3  and  C_4
REMARK    3  A    between atoms: N_7  and  C_8
REMARK    4  A    between atoms: C_15  and  C_16
REMARK    5  A    between atoms: N_22  and  C_23
REMARK    6  A    between atoms: C_23  and  C_24
REMARK                            x       y       z     vdW  Elec       q    Type
REMARK                         _______ _______ _______ _____ _____    ______ ____
ROOT
ATOM      1  C   UNL     1       0.230  11.438  19.933  0.00  0.00    +0.000 A 
ATOM      2  S   UNL     1       1.338  12.551  20.652  0.00  0.00    +0.000 S 
ATOM      3  C   UNL     1       0.600  13.863  19.828  0.00  0.00    +0.000 A 
ATOM      4  N   UNL     1       1.084  15.123  19.951  0.00  0.00    +0.000 N 
ATOM      5  N   UNL     1      -0.455  13.523  19.128  0.00  0.00    +0.000 NA
ATOM      6  C   UNL     1      -0.687  12.158  19.172  0.00  0.00    +0.000 A 
ATOM      7  H   UNL     1       1.832  15.277  20.617  0.00  0.00    +0.000 HD
ENDROOT
BRANCH   4   8
ATOM      8  C   UNL     1       1.054  16.097  18.929  0.00  0.00    +0.000 A 
ATOM      9  C   UNL     1      -0.151  16.753  18.645  0.00  0.00    +0.000 A 
ATOM     10  C   UNL     1      -0.228  17.698  17.617  0.00  0.00    +0.000 A 
ATOM     11  C   UNL     1       0.905  18.013  16.868  0.00  0.00    +0.000 A 
ATOM     12  C   UNL     1       2.110  17.374  17.139  0.00  0.00    +0.000 A 
ATOM     13  C   UNL     1       2.179  16.416  18.153  0.00  0.00    +0.000 A 
ENDBRANCH   4   8
BRANCH   6  14
ATOM     14  C   UNL     1      -1.854  11.626  18.461  0.00  0.00    +0.000 A 
ATOM     15  C   UNL     1      -3.172  11.956  18.796  0.00  0.00    +0.000 A 
ATOM     16  C   UNL     1      -4.253  11.426  18.084  0.00  0.00    +0.000 A 
ATOM     17  C   UNL     1      -4.033  10.527  17.047  0.00  0.00    +0.000 A 
ATOM     18  C   UNL     1      -2.733  10.159  16.718  0.00  0.00    +0.000 A 
ATOM     19  C   UNL     1      -1.652  10.707  17.417  0.00  0.00    +0.000 A 
ENDBRANCH   6  14
BRANCH   1  20
ATOM     20  C   UNL     1       0.310   9.957  20.169  0.00  0.00    +0.000 C 
BRANCH  20  22
ATOM     21  O   UNL     1       1.575   9.599  18.159  0.00  0.00    +0.000 OA
ATOM     22  C   UNL     1       1.274   9.202  19.283  0.00  0.00    +0.000 C 
ATOM     23  N   UNL     1       1.740   8.025  19.820  0.00  0.00    +0.000 N 
ATOM     24  H   UNL     1       1.485   7.764  20.762  0.00  0.00    +0.000 HD
BRANCH  23  25
ATOM     25  C   UNL     1       2.586   7.128  19.071  0.00  0.00    +0.000 C 
BRANCH  25  26
ATOM     26  C   UNL     1       2.101   5.709  19.204  0.00  0.00    +0.000 A 
ATOM     27  C   UNL     1       1.974   4.892  18.071  0.00  0.00    +0.000 A 
ATOM     28  C   UNL     1       1.532   3.575  18.194  0.00  0.00    +0.000 A 
ATOM     29  C   UNL     1       1.199   3.065  19.447  0.00  0.00    +0.000 A 
ATOM     30  C   UNL     1       1.299   3.874  20.578  0.00  0.00    +0.000 A 
ATOM     31  C   UNL     1       1.744   5.191  20.458  0.00  0.00    +0.000 A 
ENDBRANCH  25  26
ENDBRANCH  23  25
ENDBRANCH  20  22
ENDBRANCH   1  20
TORSDOF 6
ENDMDL
MODEL 8
REMARK VINA RESULT:      -8.0      4.551      8.041
REMARK  Name = 
REMARK  6 active torsions:
REMARK  status: ('A' for Active; 'I' for Inactive)
REMARK    1  A    between atoms: C_2  and  C_3
REMARK    2  A    between atoms: C_3  and  C_4
REMARK    3  A    between atoms: N_7  and  C_8
REMARK    4  A    between atoms: C_15  and  C_16
REMARK    5  A    between atoms: N_22  and  C_23
REMARK    6  A    between atoms: C_23  and  C_24
REMARK                            x       y       z     vdW  Elec       q    Type
REMARK                         _______ _______ _______ _____ _____    ______ ____
ROOT
ATOM      1  C   UNL     1       3.581   5.686  17.736  0.00  0.00    +0.000 A 
ATOM      2  S   UNL     1       3.870   7.266  17.101  0.00  0.00    +0.000 S 
ATOM      3  C   UNL     1       2.704   7.939  18.167  0.00  0.00    +0.000 A 
ATOM      4  N   UNL     1       2.406   9.260  18.128  0.00  0.00    +0.000 N 
ATOM      5  N   UNL     1       2.188   7.071  19.004  0.00  0.00    +0.000 NA
ATOM      6  C   UNL     1       2.669   5.791  18.783  0.00  0.00    +0.000 A 
ATOM      7  H   UNL     1       2.959   9.850  17.518  0.00  0.00    +0.000 HD
ENDROOT
BRANCH   4   8
ATOM      8  C   UNL     1       1.132   9.803  18.402  0.00  0.00    +0.000 A 
ATOM      9  C   UNL     1       0.944  10.550  19.573  0.00  0.00    +0.000 A 
ATOM     10  C   UNL     1      -0.311  11.074  19.896  0.00  0.00    +0.000 A 
ATOM     11  C   UNL     1      -1.395  10.872  19.044  0.00  0.00    +0.000 A 
ATOM     12  C   UNL     1      -1.227  10.136  17.876  0.00  0.00    +0.000 A 
ATOM     13  C   UNL     1       0.024   9.597  17.566  0.00  0.00    +0.000 A 
ENDBRANCH   4   8
BRANCH   6  14
ATOM     14  C   UNL     1       2.207   4.712  19.662  0.00  0.00    +0.000 A 
ATOM     15  C   UNL     1       2.645   4.559  20.983  0.00  0.00    +0.000 A 
ATOM     16  C   UNL     1       2.171   3.516  21.784  0.00  0.00    +0.000 A 
ATOM     17  C   UNL     1       1.279   2.584  21.265  0.00  0.00    +0.000 A 
ATOM     18  C   UNL     1       0.857   2.696  19.944  0.00  0.00    +0.000 A 
ATOM     19  C   UNL     1       1.315   3.754  19.151  0.00  0.00    +0.000 A 
ENDBRANCH   6  14
BRANCH   1  20
ATOM     20  C   UNL     1       4.267   4.464  17.196  0.00  0.00    +0.000 C 
BRANCH  20  22
ATOM     21  O   UNL     1       6.537   5.122  16.766  0.00  0.00    +0.000 OA
ATOM     22  C   UNL     1       5.467   4.722  16.313  0.00  0.00    +0.000 C 
ATOM     23  N   UNL     1       5.242   4.517  14.972  0.00  0.00    +0.000 N 
ATOM     24  H   UNL     1       4.352   4.156  14.658  0.00  0.00    +0.000 HD
BRANCH  23  25
ATOM     25  C   UNL     1       6.243   4.814  13.977  0.00  0.00    +0.000 C 
BRANCH  25  26
ATOM     26  C   UNL     1       6.224   3.780  12.882  0.00  0.00    +0.000 A 
ATOM     27  C   UNL     1       5.007   3.242  12.434  0.00  0.00    +0.000 A 
ATOM     28  C   UNL     1       4.988   2.291  11.415  0.00  0.00    +0.000 A 
ATOM     29  C   UNL     1       6.182   1.856  10.842  0.00  0.00    +0.000 A 
ATOM     30  C   UNL     1       7.398   2.365  11.295  0.00  0.00    +0.000 A 
ATOM     31  C   UNL     1       7.420   3.320  12.313  0.00  0.00    +0.000 A 
ENDBRANCH  25  26
ENDBRANCH  23  25
ENDBRANCH  20  22
ENDBRANCH   1  20
TORSDOF 6
ENDMDL
MODEL 9
REMARK VINA RESULT:      -7.9      4.599      8.084
REMARK  Name = 
REMARK  6 active torsions:
REMARK  status: ('A' for Active; 'I' for Inactive)
REMARK    1  A    between atoms: C_2  and  C_3
REMARK    2  A    between atoms: C_3  and  C_4
REMARK    3  A    between atoms: N_7  and  C_8
REMARK    4  A    between atoms: C_15  and  C_16
REMARK    5  A    between atoms: N_22  and  C_23
REMARK    6  A    between atoms: C_23  and  C_24
REMARK                            x       y       z     vdW  Elec       q    Type
REMARK                         _______ _______ _______ _____ _____    ______ ____
ROOT
ATOM      1  C   UNL     1       3.671   5.621  17.706  0.00  0.00    +0.000 A 
ATOM      2  S   UNL     1       3.994   7.214  17.123  0.00  0.00    +0.000 S 
ATOM      3  C   UNL     1       2.798   7.869  18.165  0.00  0.00    +0.000 A 
ATOM      4  N   UNL     1       2.512   9.194  18.150  0.00  0.00    +0.000 N 
ATOM      5  N   UNL     1       2.247   6.985  18.961  0.00  0.00    +0.000 NA
ATOM      6  C   UNL     1       2.724   5.707  18.724  0.00  0.00    +0.000 A 
ATOM      7  H   UNL     1       3.090   9.794  17.575  0.00  0.00    +0.000 HD
ENDROOT
BRANCH   4   8
ATOM      8  C   UNL     1       1.233   9.741  18.395  0.00  0.00    +0.000 A 
ATOM      9  C   UNL     1       0.184   9.448  17.513  0.00  0.00    +0.000 A 
ATOM     10  C   UNL     1      -1.087   9.999  17.702  0.00  0.00    +0.000 A 
ATOM     11  C   UNL     1      -1.332  10.839  18.787  0.00  0.00    +0.000 A 
ATOM     12  C   UNL     1      -0.304  11.138  19.674  0.00  0.00    +0.000 A 
ATOM     13  C   UNL     1       0.970  10.602  19.471  0.00  0.00    +0.000 A 
ENDBRANCH   4   8
BRANCH   6  14
ATOM     14  C   UNL     1       2.225   4.610  19.558  0.00  0.00    +0.000 A 
ATOM     15  C   UNL     1       1.358   3.619  19.083  0.00  0.00    +0.000 A 
ATOM     16  C   UNL     1       0.912   2.588  19.916  0.00  0.00    +0.000 A 
ATOM     17  C   UNL     1       1.298   2.553  21.252  0.00  0.00    +0.000 A 
ATOM     18  C   UNL     1       2.132   3.546  21.755  0.00  0.00    +0.000 A 
ATOM     19  C   UNL     1       2.594   4.564  20.913  0.00  0.00    +0.000 A 
ENDBRANCH   6  14
BRANCH   1  20
ATOM     20  C   UNL     1       4.366   4.407  17.159  0.00  0.00    +0.000 C 
BRANCH  20  22
ATOM     21  O   UNL     1       6.625   5.063  16.672  0.00  0.00    +0.000 OA
ATOM     22  C   UNL     1       5.539   4.679  16.243  0.00  0.00    +0.000 C 
ATOM     23  N   UNL     1       5.269   4.509  14.906  0.00  0.00    +0.000 N 
ATOM     24  H   UNL     1       4.367   4.161  14.613  0.00  0.00    +0.000 HD
BRANCH  23  25
ATOM     25  C   UNL     1       6.240   4.824  13.886  0.00  0.00    +0.000 C 
BRANCH  25  26
ATOM     26  C   UNL     1       6.248   3.764  12.818  0.00  0.00    +0.000 A 
ATOM     27  C   UNL     1       5.046   3.181  12.387  0.00  0.00    +0.000 A 
ATOM     28  C   UNL     1       5.052   2.204  11.391  0.00  0.00    +0.000 A 
ATOM     29  C   UNL     1       6.256   1.790  10.825  0.00  0.00    +0.000 A 
ATOM     30  C   UNL     1       7.458   2.346  11.262  0.00  0.00    +0.000 A 
ATOM     31  C   UNL     1       7.455   3.325  12.256  0.00  0.00    +0.000 A 
ENDBRANCH  25  26
ENDBRANCH  23  25
ENDBRANCH  20  22
ENDBRANCH   1  20
TORSDOF 6
ENDMDL
