MODEL 1
REMARK VINA RESULT:      -6.1      0.000      0.000
REMARK  Name = 
REMARK  2 active torsions:
REMARK  status: ('A' for Active; 'I' for Inactive)
REMARK    1  A    between atoms: C_1  and  N_2
REMARK    2  A    between atoms: C_5  and  C_6
REMARK                            x       y       z     vdW  Elec       q    Type
REMARK                         _______ _______ _______ _____ _____    ______ ____
ROOT
ATOM      1  C   UNL     1       7.151   4.900  15.343  0.00  0.00    +0.000 C 
ATOM      2  N   UNL     1       6.144   4.557  16.350  0.00  0.00    +0.000 N 
ATOM      3  C   UNL     1       4.894   4.159  15.969  0.00  0.00    +0.000 A 
ATOM      4  C   UNL     1       3.930   3.835  16.927  0.00  0.00    +0.000 A 
ATOM      5  C   UNL     1       4.231   3.938  18.297  0.00  0.00    +0.000 A 
ATOM      6  C   UNL     1       5.528   4.350  18.658  0.00  0.00    +0.000 A 
ATOM      7  C   UNL     1       6.470   4.645  17.671  0.00  0.00    +0.000 A 
ENDROOT
BRANCH   5   8
ATOM      8  C   UNL     1       3.198   3.633  19.339  0.00  0.00    +0.000 A 
ATOM      9  C   UNL     1       1.885   4.142  19.238  0.00  0.00    +0.000 A 
ATOM     10  C   UNL     1       0.930   3.866  20.224  0.00  0.00    +0.000 A 
ATOM     11  C   UNL     1       1.275   3.091  21.333  0.00  0.00    +0.000 A 
ATOM     12  C   UNL     1       2.568   2.582  21.454  0.00  0.00    +0.000 A 
ATOM     13  C   UNL     1       3.521   2.840  20.464  0.00  0.00    +0.000 A 
ENDBRANCH   5   8
TORSDOF 1
ENDMDL
MODEL 2
REMARK VINA RESULT:      -6.1      1.825      2.126
REMARK  Name = 
REMARK  2 active torsions:
REMARK  status: ('A' for Active; 'I' for Inactive)
REMARK    1  A    between atoms: C_1  and  N_2
REMARK    2  A    between atoms: C_5  and  C_6
REMARK                            x       y       z     vdW  Elec       q    Type
REMARK                         _______ _______ _______ _____ _____    ______ ____
ROOT
ATOM      1  C   UNL     1       7.627   7.334  17.396  0.00  0.00    +0.000 C 
ATOM      2  N   UNL     1       6.431   6.584  17.786  0.00  0.00    +0.000 N 
ATOM      3  C   UNL     1       5.243   6.797  17.148  0.00  0.00    +0.000 A 
ATOM      4  C   UNL     1       4.099   6.086  17.521  0.00  0.00    +0.000 A 
ATOM      5  C   UNL     1       4.156   5.155  18.574  0.00  0.00    +0.000 A 
ATOM      6  C   UNL     1       5.396   4.956  19.210  0.00  0.00    +0.000 A 
ATOM      7  C   UNL     1       6.521   5.671  18.797  0.00  0.00    +0.000 A 
ENDROOT
BRANCH   5   8
ATOM      8  C   UNL     1       2.932   4.411  19.013  0.00  0.00    +0.000 A 
ATOM      9  C   UNL     1       2.433   4.535  20.328  0.00  0.00    +0.000 A 
ATOM     10  C   UNL     1       1.298   3.824  20.735  0.00  0.00    +0.000 A 
ATOM     11  C   UNL     1       0.654   2.966  19.842  0.00  0.00    +0.000 A 
ATOM     12  C   UNL     1       1.133   2.826  18.539  0.00  0.00    +0.000 A 
ATOM     13  C   UNL     1       2.256   3.547  18.122  0.00  0.00    +0.000 A 
ENDBRANCH   5   8
TORSDOF 1
ENDMDL
MODEL 3
REMARK VINA RESULT:      -6.1      0.138      1.887
REMARK  Name = 
REMARK  2 active torsions:
REMARK  status: ('A' for Active; 'I' for Inactive)
REMARK    1  A    between atoms: C_1  and  N_2
REMARK    2  A    between atoms: C_5  and  C_6
REMARK                            x       y       z     vdW  Elec       q    Type
REMARK                         _______ _______ _______ _____ _____    ______ ____
ROOT
ATOM      1  C   UNL     1       7.183   4.864  15.401  0.00  0.00    +0.000 C 
ATOM      2  N   UNL     1       6.175   4.592  16.428  0.00  0.00    +0.000 N 
ATOM      3  C   UNL     1       6.440   4.853  17.742  0.00  0.00    +0.000 A 
ATOM      4  C   UNL     1       5.482   4.591  18.725  0.00  0.00    +0.000 A 
ATOM      5  C   UNL     1       4.239   4.036  18.372  0.00  0.00    +0.000 A 
ATOM      6  C   UNL     1       3.995   3.780  17.009  0.00  0.00    +0.000 A 
ATOM      7  C   UNL     1       4.970   4.073  16.054  0.00  0.00    +0.000 A 
ENDROOT
BRANCH   5   8
ATOM      8  C   UNL     1       3.214   3.713  19.416  0.00  0.00    +0.000 A 
ATOM      9  C   UNL     1       3.503   2.823  20.473  0.00  0.00    +0.000 A 
ATOM     10  C   UNL     1       2.534   2.513  21.435  0.00  0.00    +0.000 A 
ATOM     11  C   UNL     1       1.259   3.074  21.348  0.00  0.00    +0.000 A 
ATOM     12  C   UNL     1       0.952   3.952  20.309  0.00  0.00    +0.000 A 
ATOM     13  C   UNL     1       1.920   4.278  19.355  0.00  0.00    +0.000 A 
ENDBRANCH   5   8
TORSDOF 1
ENDMDL
MODEL 4
REMARK VINA RESULT:      -6.1      1.856      2.048
REMARK  Name = 
REMARK  2 active torsions:
REMARK  status: ('A' for Active; 'I' for Inactive)
REMARK    1  A    between atoms: C_1  and  N_2
REMARK    2  A    between atoms: C_5  and  C_6
REMARK                            x       y       z     vdW  Elec       q    Type
REMARK                         _______ _______ _______ _____ _____    ______ ____
ROOT
ATOM      1  C   UNL     1       7.635   7.354  17.426  0.00  0.00    +0.000 C 
ATOM      2  N   UNL     1       6.443   6.589  17.799  0.00  0.00    +0.000 N 
ATOM      3  C   UNL     1       5.249   6.824  17.179  0.00  0.00    +0.000 A 
ATOM      4  C   UNL     1       4.109   6.099  17.536  0.00  0.00    +0.000 A 
ATOM      5  C   UNL     1       4.176   5.131  18.554  0.00  0.00    +0.000 A 
ATOM      6  C   UNL     1       5.421   4.910  19.173  0.00  0.00    +0.000 A 
ATOM      7  C   UNL     1       6.542   5.641  18.776  0.00  0.00    +0.000 A 
ENDROOT
BRANCH   5   8
ATOM      8  C   UNL     1       2.956   4.371  18.977  0.00  0.00    +0.000 A 
ATOM      9  C   UNL     1       2.376   3.394  18.138  0.00  0.00    +0.000 A 
ATOM     10  C   UNL     1       1.226   2.700  18.533  0.00  0.00    +0.000 A 
ATOM     11  C   UNL     1       0.629   2.981  19.763  0.00  0.00    +0.000 A 
ATOM     12  C   UNL     1       1.183   3.945  20.605  0.00  0.00    +0.000 A 
ATOM     13  C   UNL     1       2.341   4.630  20.223  0.00  0.00    +0.000 A 
ENDBRANCH   5   8
TORSDOF 1
ENDMDL
MODEL 5
REMARK VINA RESULT:      -6.1      1.564      1.885
REMARK  Name = 
REMARK  2 active torsions:
REMARK  status: ('A' for Active; 'I' for Inactive)
REMARK    1  A    between atoms: C_1  and  N_2
REMARK    2  A    between atoms: C_5  and  C_6
REMARK                            x       y       z     vdW  Elec       q    Type
REMARK                         _______ _______ _______ _____ _____    ______ ____
ROOT
ATOM      1  C   UNL     1       7.043   5.118  14.454  0.00  0.00    +0.000 C 
ATOM      2  N   UNL     1       5.991   4.998  15.465  0.00  0.00    +0.000 N 
ATOM      3  C   UNL     1       5.411   6.115  15.996  0.00  0.00    +0.000 A 
ATOM      4  C   UNL     1       4.410   6.004  16.964  0.00  0.00    +0.000 A 
ATOM      5  C   UNL     1       4.002   4.737  17.418  0.00  0.00    +0.000 A 
ATOM      6  C   UNL     1       4.617   3.605  16.851  0.00  0.00    +0.000 A 
ATOM      7  C   UNL     1       5.600   3.756  15.872  0.00  0.00    +0.000 A 
ENDROOT
BRANCH   5   8
ATOM      8  C   UNL     1       2.957   4.599  18.483  0.00  0.00    +0.000 A 
ATOM      9  C   UNL     1       2.916   5.481  19.586  0.00  0.00    +0.000 A 
ATOM     10  C   UNL     1       1.947   5.334  20.586  0.00  0.00    +0.000 A 
ATOM     11  C   UNL     1       1.015   4.298  20.508  0.00  0.00    +0.000 A 
ATOM     12  C   UNL     1       1.040   3.415  19.430  0.00  0.00    +0.000 A 
ATOM     13  C   UNL     1       1.995   3.566  18.420  0.00  0.00    +0.000 A 
ENDBRANCH   5   8
TORSDOF 1
ENDMDL
MODEL 6
REMARK VINA RESULT:      -6.1      2.319      5.138
REMARK  Name = 
REMARK  2 active torsions:
REMARK  status: ('A' for Active; 'I' for Inactive)
REMARK    1  A    between atoms: C_1  and  N_2
REMARK    2  A    between atoms: C_5  and  C_6
REMARK                            x       y       z     vdW  Elec       q    Type
REMARK                         _______ _______ _______ _____ _____    ______ ____
ROOT
ATOM      1  C   UNL     1       0.659   2.435  18.806  0.00  0.00    +0.000 C 
ATOM      2  N   UNL     1       1.873   3.248  18.705  0.00  0.00    +0.000 N 
ATOM      3  C   UNL     1       1.869   4.412  17.991  0.00  0.00    +0.000 A 
ATOM      4  C   UNL     1       3.027   5.187  17.890  0.00  0.00    +0.000 A 
ATOM      5  C   UNL     1       4.218   4.764  18.507  0.00  0.00    +0.000 A 
ATOM      6  C   UNL     1       4.191   3.561  19.237  0.00  0.00    +0.000 A 
ATOM      7  C   UNL     1       3.008   2.824  19.332  0.00  0.00    +0.000 A 
ENDROOT
BRANCH   5   8
ATOM      8  C   UNL     1       5.479   5.563  18.377  0.00  0.00    +0.000 A 
ATOM      9  C   UNL     1       5.616   6.558  17.384  0.00  0.00    +0.000 A 
ATOM     10  C   UNL     1       6.804   7.287  17.259  0.00  0.00    +0.000 A 
ATOM     11  C   UNL     1       7.878   7.025  18.111  0.00  0.00    +0.000 A 
ATOM     12  C   UNL     1       7.765   6.044  19.096  0.00  0.00    +0.000 A 
ATOM     13  C   UNL     1       6.575   5.323  19.237  0.00  0.00    +0.000 A 
ENDBRANCH   5   8
TORSDOF 1
ENDMDL
MODEL 7
REMARK VINA RESULT:      -6.1      0.166      1.351
REMARK  Name = 
REMARK  2 active torsions:
REMARK  status: ('A' for Active; 'I' for Inactive)
REMARK    1  A    between atoms: C_1  and  N_2
REMARK    2  A    between atoms: C_5  and  C_6
REMARK                            x       y       z     vdW  Elec       q    Type
REMARK                         _______ _______ _______ _____ _____    ______ ____
ROOT
ATOM      1  C   UNL     1       7.171   5.062  15.510  0.00  0.00    +0.000 C 
ATOM      2  N   UNL     1       6.151   4.674  16.486  0.00  0.00    +0.000 N 
ATOM      3  C   UNL     1       4.946   4.184  16.069  0.00  0.00    +0.000 A 
ATOM      4  C   UNL     1       3.969   3.817  16.998  0.00  0.00    +0.000 A 
ATOM      5  C   UNL     1       4.209   3.968  18.375  0.00  0.00    +0.000 A 
ATOM      6  C   UNL     1       5.460   4.475  18.774  0.00  0.00    +0.000 A 
ATOM      7  C   UNL     1       6.419   4.812  17.816  0.00  0.00    +0.000 A 
ENDROOT
BRANCH   5   8
ATOM      8  C   UNL     1       3.159   3.617  19.384  0.00  0.00    +0.000 A 
ATOM      9  C   UNL     1       3.475   2.863  20.537  0.00  0.00    +0.000 A 
ATOM     10  C   UNL     1       2.484   2.525  21.466  0.00  0.00    +0.000 A 
ATOM     11  C   UNL     1       1.162   2.918  21.253  0.00  0.00    +0.000 A 
ATOM     12  C   UNL     1       0.828   3.659  20.119  0.00  0.00    +0.000 A 
ATOM     13  C   UNL     1       1.816   4.015  19.196  0.00  0.00    +0.000 A 
ENDBRANCH   5   8
TORSDOF 1
ENDMDL
MODEL 8
REMARK VINA RESULT:      -6.1      1.870      2.397
REMARK  Name = 
REMARK  2 active torsions:
REMARK  status: ('A' for Active; 'I' for Inactive)
REMARK    1  A    between atoms: C_1  and  N_2
REMARK    2  A    between atoms: C_5  and  C_6
REMARK                            x       y       z     vdW  Elec       q    Type
REMARK                         _______ _______ _______ _____ _____    ______ ____
ROOT
ATOM      1  C   UNL     1       7.589   7.364  17.356  0.00  0.00    +0.000 C 
ATOM      2  N   UNL     1       6.411   6.597  17.767  0.00  0.00    +0.000 N 
ATOM      3  C   UNL     1       6.519   5.622  18.716  0.00  0.00    +0.000 A 
ATOM      4  C   UNL     1       5.397   4.885  19.108  0.00  0.00    +0.000 A 
ATOM      5  C   UNL     1       4.147   5.128  18.511  0.00  0.00    +0.000 A 
ATOM      6  C   UNL     1       4.068   6.141  17.537  0.00  0.00    +0.000 A 
ATOM      7  C   UNL     1       5.207   6.869  17.186  0.00  0.00    +0.000 A 
ENDROOT
BRANCH   5   8
ATOM      8  C   UNL     1       2.942   4.323  18.890  0.00  0.00    +0.000 A 
ATOM      9  C   UNL     1       2.543   3.201  18.129  0.00  0.00    +0.000 A 
ATOM     10  C   UNL     1       1.406   2.464  18.481  0.00  0.00    +0.000 A 
ATOM     11  C   UNL     1       0.641   2.844  19.585  0.00  0.00    +0.000 A 
ATOM     12  C   UNL     1       1.016   3.950  20.347  0.00  0.00    +0.000 A 
ATOM     13  C   UNL     1       2.160   4.680  20.011  0.00  0.00    +0.000 A 
ENDBRANCH   5   8
TORSDOF 1
ENDMDL
MODEL 9
REMARK VINA RESULT:      -6.0      2.262      5.388
REMARK  Name = 
REMARK  2 active torsions:
REMARK  status: ('A' for Active; 'I' for Inactive)
REMARK    1  A    between atoms: C_1  and  N_2
REMARK    2  A    between atoms: C_5  and  C_6
REMARK                            x       y       z     vdW  Elec       q    Type
REMARK                         _______ _______ _______ _____ _____    ______ ____
ROOT
ATOM      1  C   UNL     1       0.777   2.263  18.898  0.00  0.00    +0.000 C 
ATOM      2  N   UNL     1       1.998   3.056  18.747  0.00  0.00    +0.000 N 
ATOM      3  C   UNL     1       3.122   2.735  19.454  0.00  0.00    +0.000 A 
ATOM      4  C   UNL     1       4.288   3.493  19.316  0.00  0.00    +0.000 A 
ATOM      5  C   UNL     1       4.310   4.609  18.460  0.00  0.00    +0.000 A 
ATOM      6  C   UNL     1       3.138   4.913  17.744  0.00  0.00    +0.000 A 
ATOM      7  C   UNL     1       1.998   4.120  17.894  0.00  0.00    +0.000 A 
ENDROOT
BRANCH   5   8
ATOM      8  C   UNL     1       5.539   5.455  18.328  0.00  0.00    +0.000 A 
ATOM      9  C   UNL     1       6.654   5.263  19.175  0.00  0.00    +0.000 A 
ATOM     10  C   UNL     1       7.792   6.070  19.056  0.00  0.00    +0.000 A 
ATOM     11  C   UNL     1       7.829   7.089  18.103  0.00  0.00    +0.000 A 
ATOM     12  C   UNL     1       6.738   7.298  17.260  0.00  0.00    +0.000 A 
ATOM     13  C   UNL     1       5.605   6.485  17.362  0.00  0.00    +0.000 A 
ENDBRANCH   5   8
TORSDOF 1
ENDMDL
