MODEL 1
REMARK VINA RESULT:      -4.1      0.000      0.000
REMARK  Name = 
REMARK  2 active torsions:
REMARK  status: ('A' for Active; 'I' for Inactive)
REMARK    1  A    between atoms: C_1  and  C_2
REMARK    2  A    between atoms: C_2  and  N_3
REMARK                            x       y       z     vdW  Elec       q    Type
REMARK                         _______ _______ _______ _____ _____    ______ ____
ROOT
ATOM      1  N   UNL     1       3.044   3.215  19.125  0.00  0.00    +0.000 N 
ATOM      2  C   UNL     1       1.790   3.707  18.994  0.00  0.00    +0.000 A 
ATOM      3  C   UNL     1       0.917   3.718  20.073  0.00  0.00    +0.000 A 
ATOM      4  C   UNL     1       1.324   3.183  21.286  0.00  0.00    +0.000 A 
ATOM      5  C   UNL     1       2.599   2.648  21.396  0.00  0.00    +0.000 A 
ATOM      6  C   UNL     1       3.454   2.684  20.296  0.00  0.00    +0.000 A 
ENDROOT
BRANCH   1   8
ATOM      7  C   UNL     1       3.814   4.686  17.333  0.00  0.00    +0.000 C 
ATOM      8  C   UNL     1       3.982   3.327  17.987  0.00  0.00    +0.000 C 
ENDBRANCH   1   8
TORSDOF 1
ENDMDL
MODEL 2
REMARK VINA RESULT:      -4.1      0.262      1.693
REMARK  Name = 
REMARK  2 active torsions:
REMARK  status: ('A' for Active; 'I' for Inactive)
REMARK    1  A    between atoms: C_1  and  C_2
REMARK    2  A    between atoms: C_2  and  N_3
REMARK                            x       y       z     vdW  Elec       q    Type
REMARK                         _______ _______ _______ _____ _____    ______ ____
ROOT
ATOM      1  N   UNL     1       2.864   3.157  18.956  0.00  0.00    +0.000 N 
ATOM      2  C   UNL     1       3.408   2.696  20.107  0.00  0.00    +0.000 A 
ATOM      3  C   UNL     1       2.668   2.676  21.281  0.00  0.00    +0.000 A 
ATOM      4  C   UNL     1       1.372   3.169  21.280  0.00  0.00    +0.000 A 
ATOM      5  C   UNL     1       0.840   3.673  20.102  0.00  0.00    +0.000 A 
ATOM      6  C   UNL     1       1.607   3.647  18.939  0.00  0.00    +0.000 A 
ENDROOT
BRANCH   1   8
ATOM      7  C   UNL     1       3.995   4.447  17.215  0.00  0.00    +0.000 C 
ATOM      8  C   UNL     1       3.642   3.054  17.702  0.00  0.00    +0.000 C 
ENDBRANCH   1   8
TORSDOF 1
ENDMDL
MODEL 3
REMARK VINA RESULT:      -4.0      1.528      1.756
REMARK  Name = 
REMARK  2 active torsions:
REMARK  status: ('A' for Active; 'I' for Inactive)
REMARK    1  A    between atoms: C_1  and  C_2
REMARK    2  A    between atoms: C_2  and  N_3
REMARK                            x       y       z     vdW  Elec       q    Type
REMARK                         _______ _______ _______ _____ _____    ______ ____
ROOT
ATOM      1  N   UNL     1       2.358   4.655  19.026  0.00  0.00    +0.000 N 
ATOM      2  C   UNL     1       1.442   3.716  18.692  0.00  0.00    +0.000 A 
ATOM      3  C   UNL     1       0.840   2.935  19.669  0.00  0.00    +0.000 A 
ATOM      4  C   UNL     1       1.211   3.095  20.995  0.00  0.00    +0.000 A 
ATOM      5  C   UNL     1       2.179   4.035  21.319  0.00  0.00    +0.000 A 
ATOM      6  C   UNL     1       2.736   4.818  20.310  0.00  0.00    +0.000 A 
ENDROOT
BRANCH   1   8
ATOM      7  C   UNL     1       2.683   6.991  18.387  0.00  0.00    +0.000 C 
ATOM      8  C   UNL     1       2.889   5.546  17.971  0.00  0.00    +0.000 C 
ENDBRANCH   1   8
TORSDOF 1
ENDMDL
MODEL 4
REMARK VINA RESULT:      -4.0      1.935      2.729
REMARK  Name = 
REMARK  2 active torsions:
REMARK  status: ('A' for Active; 'I' for Inactive)
REMARK    1  A    between atoms: C_1  and  C_2
REMARK    2  A    between atoms: C_2  and  N_3
REMARK                            x       y       z     vdW  Elec       q    Type
REMARK                         _______ _______ _______ _____ _____    ______ ____
ROOT
ATOM      1  N   UNL     1       2.053   5.303  19.414  0.00  0.00    +0.000 N 
ATOM      2  C   UNL     1       1.590   4.745  20.557  0.00  0.00    +0.000 A 
ATOM      3  C   UNL     1       1.059   3.462  20.554  0.00  0.00    +0.000 A 
ATOM      4  C   UNL     1       0.969   2.764  19.360  0.00  0.00    +0.000 A 
ATOM      5  C   UNL     1       1.412   3.363  18.189  0.00  0.00    +0.000 A 
ATOM      6  C   UNL     1       1.966   4.641  18.242  0.00  0.00    +0.000 A 
ENDROOT
BRANCH   1   8
ATOM      7  C   UNL     1       2.575   7.321  18.138  0.00  0.00    +0.000 C 
ATOM      8  C   UNL     1       2.718   6.623  19.478  0.00  0.00    +0.000 C 
ENDBRANCH   1   8
TORSDOF 1
ENDMDL
MODEL 5
REMARK VINA RESULT:      -4.0      1.582      1.879
REMARK  Name = 
REMARK  2 active torsions:
REMARK  status: ('A' for Active; 'I' for Inactive)
REMARK    1  A    between atoms: C_1  and  C_2
REMARK    2  A    between atoms: C_2  and  N_3
REMARK                            x       y       z     vdW  Elec       q    Type
REMARK                         _______ _______ _______ _____ _____    ______ ____
ROOT
ATOM      1  N   UNL     1       2.534   4.468  18.434  0.00  0.00    +0.000 N 
ATOM      2  C   UNL     1       2.254   5.006  19.644  0.00  0.00    +0.000 A 
ATOM      3  C   UNL     1       1.383   4.369  20.517  0.00  0.00    +0.000 A 
ATOM      4  C   UNL     1       0.766   3.190  20.127  0.00  0.00    +0.000 A 
ATOM      5  C   UNL     1       1.033   2.670  18.869  0.00  0.00    +0.000 A 
ATOM      6  C   UNL     1       1.936   3.326  18.036  0.00  0.00    +0.000 A 
ENDROOT
BRANCH   1   8
ATOM      7  C   UNL     1       4.331   4.044  16.832  0.00  0.00    +0.000 C 
ATOM      8  C   UNL     1       3.555   5.113  17.580  0.00  0.00    +0.000 C 
ENDBRANCH   1   8
TORSDOF 1
ENDMDL
MODEL 6
REMARK VINA RESULT:      -4.0      1.362      1.510
REMARK  Name = 
REMARK  2 active torsions:
REMARK  status: ('A' for Active; 'I' for Inactive)
REMARK    1  A    between atoms: C_1  and  C_2
REMARK    2  A    between atoms: C_2  and  N_3
REMARK                            x       y       z     vdW  Elec       q    Type
REMARK                         _______ _______ _______ _____ _____    ______ ____
ROOT
ATOM      1  N   UNL     1       2.765   4.509  18.663  0.00  0.00    +0.000 N 
ATOM      2  C   UNL     1       1.872   3.532  18.379  0.00  0.00    +0.000 A 
ATOM      3  C   UNL     1       1.014   3.050  19.358  0.00  0.00    +0.000 A 
ATOM      4  C   UNL     1       1.102   3.549  20.648  0.00  0.00    +0.000 A 
ATOM      5  C   UNL     1       2.048   4.523  20.935  0.00  0.00    +0.000 A 
ATOM      6  C   UNL     1       2.869   5.000  19.916  0.00  0.00    +0.000 A 
ENDROOT
BRANCH   1   8
ATOM      7  C   UNL     1       4.275   3.953  16.824  0.00  0.00    +0.000 C 
ATOM      8  C   UNL     1       3.579   5.078  17.568  0.00  0.00    +0.000 C 
ENDBRANCH   1   8
TORSDOF 1
ENDMDL
MODEL 7
REMARK VINA RESULT:      -4.0      1.011      3.293
REMARK  Name = 
REMARK  2 active torsions:
REMARK  status: ('A' for Active; 'I' for Inactive)
REMARK    1  A    between atoms: C_1  and  C_2
REMARK    2  A    between atoms: C_2  and  N_3
REMARK                            x       y       z     vdW  Elec       q    Type
REMARK                         _______ _______ _______ _____ _____    ______ ____
ROOT
ATOM      1  N   UNL     1       2.601   3.840  19.894  0.00  0.00    +0.000 N 
ATOM      2  C   UNL     1       1.632   4.131  18.994  0.00  0.00    +0.000 A 
ATOM      3  C   UNL     1       1.874   4.022  17.632  0.00  0.00    +0.000 A 
ATOM      4  C   UNL     1       3.134   3.647  17.191  0.00  0.00    +0.000 A 
ATOM      5  C   UNL     1       4.129   3.388  18.122  0.00  0.00    +0.000 A 
ATOM      6  C   UNL     1       3.835   3.481  19.481  0.00  0.00    +0.000 A 
ENDROOT
BRANCH   1   8
ATOM      7  C   UNL     1       1.435   2.632  21.670  0.00  0.00    +0.000 C 
ATOM      8  C   UNL     1       2.271   3.854  21.335  0.00  0.00    +0.000 C 
ENDBRANCH   1   8
TORSDOF 1
ENDMDL
MODEL 8
REMARK VINA RESULT:      -4.0      1.093      3.658
REMARK  Name = 
REMARK  2 active torsions:
REMARK  status: ('A' for Active; 'I' for Inactive)
REMARK    1  A    between atoms: C_1  and  C_2
REMARK    2  A    between atoms: C_2  and  N_3
REMARK                            x       y       z     vdW  Elec       q    Type
REMARK                         _______ _______ _______ _____ _____    ______ ____
ROOT
ATOM      1  N   UNL     1       1.871   3.637  19.317  0.00  0.00    +0.000 N 
ATOM      2  C   UNL     1       2.284   2.432  18.859  0.00  0.00    +0.000 A 
ATOM      3  C   UNL     1       3.176   2.345  17.799  0.00  0.00    +0.000 A 
ATOM      4  C   UNL     1       3.617   3.506  17.182  0.00  0.00    +0.000 A 
ATOM      5  C   UNL     1       3.157   4.733  17.637  0.00  0.00    +0.000 A 
ATOM      6  C   UNL     1       2.284   4.775  18.723  0.00  0.00    +0.000 A 
ENDROOT
BRANCH   1   8
ATOM      7  C   UNL     1       1.554   2.732  21.565  0.00  0.00    +0.000 C 
ATOM      8  C   UNL     1       1.013   3.692  20.521  0.00  0.00    +0.000 C 
ENDBRANCH   1   8
TORSDOF 1
ENDMDL
MODEL 9
REMARK VINA RESULT:      -4.0      1.844      2.378
REMARK  Name = 
REMARK  2 active torsions:
REMARK  status: ('A' for Active; 'I' for Inactive)
REMARK    1  A    between atoms: C_1  and  C_2
REMARK    2  A    between atoms: C_2  and  N_3
REMARK                            x       y       z     vdW  Elec       q    Type
REMARK                         _______ _______ _______ _____ _____    ______ ____
ROOT
ATOM      1  N   UNL     1       2.392   5.215  19.288  0.00  0.00    +0.000 N 
ATOM      2  C   UNL     1       2.130   4.447  18.204  0.00  0.00    +0.000 A 
ATOM      3  C   UNL     1       1.341   3.310  18.317  0.00  0.00    +0.000 A 
ATOM      4  C   UNL     1       0.850   2.940  19.559  0.00  0.00    +0.000 A 
ATOM      5  C   UNL     1       1.158   3.715  20.668  0.00  0.00    +0.000 A 
ATOM      6  C   UNL     1       1.929   4.865  20.506  0.00  0.00    +0.000 A 
ENDROOT
BRANCH   1   8
ATOM      7  C   UNL     1       2.373   7.380  18.155  0.00  0.00    +0.000 C 
ATOM      8  C   UNL     1       3.138   6.480  19.108  0.00  0.00    +0.000 C 
ENDBRANCH   1   8
TORSDOF 1
ENDMDL
