MODEL 1
REMARK VINA RESULT:      -7.0      0.000      0.000
REMARK  Name = 
REMARK  7 active torsions:
REMARK  status: ('A' for Active; 'I' for Inactive)
REMARK    1  A    between atoms: C_1  and  O_2
REMARK    2  A    between atoms: O_2  and  C_3
REMARK    3  A    between atoms: C_3  and  C_5
REMARK    4  A    between atoms: C_5  and  N_6
REMARK    5  A    between atoms: C_5  and  N_10
REMARK    6  A    between atoms: C_5  and  C_17
REMARK    7  A    between atoms: C_7  and  C_8
REMARK                            x       y       z     vdW  Elec       q    Type
REMARK                         _______ _______ _______ _____ _____    ______ ____
ROOT
ATOM      1  C   UNL     1       3.251   4.644  18.518  0.00  0.00    +0.000 C 
ENDROOT
BRANCH   1   2
ATOM      2  N   UNL     1       4.400   5.040  19.366  0.00  0.00    +0.000 N 
ATOM      3  C   UNL     1       5.582   5.578  18.915  0.00  0.00    +0.000 A 
ATOM      4  C   UNL     1       5.706   6.454  17.842  0.00  0.00    +0.000 A 
ATOM      5  C   UNL     1       6.958   6.971  17.510  0.00  0.00    +0.000 A 
ATOM      6  C   UNL     1       8.061   6.614  18.266  0.00  0.00    +0.000 A 
ATOM      7  C   UNL     1       7.858   5.749  19.323  0.00  0.00    +0.000 A 
ATOM      8  N   UNL     1       6.653   5.230  19.652  0.00  0.00    +0.000 NA
ATOM      9  H   UNL     1       4.638   4.315  20.048  0.00  0.00    +0.000 HD
ENDBRANCH   1   2
BRANCH   1  10
ATOM     10  N   UNL     1       2.753   5.887  17.915  0.00  0.00    +0.000 N 
ATOM     11  C   UNL     1       2.378   6.956  18.687  0.00  0.00    +0.000 C 
ATOM     12  C   UNL     1       1.863   8.147  17.926  0.00  0.00    +0.000 C 
ATOM     13  O   UNL     1       2.448   6.939  19.909  0.00  0.00    +0.000 OA
ATOM     14  H   UNL     1       2.724   5.941  16.904  0.00  0.00    +0.000 HD
ENDBRANCH   1  10
BRANCH   1  15
ATOM     15  C   UNL     1       3.596   3.496  17.491  0.00  0.00    +0.000 C 
ATOM     16  F   UNL     1       4.571   3.841  16.608  0.00  0.00    +0.000 F 
ATOM     17  F   UNL     1       4.047   2.370  18.101  0.00  0.00    +0.000 F 
ATOM     18  F   UNL     1       2.519   3.142  16.743  0.00  0.00    +0.000 F 
ENDBRANCH   1  15
BRANCH   1  19
ATOM     19  C   UNL     1       2.131   4.005  19.376  0.00  0.00    +0.000 C 
ATOM     20  O   UNL     1       0.968   3.888  19.001  0.00  0.00    +0.000 OA
BRANCH  19  22
ATOM     21  C   UNL     1       1.671   2.993  21.486  0.00  0.00    +0.000 C 
ATOM     22  O   UNL     1       2.584   3.671  20.620  0.00  0.00    +0.000 OA
ENDBRANCH  19  22
ENDBRANCH   1  19
TORSDOF 5
ENDMDL
MODEL 2
REMARK VINA RESULT:      -6.8      3.355      5.364
REMARK  Name = 
REMARK  7 active torsions:
REMARK  status: ('A' for Active; 'I' for Inactive)
REMARK    1  A    between atoms: C_1  and  O_2
REMARK    2  A    between atoms: O_2  and  C_3
REMARK    3  A    between atoms: C_3  and  C_5
REMARK    4  A    between atoms: C_5  and  N_6
REMARK    5  A    between atoms: C_5  and  N_10
REMARK    6  A    between atoms: C_5  and  C_17
REMARK    7  A    between atoms: C_7  and  C_8
REMARK                            x       y       z     vdW  Elec       q    Type
REMARK                         _______ _______ _______ _____ _____    ______ ____
ROOT
ATOM      1  C   UNL     1       5.485   5.213  16.972  0.00  0.00    +0.000 C 
ENDROOT
BRANCH   1   2
ATOM      2  N   UNL     1       5.158   3.905  17.588  0.00  0.00    +0.000 N 
ATOM      3  C   UNL     1       3.915   3.513  18.024  0.00  0.00    +0.000 A 
ATOM      4  C   UNL     1       2.709   3.850  17.417  0.00  0.00    +0.000 A 
ATOM      5  C   UNL     1       1.513   3.348  17.927  0.00  0.00    +0.000 A 
ATOM      6  C   UNL     1       1.543   2.506  19.026  0.00  0.00    +0.000 A 
ATOM      7  C   UNL     1       2.778   2.208  19.566  0.00  0.00    +0.000 A 
ATOM      8  N   UNL     1       3.947   2.694  19.092  0.00  0.00    +0.000 NA
ATOM      9  H   UNL     1       5.828   3.649  18.317  0.00  0.00    +0.000 HD
ENDBRANCH   1   2
BRANCH   1  10
ATOM     10  N   UNL     1       5.179   5.069  15.543  0.00  0.00    +0.000 N 
ATOM     11  C   UNL     1       5.755   4.082  14.785  0.00  0.00    +0.000 C 
ATOM     12  C   UNL     1       5.365   4.079  13.332  0.00  0.00    +0.000 C 
ATOM     13  O   UNL     1       6.540   3.267  15.254  0.00  0.00    +0.000 OA
ATOM     14  H   UNL     1       4.502   5.704  15.140  0.00  0.00    +0.000 HD
ENDBRANCH   1  10
BRANCH   1  15
ATOM     15  C   UNL     1       4.783   6.435  17.684  0.00  0.00    +0.000 C 
ATOM     16  F   UNL     1       5.521   7.576  17.644  0.00  0.00    +0.000 F 
ATOM     17  F   UNL     1       3.595   6.757  17.110  0.00  0.00    +0.000 F 
ATOM     18  F   UNL     1       4.540   6.188  18.997  0.00  0.00    +0.000 F 
ENDBRANCH   1  15
BRANCH   1  19
ATOM     19  C   UNL     1       6.989   5.539  17.145  0.00  0.00    +0.000 C 
ATOM     20  O   UNL     1       7.628   6.243  16.367  0.00  0.00    +0.000 OA
BRANCH  19  22
ATOM     21  C   UNL     1       7.892   5.670  19.348  0.00  0.00    +0.000 C 
ATOM     22  O   UNL     1       7.523   4.881  18.215  0.00  0.00    +0.000 OA
ENDBRANCH  19  22
ENDBRANCH   1  19
TORSDOF 5
ENDMDL
MODEL 3
REMARK VINA RESULT:      -6.7      1.312      1.673
REMARK  Name = 
REMARK  7 active torsions:
REMARK  status: ('A' for Active; 'I' for Inactive)
REMARK    1  A    between atoms: C_1  and  O_2
REMARK    2  A    between atoms: O_2  and  C_3
REMARK    3  A    between atoms: C_3  and  C_5
REMARK    4  A    between atoms: C_5  and  N_6
REMARK    5  A    between atoms: C_5  and  N_10
REMARK    6  A    between atoms: C_5  and  C_17
REMARK    7  A    between atoms: C_7  and  C_8
REMARK                            x       y       z     vdW  Elec       q    Type
REMARK                         _______ _______ _______ _____ _____    ______ ____
ROOT
ATOM      1  C   UNL     1       2.711   4.531  18.761  0.00  0.00    +0.000 C 
ENDROOT
BRANCH   1   2
ATOM      2  N   UNL     1       4.150   4.789  19.007  0.00  0.00    +0.000 N 
ATOM      3  C   UNL     1       5.130   4.846  18.045  0.00  0.00    +0.000 A 
ATOM      4  C   UNL     1       4.966   5.357  16.762  0.00  0.00    +0.000 A 
ATOM      5  C   UNL     1       6.053   5.405  15.891  0.00  0.00    +0.000 A 
ATOM      6  C   UNL     1       7.289   4.954  16.322  0.00  0.00    +0.000 A 
ATOM      7  C   UNL     1       7.377   4.471  17.612  0.00  0.00    +0.000 A 
ATOM      8  N   UNL     1       6.331   4.407  18.467  0.00  0.00    +0.000 NA
ATOM      9  H   UNL     1       4.513   4.220  19.776  0.00  0.00    +0.000 HD
ENDBRANCH   1   2
BRANCH   1  10
ATOM     10  N   UNL     1       2.195   5.741  18.109  0.00  0.00    +0.000 N 
ATOM     11  C   UNL     1       2.369   6.983  18.665  0.00  0.00    +0.000 C 
ATOM     12  C   UNL     1       1.760   8.122  17.894  0.00  0.00    +0.000 C 
ATOM     13  O   UNL     1       2.968   7.151  19.720  0.00  0.00    +0.000 OA
ATOM     14  H   UNL     1       1.731   5.633  17.216  0.00  0.00    +0.000 HD
ENDBRANCH   1  10
BRANCH   1  15
ATOM     15  C   UNL     1       2.439   3.186  17.980  0.00  0.00    +0.000 C 
ATOM     16  F   UNL     1       1.211   2.660  18.229  0.00  0.00    +0.000 F 
ATOM     17  F   UNL     1       2.494   3.347  16.633  0.00  0.00    +0.000 F 
ATOM     18  F   UNL     1       3.336   2.220  18.304  0.00  0.00    +0.000 F 
ENDBRANCH   1  15
BRANCH   1  19
ATOM     19  C   UNL     1       1.959   4.306  20.096  0.00  0.00    +0.000 C 
ATOM     20  O   UNL     1       0.825   4.723  20.317  0.00  0.00    +0.000 OA
BRANCH  19  22
ATOM     21  C   UNL     1       2.160   2.570  21.718  0.00  0.00    +0.000 C 
ATOM     22  O   UNL     1       2.744   3.665  21.010  0.00  0.00    +0.000 OA
ENDBRANCH  19  22
ENDBRANCH   1  19
TORSDOF 5
ENDMDL
MODEL 4
REMARK VINA RESULT:      -6.6      0.568      1.249
REMARK  Name = 
REMARK  7 active torsions:
REMARK  status: ('A' for Active; 'I' for Inactive)
REMARK    1  A    between atoms: C_1  and  O_2
REMARK    2  A    between atoms: O_2  and  C_3
REMARK    3  A    between atoms: C_3  and  C_5
REMARK    4  A    between atoms: C_5  and  N_6
REMARK    5  A    between atoms: C_5  and  N_10
REMARK    6  A    between atoms: C_5  and  C_17
REMARK    7  A    between atoms: C_7  and  C_8
REMARK                            x       y       z     vdW  Elec       q    Type
REMARK                         _______ _______ _______ _____ _____    ______ ____
ROOT
ATOM      1  C   UNL     1       3.373   4.622  18.546  0.00  0.00    +0.000 C 
ENDROOT
BRANCH   1   2
ATOM      2  N   UNL     1       4.510   5.057  19.391  0.00  0.00    +0.000 N 
ATOM      3  C   UNL     1       5.679   5.618  18.936  0.00  0.00    +0.000 A 
ATOM      4  C   UNL     1       5.784   6.484  17.852  0.00  0.00    +0.000 A 
ATOM      5  C   UNL     1       7.024   7.028  17.517  0.00  0.00    +0.000 A 
ATOM      6  C   UNL     1       8.134   6.707  18.280  0.00  0.00    +0.000 A 
ATOM      7  C   UNL     1       7.949   5.851  19.347  0.00  0.00    +0.000 A 
ATOM      8  N   UNL     1       6.757   5.306  19.679  0.00  0.00    +0.000 NA
ATOM      9  H   UNL     1       4.765   4.347  20.082  0.00  0.00    +0.000 HD
ENDBRANCH   1   2
BRANCH   1  10
ATOM     10  N   UNL     1       2.860   5.842  17.909  0.00  0.00    +0.000 N 
ATOM     11  C   UNL     1       2.444   6.916  18.653  0.00  0.00    +0.000 C 
ATOM     12  C   UNL     1       1.918   8.081  17.860  0.00  0.00    +0.000 C 
ATOM     13  O   UNL     1       2.486   6.922  19.877  0.00  0.00    +0.000 OA
ATOM     14  H   UNL     1       2.852   5.878  16.897  0.00  0.00    +0.000 HD
ENDBRANCH   1  10
BRANCH   1  15
ATOM     15  C   UNL     1       3.743   3.456  17.548  0.00  0.00    +0.000 C 
ATOM     16  F   UNL     1       2.821   3.277  16.566  0.00  0.00    +0.000 F 
ATOM     17  F   UNL     1       4.916   3.678  16.901  0.00  0.00    +0.000 F 
ATOM     18  F   UNL     1       3.856   2.261  18.183  0.00  0.00    +0.000 F 
ENDBRANCH   1  15
BRANCH   1  19
ATOM     19  C   UNL     1       2.258   3.987  19.412  0.00  0.00    +0.000 C 
ATOM     20  O   UNL     1       2.396   3.701  20.599  0.00  0.00    +0.000 OA
BRANCH  19  22
ATOM     21  C   UNL     1       0.547   2.427  18.843  0.00  0.00    +0.000 C 
ATOM     22  O   UNL     1       1.145   3.714  18.671  0.00  0.00    +0.000 OA
ENDBRANCH  19  22
ENDBRANCH   1  19
TORSDOF 5
ENDMDL
MODEL 5
REMARK VINA RESULT:      -6.6      2.205      3.634
REMARK  Name = 
REMARK  7 active torsions:
REMARK  status: ('A' for Active; 'I' for Inactive)
REMARK    1  A    between atoms: C_1  and  O_2
REMARK    2  A    between atoms: O_2  and  C_3
REMARK    3  A    between atoms: C_3  and  C_5
REMARK    4  A    between atoms: C_5  and  N_6
REMARK    5  A    between atoms: C_5  and  N_10
REMARK    6  A    between atoms: C_5  and  C_17
REMARK    7  A    between atoms: C_7  and  C_8
REMARK                            x       y       z     vdW  Elec       q    Type
REMARK                         _______ _______ _______ _____ _____    ______ ____
ROOT
ATOM      1  C   UNL     1       2.821   4.853  19.493  0.00  0.00    +0.000 C 
ENDROOT
BRANCH   1   2
ATOM      2  N   UNL     1       4.173   5.288  19.914  0.00  0.00    +0.000 N 
ATOM      3  C   UNL     1       5.237   5.524  19.076  0.00  0.00    +0.000 A 
ATOM      4  C   UNL     1       5.147   6.071  17.800  0.00  0.00    +0.000 A 
ATOM      5  C   UNL     1       6.307   6.307  17.064  0.00  0.00    +0.000 A 
ATOM      6  C   UNL     1       7.538   6.005  17.621  0.00  0.00    +0.000 A 
ATOM      7  C   UNL     1       7.548   5.475  18.896  0.00  0.00    +0.000 A 
ATOM      8  N   UNL     1       6.433   5.229  19.620  0.00  0.00    +0.000 NA
ATOM      9  H   UNL     1       4.524   4.736  20.700  0.00  0.00    +0.000 HD
ENDBRANCH   1   2
BRANCH   1  10
ATOM     10  N   UNL     1       3.020   3.618  18.724  0.00  0.00    +0.000 N 
ATOM     11  C   UNL     1       3.627   2.520  19.279  0.00  0.00    +0.000 C 
ATOM     12  C   UNL     1       3.784   1.341  18.358  0.00  0.00    +0.000 C 
ATOM     13  O   UNL     1       4.022   2.505  20.438  0.00  0.00    +0.000 OA
ATOM     14  H   UNL     1       2.666   3.591  17.776  0.00  0.00    +0.000 HD
ENDBRANCH   1  10
BRANCH   1  15
ATOM     15  C   UNL     1       1.799   4.734  20.691  0.00  0.00    +0.000 C 
ATOM     16  F   UNL     1       1.100   5.878  20.916  0.00  0.00    +0.000 F 
ATOM     17  F   UNL     1       0.860   3.776  20.480  0.00  0.00    +0.000 F 
ATOM     18  F   UNL     1       2.420   4.434  21.861  0.00  0.00    +0.000 F 
ENDBRANCH   1  15
BRANCH   1  19
ATOM     19  C   UNL     1       2.159   5.921  18.588  0.00  0.00    +0.000 C 
ATOM     20  O   UNL     1       1.580   5.659  17.536  0.00  0.00    +0.000 OA
BRANCH  19  22
ATOM     21  C   UNL     1       2.179   8.265  18.152  0.00  0.00    +0.000 C 
ATOM     22  O   UNL     1       2.372   7.182  19.064  0.00  0.00    +0.000 OA
ENDBRANCH  19  22
ENDBRANCH   1  19
TORSDOF 5
ENDMDL
MODEL 6
REMARK VINA RESULT:      -6.5      3.223      5.294
REMARK  Name = 
REMARK  7 active torsions:
REMARK  status: ('A' for Active; 'I' for Inactive)
REMARK    1  A    between atoms: C_1  and  O_2
REMARK    2  A    between atoms: O_2  and  C_3
REMARK    3  A    between atoms: C_3  and  C_5
REMARK    4  A    between atoms: C_5  and  N_6
REMARK    5  A    between atoms: C_5  and  N_10
REMARK    6  A    between atoms: C_5  and  C_17
REMARK    7  A    between atoms: C_7  and  C_8
REMARK                            x       y       z     vdW  Elec       q    Type
REMARK                         _______ _______ _______ _____ _____    ______ ____
ROOT
ATOM      1  C   UNL     1       5.626   4.346  17.461  0.00  0.00    +0.000 C 
ENDROOT
BRANCH   1   2
ATOM      2  N   UNL     1       4.994   3.338  18.344  0.00  0.00    +0.000 N 
ATOM      3  C   UNL     1       3.650   3.239  18.614  0.00  0.00    +0.000 A 
ATOM      4  C   UNL     1       2.628   3.502  17.706  0.00  0.00    +0.000 A 
ATOM      5  C   UNL     1       1.299   3.317  18.086  0.00  0.00    +0.000 A 
ATOM      6  C   UNL     1       1.015   2.860  19.362  0.00  0.00    +0.000 A 
ATOM      7  C   UNL     1       2.082   2.610  20.202  0.00  0.00    +0.000 A 
ATOM      8  N   UNL     1       3.375   2.794  19.854  0.00  0.00    +0.000 NA
ATOM      9  H   UNL     1       5.488   3.249  19.235  0.00  0.00    +0.000 HD
ENDBRANCH   1   2
BRANCH   1  10
ATOM     10  N   UNL     1       5.553   3.789  16.104  0.00  0.00    +0.000 N 
ATOM     11  C   UNL     1       5.912   4.530  15.007  0.00  0.00    +0.000 C 
ATOM     12  C   UNL     1       5.757   3.832  13.683  0.00  0.00    +0.000 C 
ATOM     13  O   UNL     1       6.319   5.681  15.097  0.00  0.00    +0.000 OA
ATOM     14  H   UNL     1       5.259   2.825  16.005  0.00  0.00    +0.000 HD
ENDBRANCH   1  10
BRANCH   1  15
ATOM     15  C   UNL     1       5.015   5.793  17.620  0.00  0.00    +0.000 C 
ATOM     16  F   UNL     1       4.525   6.034  18.865  0.00  0.00    +0.000 F 
ATOM     17  F   UNL     1       5.930   6.771  17.399  0.00  0.00    +0.000 F 
ATOM     18  F   UNL     1       3.985   6.007  16.761  0.00  0.00    +0.000 F 
ENDBRANCH   1  15
BRANCH   1  19
ATOM     19  C   UNL     1       7.110   4.560  17.848  0.00  0.00    +0.000 C 
ATOM     20  O   UNL     1       8.045   4.432  17.063  0.00  0.00    +0.000 OA
BRANCH  19  22
ATOM     21  C   UNL     1       8.157   5.862  19.550  0.00  0.00    +0.000 C 
ATOM     22  O   UNL     1       7.245   4.826  19.181  0.00  0.00    +0.000 OA
ENDBRANCH  19  22
ENDBRANCH   1  19
TORSDOF 5
ENDMDL
MODEL 7
REMARK VINA RESULT:      -6.4      1.672      2.090
REMARK  Name = 
REMARK  7 active torsions:
REMARK  status: ('A' for Active; 'I' for Inactive)
REMARK    1  A    between atoms: C_1  and  O_2
REMARK    2  A    between atoms: O_2  and  C_3
REMARK    3  A    between atoms: C_3  and  C_5
REMARK    4  A    between atoms: C_5  and  N_6
REMARK    5  A    between atoms: C_5  and  N_10
REMARK    6  A    between atoms: C_5  and  C_17
REMARK    7  A    between atoms: C_7  and  C_8
REMARK                            x       y       z     vdW  Elec       q    Type
REMARK                         _______ _______ _______ _____ _____    ______ ____
ROOT
ATOM      1  C   UNL     1       2.931   4.384  18.829  0.00  0.00    +0.000 C 
ENDROOT
BRANCH   1   2
ATOM      2  N   UNL     1       3.927   4.827  17.825  0.00  0.00    +0.000 N 
ATOM      3  C   UNL     1       5.153   5.381  18.103  0.00  0.00    +0.000 A 
ATOM      4  C   UNL     1       5.968   5.031  19.175  0.00  0.00    +0.000 A 
ATOM      5  C   UNL     1       7.216   5.633  19.322  0.00  0.00    +0.000 A 
ATOM      6  C   UNL     1       7.635   6.566  18.388  0.00  0.00    +0.000 A 
ATOM      7  C   UNL     1       6.777   6.853  17.345  0.00  0.00    +0.000 A 
ATOM      8  N   UNL     1       5.558   6.287  17.193  0.00  0.00    +0.000 NA
ATOM      9  H   UNL     1       3.499   5.392  17.088  0.00  0.00    +0.000 HD
ENDBRANCH   1   2
BRANCH   1  10
ATOM     10  N   UNL     1       2.677   5.552  19.682  0.00  0.00    +0.000 N 
ATOM     11  C   UNL     1       2.284   6.754  19.149  0.00  0.00    +0.000 C 
ATOM     12  C   UNL     1       2.089   7.864  20.146  0.00  0.00    +0.000 C 
ATOM     13  O   UNL     1       2.114   6.914  17.947  0.00  0.00    +0.000 OA
ATOM     14  H   UNL     1       2.770   5.434  20.683  0.00  0.00    +0.000 HD
ENDBRANCH   1  10
BRANCH   1  15
ATOM     15  C   UNL     1       1.642   3.733  18.190  0.00  0.00    +0.000 C 
ATOM     16  F   UNL     1       1.131   4.456  17.159  0.00  0.00    +0.000 F 
ATOM     17  F   UNL     1       1.883   2.499  17.678  0.00  0.00    +0.000 F 
ATOM     18  F   UNL     1       0.637   3.602  19.094  0.00  0.00    +0.000 F 
ENDBRANCH   1  15
BRANCH   1  19
ATOM     19  C   UNL     1       3.499   3.232  19.694  0.00  0.00    +0.000 C 
ATOM     20  O   UNL     1       4.054   2.239  19.227  0.00  0.00    +0.000 OA
BRANCH  19  22
ATOM     21  C   UNL     1       2.308   2.523  21.634  0.00  0.00    +0.000 C 
ATOM     22  O   UNL     1       3.233   3.423  21.019  0.00  0.00    +0.000 OA
ENDBRANCH  19  22
ENDBRANCH   1  19
TORSDOF 5
ENDMDL
MODEL 8
REMARK VINA RESULT:      -6.4      2.605      3.686
REMARK  Name = 
REMARK  7 active torsions:
REMARK  status: ('A' for Active; 'I' for Inactive)
REMARK    1  A    between atoms: C_1  and  O_2
REMARK    2  A    between atoms: O_2  and  C_3
REMARK    3  A    between atoms: C_3  and  C_5
REMARK    4  A    between atoms: C_5  and  N_6
REMARK    5  A    between atoms: C_5  and  N_10
REMARK    6  A    between atoms: C_5  and  C_17
REMARK    7  A    between atoms: C_7  and  C_8
REMARK                            x       y       z     vdW  Elec       q    Type
REMARK                         _______ _______ _______ _____ _____    ______ ____
ROOT
ATOM      1  C   UNL     1       3.185   4.513  18.278  0.00  0.00    +0.000 C 
ENDROOT
BRANCH   1   2
ATOM      2  N   UNL     1       3.737   4.056  16.980  0.00  0.00    +0.000 N 
ATOM      3  C   UNL     1       4.987   4.350  16.492  0.00  0.00    +0.000 A 
ATOM      4  C   UNL     1       6.139   4.476  17.262  0.00  0.00    +0.000 A 
ATOM      5  C   UNL     1       7.362   4.729  16.642  0.00  0.00    +0.000 A 
ATOM      6  C   UNL     1       7.415   4.840  15.263  0.00  0.00    +0.000 A 
ATOM      7  C   UNL     1       6.232   4.692  14.566  0.00  0.00    +0.000 A 
ATOM      8  N   UNL     1       5.036   4.456  15.151  0.00  0.00    +0.000 NA
ATOM      9  H   UNL     1       3.073   4.194  16.214  0.00  0.00    +0.000 HD
ENDBRANCH   1   2
BRANCH   1  10
ATOM     10  N   UNL     1       3.952   3.803  19.310  0.00  0.00    +0.000 N 
ATOM     11  C   UNL     1       4.010   2.433  19.341  0.00  0.00    +0.000 C 
ATOM     12  C   UNL     1       4.812   1.852  20.474  0.00  0.00    +0.000 C 
ATOM     13  O   UNL     1       3.442   1.733  18.513  0.00  0.00    +0.000 OA
ATOM     14  H   UNL     1       4.464   4.360  19.982  0.00  0.00    +0.000 HD
ENDBRANCH   1  10
BRANCH   1  15
ATOM     15  C   UNL     1       3.159   6.084  18.430  0.00  0.00    +0.000 C 
ATOM     16  F   UNL     1       3.191   6.499  19.724  0.00  0.00    +0.000 F 
ATOM     17  F   UNL     1       4.225   6.681  17.836  0.00  0.00    +0.000 F 
ATOM     18  F   UNL     1       2.041   6.630  17.886  0.00  0.00    +0.000 F 
ENDBRANCH   1  15
BRANCH   1  19
ATOM     19  C   UNL     1       1.688   4.136  18.400  0.00  0.00    +0.000 C 
ATOM     20  O   UNL     1       0.991   3.796  17.447  0.00  0.00    +0.000 OA
BRANCH  19  22
ATOM     21  C   UNL     1       0.662   3.170  20.324  0.00  0.00    +0.000 C 
ATOM     22  O   UNL     1       1.232   4.309  19.675  0.00  0.00    +0.000 OA
ENDBRANCH  19  22
ENDBRANCH   1  19
TORSDOF 5
ENDMDL
MODEL 9
REMARK VINA RESULT:      -6.2      3.027      5.188
REMARK  Name = 
REMARK  7 active torsions:
REMARK  status: ('A' for Active; 'I' for Inactive)
REMARK    1  A    between atoms: C_1  and  O_2
REMARK    2  A    between atoms: O_2  and  C_3
REMARK    3  A    between atoms: C_3  and  C_5
REMARK    4  A    between atoms: C_5  and  N_6
REMARK    5  A    between atoms: C_5  and  N_10
REMARK    6  A    between atoms: C_5  and  C_17
REMARK    7  A    between atoms: C_7  and  C_8
REMARK                            x       y       z     vdW  Elec       q    Type
REMARK                         _______ _______ _______ _____ _____    ______ ____
ROOT
ATOM      1  C   UNL     1       4.794   5.598  17.487  0.00  0.00    +0.000 C 
ENDROOT
BRANCH   1   2
ATOM      2  N   UNL     1       4.757   4.318  18.232  0.00  0.00    +0.000 N 
ATOM      3  C   UNL     1       3.622   3.633  18.593  0.00  0.00    +0.000 A 
ATOM      4  C   UNL     1       2.458   3.554  17.835  0.00  0.00    +0.000 A 
ATOM      5  C   UNL     1       1.387   2.784  18.289  0.00  0.00    +0.000 A 
ATOM      6  C   UNL     1       1.503   2.097  19.485  0.00  0.00    +0.000 A 
ATOM      7  C   UNL     1       2.693   2.215  20.175  0.00  0.00    +0.000 A 
ATOM      8  N   UNL     1       3.737   2.964  19.756  0.00  0.00    +0.000 NA
ATOM      9  H   UNL     1       5.373   4.334  19.049  0.00  0.00    +0.000 HD
ENDBRANCH   1   2
BRANCH   1  10
ATOM     10  N   UNL     1       4.766   5.234  16.064  0.00  0.00    +0.000 N 
ATOM     11  C   UNL     1       5.716   4.408  15.520  0.00  0.00    +0.000 C 
ATOM     12  C   UNL     1       5.570   4.148  14.045  0.00  0.00    +0.000 C 
ATOM     13  O   UNL     1       6.624   3.924  16.184  0.00  0.00    +0.000 OA
ATOM     14  H   UNL     1       4.002   5.588  15.502  0.00  0.00    +0.000 HD
ENDBRANCH   1  10
BRANCH   1  15
ATOM     15  C   UNL     1       3.674   6.617  17.935  0.00  0.00    +0.000 C 
ATOM     16  F   UNL     1       2.451   6.333  17.415  0.00  0.00    +0.000 F 
ATOM     17  F   UNL     1       3.496   6.635  19.281  0.00  0.00    +0.000 F 
ATOM     18  F   UNL     1       3.961   7.888  17.552  0.00  0.00    +0.000 F 
ENDBRANCH   1  15
BRANCH   1  19
ATOM     19  C   UNL     1       6.099   6.373  17.793  0.00  0.00    +0.000 C 
ATOM     20  O   UNL     1       6.611   7.179  17.019  0.00  0.00    +0.000 OA
BRANCH  19  22
ATOM     21  C   UNL     1       8.069   5.967  19.074  0.00  0.00    +0.000 C 
ATOM     22  O   UNL     1       6.643   5.985  18.983  0.00  0.00    +0.000 OA
ENDBRANCH  19  22
ENDBRANCH   1  19
TORSDOF 5
ENDMDL
