MODEL 1
REMARK VINA RESULT:      -7.5      0.000      0.000
REMARK  Name = 
REMARK  6 active torsions:
REMARK  status: ('A' for Active; 'I' for Inactive)
REMARK    1  A    between atoms: C_1  and  C_2
REMARK    2  A    between atoms: C_2  and  C_3
REMARK    3  A    between atoms: C_3  and  C_4
REMARK    4  A    between atoms: C_4  and  C_5
REMARK    5  A    between atoms: C_6  and  C_7
REMARK    6  A    between atoms: C_10  and  O_11
REMARK                            x       y       z     vdW  Elec       q    Type
REMARK                         _______ _______ _______ _____ _____    ______ ____
ROOT
ATOM      1  C   UNL     1       3.312   5.242  17.578  0.00  0.00    +0.000 A 
ATOM      2  C   UNL     1       3.350   6.614  17.902  0.00  0.00    +0.000 A 
ATOM      3  N   UNL     1       4.550   7.089  17.385  0.00  0.00    +0.000 N 
ATOM      4  C   UNL     1       5.261   6.103  16.775  0.00  0.00    +0.000 A 
ATOM      5  N   UNL     1       6.466   6.248  16.191  0.00  0.00    +0.000 NA
ATOM      6  C   UNL     1       6.896   5.073  15.678  0.00  0.00    +0.000 A 
ATOM      7  C   UNL     1       6.172   3.887  15.747  0.00  0.00    +0.000 A 
ATOM      8  N   UNL     1       4.960   3.765  16.337  0.00  0.00    +0.000 NA
ATOM      9  C   UNL     1       4.516   4.938  16.870  0.00  0.00    +0.000 A 
ATOM     10  H   UNL     1       4.897   8.027  17.439  0.00  0.00    +0.000 HD
ENDROOT
BRANCH   2  11
ATOM     11  C   UNL     1       2.444   7.509  18.658  0.00  0.00    +0.000 A 
ATOM     12  C   UNL     1       2.118   7.278  19.999  0.00  0.00    +0.000 A 
ATOM     13  C   UNL     1       1.373   8.189  20.751  0.00  0.00    +0.000 A 
ATOM     14  C   UNL     1       0.912   9.352  20.149  0.00  0.00    +0.000 A 
ATOM     15  C   UNL     1       1.161   9.585  18.811  0.00  0.00    +0.000 A 
ATOM     16  C   UNL     1       1.909   8.670  18.063  0.00  0.00    +0.000 A 
BRANCH  14  17
ATOM     17  O   UNL     1       0.204  10.275  20.847  0.00  0.00    +0.000 OA
ATOM     18  H   UNL     1      -0.162   9.851  21.640  0.00  0.00    +0.000 HD
ENDBRANCH  14  17
ENDBRANCH   2  11
BRANCH   1  19
ATOM     19  C   UNL     1       2.249   4.213  17.841  0.00  0.00    +0.000 C 
BRANCH  19  20
ATOM     20  C   UNL     1       2.414   3.624  19.247  0.00  0.00    +0.000 C 
BRANCH  20  22
ATOM     21  C   UNL     1       1.422   2.958  21.433  0.00  0.00    +0.000 C 
ATOM     22  C   UNL     1       1.131   3.584  20.074  0.00  0.00    +0.000 C 
ENDBRANCH  20  22
ENDBRANCH  19  20
ENDBRANCH   1  19
TORSDOF 5
ENDMDL
MODEL 2
REMARK VINA RESULT:      -7.3      0.401      1.143
REMARK  Name = 
REMARK  6 active torsions:
REMARK  status: ('A' for Active; 'I' for Inactive)
REMARK    1  A    between atoms: C_1  and  C_2
REMARK    2  A    between atoms: C_2  and  C_3
REMARK    3  A    between atoms: C_3  and  C_4
REMARK    4  A    between atoms: C_4  and  C_5
REMARK    5  A    between atoms: C_6  and  C_7
REMARK    6  A    between atoms: C_10  and  O_11
REMARK                            x       y       z     vdW  Elec       q    Type
REMARK                         _______ _______ _______ _____ _____    ______ ____
ROOT
ATOM      1  C   UNL     1       3.240   5.369  17.735  0.00  0.00    +0.000 A 
ATOM      2  C   UNL     1       3.280   6.773  17.858  0.00  0.00    +0.000 A 
ATOM      3  N   UNL     1       4.415   7.178  17.164  0.00  0.00    +0.000 N 
ATOM      4  C   UNL     1       5.085   6.121  16.632  0.00  0.00    +0.000 A 
ATOM      5  N   UNL     1       6.224   6.190  15.919  0.00  0.00    +0.000 NA
ATOM      6  C   UNL     1       6.628   4.957  15.536  0.00  0.00    +0.000 A 
ATOM      7  C   UNL     1       5.939   3.788  15.842  0.00  0.00    +0.000 A 
ATOM      8  N   UNL     1       4.791   3.742  16.559  0.00  0.00    +0.000 NA
ATOM      9  C   UNL     1       4.376   4.976  16.963  0.00  0.00    +0.000 A 
ATOM     10  H   UNL     1       4.745   8.116  17.053  0.00  0.00    +0.000 HD
ENDROOT
BRANCH   2  11
ATOM     11  C   UNL     1       2.433   7.759  18.566  0.00  0.00    +0.000 A 
ATOM     12  C   UNL     1       1.875   8.865  17.913  0.00  0.00    +0.000 A 
ATOM     13  C   UNL     1       0.969   9.722  18.543  0.00  0.00    +0.000 A 
ATOM     14  C   UNL     1       0.627   9.494  19.869  0.00  0.00    +0.000 A 
ATOM     15  C   UNL     1       1.204   8.449  20.565  0.00  0.00    +0.000 A 
ATOM     16  C   UNL     1       2.109   7.594  19.928  0.00  0.00    +0.000 A 
BRANCH  14  17
ATOM     17  O   UNL     1      -0.266  10.287  20.514  0.00  0.00    +0.000 OA
ATOM     18  H   UNL     1      -0.042  11.215  20.336  0.00  0.00    +0.000 HD
ENDBRANCH  14  17
ENDBRANCH   2  11
BRANCH   1  19
ATOM     19  C   UNL     1       2.228   4.380  18.244  0.00  0.00    +0.000 C 
BRANCH  19  20
ATOM     20  C   UNL     1       2.683   3.794  19.585  0.00  0.00    +0.000 C 
BRANCH  20  22
ATOM     21  C   UNL     1       1.331   2.803  21.429  0.00  0.00    +0.000 C 
ATOM     22  C   UNL     1       1.759   4.105  20.760  0.00  0.00    +0.000 C 
ENDBRANCH  20  22
ENDBRANCH  19  20
ENDBRANCH   1  19
TORSDOF 5
ENDMDL
MODEL 3
REMARK VINA RESULT:      -7.2      3.230      6.299
REMARK  Name = 
REMARK  6 active torsions:
REMARK  status: ('A' for Active; 'I' for Inactive)
REMARK    1  A    between atoms: C_1  and  C_2
REMARK    2  A    between atoms: C_2  and  C_3
REMARK    3  A    between atoms: C_3  and  C_4
REMARK    4  A    between atoms: C_4  and  C_5
REMARK    5  A    between atoms: C_6  and  C_7
REMARK    6  A    between atoms: C_10  and  O_11
REMARK                            x       y       z     vdW  Elec       q    Type
REMARK                         _______ _______ _______ _____ _____    ______ ____
ROOT
ATOM      1  C   UNL     1       3.107   4.666  18.558  0.00  0.00    +0.000 A 
ATOM      2  C   UNL     1       4.349   4.098  18.206  0.00  0.00    +0.000 A 
ATOM      3  N   UNL     1       4.593   3.112  19.154  0.00  0.00    +0.000 N 
ATOM      4  C   UNL     1       3.595   3.040  20.075  0.00  0.00    +0.000 A 
ATOM      5  N   UNL     1       3.551   2.196  21.123  0.00  0.00    +0.000 NA
ATOM      6  C   UNL     1       2.422   2.381  21.844  0.00  0.00    +0.000 A 
ATOM      7  C   UNL     1       1.445   3.319  21.524  0.00  0.00    +0.000 A 
ATOM      8  N   UNL     1       1.509   4.157  20.462  0.00  0.00    +0.000 NA
ATOM      9  C   UNL     1       2.647   3.991  19.731  0.00  0.00    +0.000 A 
ATOM     10  H   UNL     1       5.394   2.513  19.202  0.00  0.00    +0.000 HD
ENDROOT
BRANCH   2  11
ATOM     11  C   UNL     1       5.335   4.386  17.140  0.00  0.00    +0.000 A 
ATOM     12  C   UNL     1       5.312   3.726  15.906  0.00  0.00    +0.000 A 
ATOM     13  C   UNL     1       6.155   4.088  14.853  0.00  0.00    +0.000 A 
ATOM     14  C   UNL     1       7.071   5.115  15.036  0.00  0.00    +0.000 A 
ATOM     15  C   UNL     1       7.166   5.749  16.260  0.00  0.00    +0.000 A 
ATOM     16  C   UNL     1       6.317   5.383  17.310  0.00  0.00    +0.000 A 
BRANCH  14  17
ATOM     17  O   UNL     1       7.893   5.515  14.034  0.00  0.00    +0.000 OA
ATOM     18  H   UNL     1       8.194   6.419  14.222  0.00  0.00    +0.000 HD
ENDBRANCH  14  17
ENDBRANCH   2  11
BRANCH   1  19
ATOM     19  C   UNL     1       2.310   5.749  17.886  0.00  0.00    +0.000 C 
BRANCH  19  20
ATOM     20  C   UNL     1       2.547   7.094  18.579  0.00  0.00    +0.000 C 
BRANCH  20  22
ATOM     21  C   UNL     1       1.670   9.361  18.030  0.00  0.00    +0.000 C 
ATOM     22  C   UNL     1       2.673   8.285  17.630  0.00  0.00    +0.000 C 
ENDBRANCH  20  22
ENDBRANCH  19  20
ENDBRANCH   1  19
TORSDOF 5
ENDMDL
MODEL 4
REMARK VINA RESULT:      -7.2      3.054      5.847
REMARK  Name = 
REMARK  6 active torsions:
REMARK  status: ('A' for Active; 'I' for Inactive)
REMARK    1  A    between atoms: C_1  and  C_2
REMARK    2  A    between atoms: C_2  and  C_3
REMARK    3  A    between atoms: C_3  and  C_4
REMARK    4  A    between atoms: C_4  and  C_5
REMARK    5  A    between atoms: C_6  and  C_7
REMARK    6  A    between atoms: C_10  and  O_11
REMARK                            x       y       z     vdW  Elec       q    Type
REMARK                         _______ _______ _______ _____ _____    ______ ____
ROOT
ATOM      1  C   UNL     1       2.371   6.504  19.736  0.00  0.00    +0.000 A 
ATOM      2  C   UNL     1       2.972   6.684  18.473  0.00  0.00    +0.000 A 
ATOM      3  N   UNL     1       2.645   7.977  18.082  0.00  0.00    +0.000 N 
ATOM      4  C   UNL     1       1.873   8.604  19.010  0.00  0.00    +0.000 A 
ATOM      5  N   UNL     1       1.386   9.855  18.913  0.00  0.00    +0.000 NA
ATOM      6  C   UNL     1       0.657  10.175  20.007  0.00  0.00    +0.000 A 
ATOM      7  C   UNL     1       0.457   9.314  21.081  0.00  0.00    +0.000 A 
ATOM      8  N   UNL     1       0.960   8.059  21.159  0.00  0.00    +0.000 NA
ATOM      9  C   UNL     1       1.688   7.717  20.059  0.00  0.00    +0.000 A 
ATOM     10  H   UNL     1       2.910   8.431  17.230  0.00  0.00    +0.000 HD
ENDROOT
BRANCH   2  11
ATOM     11  C   UNL     1       3.762   5.801  17.585  0.00  0.00    +0.000 A 
ATOM     12  C   UNL     1       4.768   6.296  16.747  0.00  0.00    +0.000 A 
ATOM     13  C   UNL     1       5.603   5.454  16.009  0.00  0.00    +0.000 A 
ATOM     14  C   UNL     1       5.417   4.080  16.079  0.00  0.00    +0.000 A 
ATOM     15  C   UNL     1       4.394   3.557  16.847  0.00  0.00    +0.000 A 
ATOM     16  C   UNL     1       3.563   4.405  17.585  0.00  0.00    +0.000 A 
BRANCH  14  17
ATOM     17  O   UNL     1       6.218   3.223  15.397  0.00  0.00    +0.000 OA
ATOM     18  H   UNL     1       7.073   3.166  15.855  0.00  0.00    +0.000 HD
ENDBRANCH  14  17
ENDBRANCH   2  11
BRANCH   1  19
ATOM     19  C   UNL     1       2.406   5.324  20.667  0.00  0.00    +0.000 C 
BRANCH  19  20
ATOM     20  C   UNL     1       1.148   4.468  20.490  0.00  0.00    +0.000 C 
BRANCH  20  22
ATOM     21  C   UNL     1       0.814   2.494  19.005  0.00  0.00    +0.000 C 
ATOM     22  C   UNL     1       1.414   2.973  20.323  0.00  0.00    +0.000 C 
ENDBRANCH  20  22
ENDBRANCH  19  20
ENDBRANCH   1  19
TORSDOF 5
ENDMDL
MODEL 5
REMARK VINA RESULT:      -7.1      3.045      5.760
REMARK  Name = 
REMARK  6 active torsions:
REMARK  status: ('A' for Active; 'I' for Inactive)
REMARK    1  A    between atoms: C_1  and  C_2
REMARK    2  A    between atoms: C_2  and  C_3
REMARK    3  A    between atoms: C_3  and  C_4
REMARK    4  A    between atoms: C_4  and  C_5
REMARK    5  A    between atoms: C_6  and  C_7
REMARK    6  A    between atoms: C_10  and  O_11
REMARK                            x       y       z     vdW  Elec       q    Type
REMARK                         _______ _______ _______ _____ _____    ______ ____
ROOT
ATOM      1  C   UNL     1       2.486   6.498  19.638  0.00  0.00    +0.000 A 
ATOM      2  C   UNL     1       3.120   6.688  18.392  0.00  0.00    +0.000 A 
ATOM      3  N   UNL     1       2.761   7.967  17.981  0.00  0.00    +0.000 N 
ATOM      4  C   UNL     1       1.940   8.574  18.879  0.00  0.00    +0.000 A 
ATOM      5  N   UNL     1       1.414   9.807  18.756  0.00  0.00    +0.000 NA
ATOM      6  C   UNL     1       0.642  10.110  19.825  0.00  0.00    +0.000 A 
ATOM      7  C   UNL     1       0.438   9.251  20.900  0.00  0.00    +0.000 A 
ATOM      8  N   UNL     1       0.980   8.015  21.004  0.00  0.00    +0.000 NA
ATOM      9  C   UNL     1       1.753   7.689  19.930  0.00  0.00    +0.000 A 
ATOM     10  H   UNL     1       3.037   8.423  17.133  0.00  0.00    +0.000 HD
ENDROOT
BRANCH   2  11
ATOM     11  C   UNL     1       3.966   5.827  17.536  0.00  0.00    +0.000 A 
ATOM     12  C   UNL     1       3.859   4.431  17.549  0.00  0.00    +0.000 A 
ATOM     13  C   UNL     1       4.559   3.623  16.650  0.00  0.00    +0.000 A 
ATOM     14  C   UNL     1       5.413   4.213  15.728  0.00  0.00    +0.000 A 
ATOM     15  C   UNL     1       5.591   5.583  15.725  0.00  0.00    +0.000 A 
ATOM     16  C   UNL     1       4.887   6.386  16.627  0.00  0.00    +0.000 A 
BRANCH  14  17
ATOM     17  O   UNL     1       6.095   3.469  14.821  0.00  0.00    +0.000 OA
ATOM     18  H   UNL     1       6.475   2.699  15.274  0.00  0.00    +0.000 HD
ENDBRANCH  14  17
ENDBRANCH   2  11
BRANCH   1  19
ATOM     19  C   UNL     1       2.533   5.327  20.580  0.00  0.00    +0.000 C 
BRANCH  19  20
ATOM     20  C   UNL     1       1.272   4.470  20.427  0.00  0.00    +0.000 C 
BRANCH  20  22
ATOM     21  C   UNL     1       0.909   2.540  18.893  0.00  0.00    +0.000 C 
ATOM     22  C   UNL     1       1.537   2.982  20.210  0.00  0.00    +0.000 C 
ENDBRANCH  20  22
ENDBRANCH  19  20
ENDBRANCH   1  19
TORSDOF 5
ENDMDL
MODEL 6
REMARK VINA RESULT:      -7.0      3.270      6.238
REMARK  Name = 
REMARK  6 active torsions:
REMARK  status: ('A' for Active; 'I' for Inactive)
REMARK    1  A    between atoms: C_1  and  C_2
REMARK    2  A    between atoms: C_2  and  C_3
REMARK    3  A    between atoms: C_3  and  C_4
REMARK    4  A    between atoms: C_4  and  C_5
REMARK    5  A    between atoms: C_6  and  C_7
REMARK    6  A    between atoms: C_10  and  O_11
REMARK                            x       y       z     vdW  Elec       q    Type
REMARK                         _______ _______ _______ _____ _____    ______ ____
ROOT
ATOM      1  C   UNL     1       3.031   4.692  18.551  0.00  0.00    +0.000 A 
ATOM      2  C   UNL     1       4.289   4.216  18.125  0.00  0.00    +0.000 A 
ATOM      3  N   UNL     1       4.633   3.212  19.023  0.00  0.00    +0.000 N 
ATOM      4  C   UNL     1       3.682   3.042  19.980  0.00  0.00    +0.000 A 
ATOM      5  N   UNL     1       3.734   2.158  20.994  0.00  0.00    +0.000 NA
ATOM      6  C   UNL     1       2.627   2.246  21.766  0.00  0.00    +0.000 A 
ATOM      7  C   UNL     1       1.583   3.133  21.524  0.00  0.00    +0.000 A 
ATOM      8  N   UNL     1       1.551   4.012  20.495  0.00  0.00    +0.000 NA
ATOM      9  C   UNL     1       2.664   3.945  19.712  0.00  0.00    +0.000 A 
ATOM     10  H   UNL     1       5.470   2.662  19.015  0.00  0.00    +0.000 HD
ENDROOT
BRANCH   2  11
ATOM     11  C   UNL     1       5.210   4.604  17.033  0.00  0.00    +0.000 A 
ATOM     12  C   UNL     1       6.489   5.114  17.285  0.00  0.00    +0.000 A 
ATOM     13  C   UNL     1       7.408   5.356  16.261  0.00  0.00    +0.000 A 
ATOM     14  C   UNL     1       7.040   5.113  14.944  0.00  0.00    +0.000 A 
ATOM     15  C   UNL     1       5.765   4.668  14.652  0.00  0.00    +0.000 A 
ATOM     16  C   UNL     1       4.850   4.426  15.682  0.00  0.00    +0.000 A 
BRANCH  14  17
ATOM     17  O   UNL     1       7.907   5.312  13.920  0.00  0.00    +0.000 OA
ATOM     18  H   UNL     1       7.464   5.079  13.089  0.00  0.00    +0.000 HD
ENDBRANCH  14  17
ENDBRANCH   2  11
BRANCH   1  19
ATOM     19  C   UNL     1       2.142   5.747  17.954  0.00  0.00    +0.000 C 
BRANCH  19  20
ATOM     20  C   UNL     1       2.411   7.104  18.613  0.00  0.00    +0.000 C 
BRANCH  20  22
ATOM     21  C   UNL     1       1.774   9.388  17.847  0.00  0.00    +0.000 C 
ATOM     22  C   UNL     1       2.743   8.230  17.636  0.00  0.00    +0.000 C 
ENDBRANCH  20  22
ENDBRANCH  19  20
ENDBRANCH   1  19
TORSDOF 5
ENDMDL
MODEL 7
REMARK VINA RESULT:      -6.9      2.157      4.475
REMARK  Name = 
REMARK  6 active torsions:
REMARK  status: ('A' for Active; 'I' for Inactive)
REMARK    1  A    between atoms: C_1  and  C_2
REMARK    2  A    between atoms: C_2  and  C_3
REMARK    3  A    between atoms: C_3  and  C_4
REMARK    4  A    between atoms: C_4  and  C_5
REMARK    5  A    between atoms: C_6  and  C_7
REMARK    6  A    between atoms: C_10  and  O_11
REMARK                            x       y       z     vdW  Elec       q    Type
REMARK                         _______ _______ _______ _____ _____    ______ ____
ROOT
ATOM      1  C   UNL     1       4.349   5.390  17.655  0.00  0.00    +0.000 A 
ATOM      2  C   UNL     1       4.009   4.095  18.096  0.00  0.00    +0.000 A 
ATOM      3  N   UNL     1       4.620   3.221  17.204  0.00  0.00    +0.000 N 
ATOM      4  C   UNL     1       5.304   3.887  16.235  0.00  0.00    +0.000 A 
ATOM      5  N   UNL     1       5.987   3.321  15.223  0.00  0.00    +0.000 NA
ATOM      6  C   UNL     1       6.554   4.265  14.437  0.00  0.00    +0.000 A 
ATOM      7  C   UNL     1       6.440   5.632  14.666  0.00  0.00    +0.000 A 
ATOM      8  N   UNL     1       5.750   6.180  15.693  0.00  0.00    +0.000 NA
ATOM      9  C   UNL     1       5.163   5.243  16.490  0.00  0.00    +0.000 A 
ATOM     10  H   UNL     1       4.581   2.221  17.223  0.00  0.00    +0.000 HD
ENDROOT
BRANCH   2  11
ATOM     11  C   UNL     1       3.164   3.582  19.199  0.00  0.00    +0.000 A 
ATOM     12  C   UNL     1       3.690   2.812  20.243  0.00  0.00    +0.000 A 
ATOM     13  C   UNL     1       2.926   2.440  21.351  0.00  0.00    +0.000 A 
ATOM     14  C   UNL     1       1.591   2.817  21.415  0.00  0.00    +0.000 A 
ATOM     15  C   UNL     1       1.021   3.525  20.375  0.00  0.00    +0.000 A 
ATOM     16  C   UNL     1       1.792   3.896  19.269  0.00  0.00    +0.000 A 
BRANCH  14  17
ATOM     17  O   UNL     1       0.818   2.497  22.483  0.00  0.00    +0.000 OA
ATOM     18  H   UNL     1       0.579   3.315  22.949  0.00  0.00    +0.000 HD
ENDBRANCH  14  17
ENDBRANCH   2  11
BRANCH   1  19
ATOM     19  C   UNL     1       4.011   6.733  18.239  0.00  0.00    +0.000 C 
BRANCH  19  20
ATOM     20  C   UNL     1       2.571   7.121  17.885  0.00  0.00    +0.000 C 
BRANCH  20  22
ATOM     21  C   UNL     1       1.591   9.412  17.859  0.00  0.00    +0.000 C 
ATOM     22  C   UNL     1       1.982   8.235  18.747  0.00  0.00    +0.000 C 
ENDBRANCH  20  22
ENDBRANCH  19  20
ENDBRANCH   1  19
TORSDOF 5
ENDMDL
MODEL 8
REMARK VINA RESULT:      -6.8      2.198      4.509
REMARK  Name = 
REMARK  6 active torsions:
REMARK  status: ('A' for Active; 'I' for Inactive)
REMARK    1  A    between atoms: C_1  and  C_2
REMARK    2  A    between atoms: C_2  and  C_3
REMARK    3  A    between atoms: C_3  and  C_4
REMARK    4  A    between atoms: C_4  and  C_5
REMARK    5  A    between atoms: C_6  and  C_7
REMARK    6  A    between atoms: C_10  and  O_11
REMARK                            x       y       z     vdW  Elec       q    Type
REMARK                         _______ _______ _______ _____ _____    ______ ____
ROOT
ATOM      1  C   UNL     1       4.321   5.555  17.561  0.00  0.00    +0.000 A 
ATOM      2  C   UNL     1       4.003   4.309  18.140  0.00  0.00    +0.000 A 
ATOM      3  N   UNL     1       4.604   3.354  17.329  0.00  0.00    +0.000 N 
ATOM      4  C   UNL     1       5.262   3.922  16.283  0.00  0.00    +0.000 A 
ATOM      5  N   UNL     1       5.929   3.260  15.320  0.00  0.00    +0.000 NA
ATOM      6  C   UNL     1       6.470   4.122  14.429  0.00  0.00    +0.000 A 
ATOM      7  C   UNL     1       6.347   5.505  14.518  0.00  0.00    +0.000 A 
ATOM      8  N   UNL     1       5.673   6.150  15.499  0.00  0.00    +0.000 NA
ATOM      9  C   UNL     1       5.112   5.296  16.400  0.00  0.00    +0.000 A 
ATOM     10  H   UNL     1       4.576   2.360  17.452  0.00  0.00    +0.000 HD
ENDROOT
BRANCH   2  11
ATOM     11  C   UNL     1       3.187   3.906  19.308  0.00  0.00    +0.000 A 
ATOM     12  C   UNL     1       1.856   4.313  19.462  0.00  0.00    +0.000 A 
ATOM     13  C   UNL     1       1.044   3.828  20.490  0.00  0.00    +0.000 A 
ATOM     14  C   UNL     1       1.574   2.935  21.412  0.00  0.00    +0.000 A 
ATOM     15  C   UNL     1       2.901   2.558  21.329  0.00  0.00    +0.000 A 
ATOM     16  C   UNL     1       3.708   3.046  20.296  0.00  0.00    +0.000 A 
BRANCH  14  17
ATOM     17  O   UNL     1       0.816   2.421  22.413  0.00  0.00    +0.000 OA
ATOM     18  H   UNL     1       1.360   2.363  23.215  0.00  0.00    +0.000 HD
ENDBRANCH  14  17
ENDBRANCH   2  11
BRANCH   1  19
ATOM     19  C   UNL     1       3.981   6.949  18.012  0.00  0.00    +0.000 C 
BRANCH  19  20
ATOM     20  C   UNL     1       2.490   7.229  17.796  0.00  0.00    +0.000 C 
BRANCH  20  22
ATOM     21  C   UNL     1       1.839   9.632  17.908  0.00  0.00    +0.000 C 
ATOM     22  C   UNL     1       1.914   8.325  18.690  0.00  0.00    +0.000 C 
ENDBRANCH  20  22
ENDBRANCH  19  20
ENDBRANCH   1  19
TORSDOF 5
ENDMDL
MODEL 9
REMARK VINA RESULT:      -6.8      1.023      1.532
REMARK  Name = 
REMARK  6 active torsions:
REMARK  status: ('A' for Active; 'I' for Inactive)
REMARK    1  A    between atoms: C_1  and  C_2
REMARK    2  A    between atoms: C_2  and  C_3
REMARK    3  A    between atoms: C_3  and  C_4
REMARK    4  A    between atoms: C_4  and  C_5
REMARK    5  A    between atoms: C_6  and  C_7
REMARK    6  A    between atoms: C_10  and  O_11
REMARK                            x       y       z     vdW  Elec       q    Type
REMARK                         _______ _______ _______ _____ _____    ______ ____
ROOT
ATOM      1  C   UNL     1       3.243   5.633  18.149  0.00  0.00    +0.000 A 
ATOM      2  C   UNL     1       3.097   7.028  18.000  0.00  0.00    +0.000 A 
ATOM      3  N   UNL     1       4.049   7.407  17.061  0.00  0.00    +0.000 N 
ATOM      4  C   UNL     1       4.781   6.346  16.628  0.00  0.00    +0.000 A 
ATOM      5  N   UNL     1       5.784   6.394  15.732  0.00  0.00    +0.000 NA
ATOM      6  C   UNL     1       6.302   5.163  15.522  0.00  0.00    +0.000 A 
ATOM      7  C   UNL     1       5.841   4.011  16.152  0.00  0.00    +0.000 A 
ATOM      8  N   UNL     1       4.828   3.986  17.050  0.00  0.00    +0.000 NA
ATOM      9  C   UNL     1       4.301   5.220  17.281  0.00  0.00    +0.000 A 
ATOM     10  H   UNL     1       4.220   8.333  16.722  0.00  0.00    +0.000 HD
ENDROOT
BRANCH   2  11
ATOM     11  C   UNL     1       2.226   8.037  18.645  0.00  0.00    +0.000 A 
ATOM     12  C   UNL     1       1.637   9.081  17.924  0.00  0.00    +0.000 A 
ATOM     13  C   UNL     1       0.711   9.954  18.501  0.00  0.00    +0.000 A 
ATOM     14  C   UNL     1       0.380   9.806  19.841  0.00  0.00    +0.000 A 
ATOM     15  C   UNL     1       0.988   8.825  20.601  0.00  0.00    +0.000 A 
ATOM     16  C   UNL     1       1.912   7.954  20.017  0.00  0.00    +0.000 A 
BRANCH  14  17
ATOM     17  O   UNL     1      -0.531  10.616  20.437  0.00  0.00    +0.000 OA
ATOM     18  H   UNL     1      -0.345  11.534  20.180  0.00  0.00    +0.000 HD
ENDBRANCH  14  17
ENDBRANCH   2  11
BRANCH   1  19
ATOM     19  C   UNL     1       2.469   4.663  18.997  0.00  0.00    +0.000 C 
BRANCH  19  20
ATOM     20  C   UNL     1       1.445   3.909  18.143  0.00  0.00    +0.000 C 
BRANCH  20  22
ATOM     21  C   UNL     1       2.499   1.743  18.780  0.00  0.00    +0.000 C 
ATOM     22  C   UNL     1       1.174   2.474  18.592  0.00  0.00    +0.000 C 
ENDBRANCH  20  22
ENDBRANCH  19  20
ENDBRANCH   1  19
TORSDOF 5
ENDMDL
