MODEL 1
REMARK VINA RESULT:      -7.1      0.000      0.000
REMARK  Name = 
REMARK  4 active torsions:
REMARK  status: ('A' for Active; 'I' for Inactive)
REMARK    1  A    between atoms: C_1  and  O_2
REMARK    2  A    between atoms: O_2  and  C_3
REMARK    3  A    between atoms: C_7  and  N_8
REMARK    4  A    between atoms: N_17  and  C_18
REMARK                            x       y       z     vdW  Elec       q    Type
REMARK                         _______ _______ _______ _____ _____    ______ ____
ROOT
ATOM      1  N   UNL     1       2.088   8.681  17.731  0.00  0.00    +0.000 N 
ATOM      2  C   UNL     1       2.851   7.544  18.006  0.00  0.00    +0.000 A 
ATOM      3  N   UNL     1       4.020   7.419  17.366  0.00  0.00    +0.000 NA
ATOM      4  C   UNL     1       4.730   6.293  17.612  0.00  0.00    +0.000 A 
ATOM      5  C   UNL     1       4.322   5.284  18.457  0.00  0.00    +0.000 A 
ATOM      6  N   UNL     1       5.096   4.123  18.645  0.00  0.00    +0.000 NA
ATOM      7  C   UNL     1       4.598   3.219  19.431  0.00  0.00    +0.000 A 
ATOM      8  C   UNL     1       3.273   3.345  20.146  0.00  0.00    +0.000 A 
ATOM      9  O   UNL     1       2.920   2.407  20.848  0.00  0.00    +0.000 OA
ATOM     10  N   UNL     1       2.581   4.523  19.935  0.00  0.00    +0.000 N 
ATOM     11  C   UNL     1       1.286   4.747  20.548  0.00  0.00    +0.000 C 
ATOM     12  C   UNL     1       3.098   5.513  19.067  0.00  0.00    +0.000 A 
ATOM     13  N   UNL     1       2.373   6.626  18.862  0.00  0.00    +0.000 NA
ATOM     14  H   UNL     1       2.625   9.311  17.150  0.00  0.00    +0.000 HD
ENDROOT
BRANCH   1  19
ATOM     15  C   UNL     1       0.598  10.053  20.865  0.00  0.00    +0.000 A 
ATOM     16  C   UNL     1      -0.599  10.567  20.363  0.00  0.00    +0.000 A 
ATOM     17  C   UNL     1      -0.889  10.483  19.001  0.00  0.00    +0.000 A 
ATOM     18  C   UNL     1       0.017   9.874  18.131  0.00  0.00    +0.000 A 
ATOM     19  C   UNL     1       1.203   9.319  18.619  0.00  0.00    +0.000 A 
ATOM     20  C   UNL     1       1.495   9.446  19.986  0.00  0.00    +0.000 A 
BRANCH  15  22
ATOM     21  C   UNL     1      -0.301   9.767  23.044  0.00  0.00    +0.000 C 
ATOM     22  O   UNL     1       0.776  10.192  22.214  0.00  0.00    +0.000 OA
ENDBRANCH  15  22
ENDBRANCH   1  19
TORSDOF 2
ENDMDL
MODEL 2
REMARK VINA RESULT:      -7.1      2.669      6.704
REMARK  Name = 
REMARK  4 active torsions:
REMARK  status: ('A' for Active; 'I' for Inactive)
REMARK    1  A    between atoms: C_1  and  O_2
REMARK    2  A    between atoms: O_2  and  C_3
REMARK    3  A    between atoms: C_7  and  N_8
REMARK    4  A    between atoms: N_17  and  C_18
REMARK                            x       y       z     vdW  Elec       q    Type
REMARK                         _______ _______ _______ _____ _____    ______ ____
ROOT
ATOM      1  N   UNL     1       3.933   4.013  17.979  0.00  0.00    +0.000 N 
ATOM      2  C   UNL     1       3.257   4.876  18.843  0.00  0.00    +0.000 A 
ATOM      3  N   UNL     1       2.844   4.375  20.014  0.00  0.00    +0.000 NA
ATOM      4  C   UNL     1       2.157   5.212  20.826  0.00  0.00    +0.000 A 
ATOM      5  C   UNL     1       1.852   6.520  20.517  0.00  0.00    +0.000 A 
ATOM      6  N   UNL     1       1.105   7.328  21.395  0.00  0.00    +0.000 NA
ATOM      7  C   UNL     1       0.841   8.531  20.987  0.00  0.00    +0.000 A 
ATOM      8  C   UNL     1       1.290   9.101  19.661  0.00  0.00    +0.000 A 
ATOM      9  O   UNL     1       0.958  10.249  19.401  0.00  0.00    +0.000 OA
ATOM     10  N   UNL     1       2.042   8.259  18.863  0.00  0.00    +0.000 N 
ATOM     11  C   UNL     1       2.508   8.687  17.559  0.00  0.00    +0.000 C 
ATOM     12  C   UNL     1       2.325   6.938  19.282  0.00  0.00    +0.000 A 
ATOM     13  N   UNL     1       3.027   6.141  18.458  0.00  0.00    +0.000 NA
ATOM     14  H   UNL     1       4.109   3.136  18.451  0.00  0.00    +0.000 HD
ENDROOT
BRANCH   1  19
ATOM     15  C   UNL     1       6.847   5.730  16.403  0.00  0.00    +0.000 A 
ATOM     16  C   UNL     1       6.851   5.110  15.152  0.00  0.00    +0.000 A 
ATOM     17  C   UNL     1       5.918   4.117  14.852  0.00  0.00    +0.000 A 
ATOM     18  C   UNL     1       4.965   3.744  15.803  0.00  0.00    +0.000 A 
ATOM     19  C   UNL     1       4.920   4.380  17.046  0.00  0.00    +0.000 A 
ATOM     20  C   UNL     1       5.890   5.350  17.344  0.00  0.00    +0.000 A 
BRANCH  15  22
ATOM     21  C   UNL     1       7.572   7.632  17.625  0.00  0.00    +0.000 C 
ATOM     22  O   UNL     1       7.807   6.687  16.586  0.00  0.00    +0.000 OA
ENDBRANCH  15  22
ENDBRANCH   1  19
TORSDOF 2
ENDMDL
MODEL 3
REMARK VINA RESULT:      -6.9      1.940      6.276
REMARK  Name = 
REMARK  4 active torsions:
REMARK  status: ('A' for Active; 'I' for Inactive)
REMARK    1  A    between atoms: C_1  and  O_2
REMARK    2  A    between atoms: O_2  and  C_3
REMARK    3  A    between atoms: C_7  and  N_8
REMARK    4  A    between atoms: N_17  and  C_18
REMARK                            x       y       z     vdW  Elec       q    Type
REMARK                         _______ _______ _______ _____ _____    ______ ____
ROOT
ATOM      1  N   UNL     1       2.907   7.039  18.296  0.00  0.00    +0.000 N 
ATOM      2  C   UNL     1       2.253   8.253  18.510  0.00  0.00    +0.000 A 
ATOM      3  N   UNL     1       2.437   9.219  17.600  0.00  0.00    +0.000 NA
ATOM      4  C   UNL     1       1.829  10.404  17.840  0.00  0.00    +0.000 A 
ATOM      5  C   UNL     1       1.058  10.673  18.950  0.00  0.00    +0.000 A 
ATOM      6  N   UNL     1       0.478  11.939  19.154  0.00  0.00    +0.000 NA
ATOM      7  C   UNL     1      -0.195  12.095  20.252  0.00  0.00    +0.000 A 
ATOM      8  C   UNL     1      -0.396  11.016  21.291  0.00  0.00    +0.000 A 
ATOM      9  O   UNL     1      -1.044  11.308  22.287  0.00  0.00    +0.000 OA
ATOM     10  N   UNL     1       0.180   9.791  21.011  0.00  0.00    +0.000 N 
ATOM     11  C   UNL     1       0.075   8.688  21.945  0.00  0.00    +0.000 C 
ATOM     12  C   UNL     1       0.933   9.607  19.828  0.00  0.00    +0.000 A 
ATOM     13  N   UNL     1       1.506   8.410  19.614  0.00  0.00    +0.000 NA
ATOM     14  H   UNL     1       3.343   7.049  17.383  0.00  0.00    +0.000 HD
ENDROOT
BRANCH   1  19
ATOM     15  C   UNL     1       2.164   4.077  20.441  0.00  0.00    +0.000 A 
ATOM     16  C   UNL     1       1.582   3.229  19.497  0.00  0.00    +0.000 A 
ATOM     17  C   UNL     1       1.415   3.650  18.177  0.00  0.00    +0.000 A 
ATOM     18  C   UNL     1       1.838   4.923  17.791  0.00  0.00    +0.000 A 
ATOM     19  C   UNL     1       2.458   5.772  18.712  0.00  0.00    +0.000 A 
ATOM     20  C   UNL     1       2.585   5.346  20.044  0.00  0.00    +0.000 A 
BRANCH  15  22
ATOM     21  C   UNL     1       1.487   2.411  21.992  0.00  0.00    +0.000 C 
ATOM     22  O   UNL     1       2.277   3.559  21.703  0.00  0.00    +0.000 OA
ENDBRANCH  15  22
ENDBRANCH   1  19
TORSDOF 2
ENDMDL
MODEL 4
REMARK VINA RESULT:      -6.9      2.875      7.238
REMARK  Name = 
REMARK  4 active torsions:
REMARK  status: ('A' for Active; 'I' for Inactive)
REMARK    1  A    between atoms: C_1  and  O_2
REMARK    2  A    between atoms: O_2  and  C_3
REMARK    3  A    between atoms: C_7  and  N_8
REMARK    4  A    between atoms: N_17  and  C_18
REMARK                            x       y       z     vdW  Elec       q    Type
REMARK                         _______ _______ _______ _____ _____    ______ ____
ROOT
ATOM      1  N   UNL     1       3.956   3.820  18.266  0.00  0.00    +0.000 N 
ATOM      2  C   UNL     1       3.253   4.723  19.065  0.00  0.00    +0.000 A 
ATOM      3  N   UNL     1       2.755   4.264  20.220  0.00  0.00    +0.000 NA
ATOM      4  C   UNL     1       2.042   5.140  20.966  0.00  0.00    +0.000 A 
ATOM      5  C   UNL     1       1.794   6.448  20.606  0.00  0.00    +0.000 A 
ATOM      6  N   UNL     1       1.017   7.299  21.415  0.00  0.00    +0.000 NA
ATOM      7  C   UNL     1       0.814   8.497  20.962  0.00  0.00    +0.000 A 
ATOM      8  C   UNL     1       1.359   9.019  19.653  0.00  0.00    +0.000 A 
ATOM      9  O   UNL     1       1.077  10.168  19.344  0.00  0.00    +0.000 OA
ATOM     10  N   UNL     1       2.135   8.136  18.925  0.00  0.00    +0.000 N 
ATOM     11  C   UNL     1       2.692   8.517  17.642  0.00  0.00    +0.000 C 
ATOM     12  C   UNL     1       2.354   6.819  19.393  0.00  0.00    +0.000 A 
ATOM     13  N   UNL     1       3.083   5.983  18.634  0.00  0.00    +0.000 NA
ATOM     14  H   UNL     1       4.077   2.951  18.771  0.00  0.00    +0.000 HD
ENDROOT
BRANCH   1  19
ATOM     15  C   UNL     1       5.861   4.530  15.138  0.00  0.00    +0.000 A 
ATOM     16  C   UNL     1       7.137   4.733  15.667  0.00  0.00    +0.000 A 
ATOM     17  C   UNL     1       7.350   4.662  17.044  0.00  0.00    +0.000 A 
ATOM     18  C   UNL     1       6.285   4.379  17.902  0.00  0.00    +0.000 A 
ATOM     19  C   UNL     1       5.009   4.135  17.388  0.00  0.00    +0.000 A 
ATOM     20  C   UNL     1       4.805   4.247  16.004  0.00  0.00    +0.000 A 
BRANCH  15  22
ATOM     21  C   UNL     1       6.265   3.517  13.028  0.00  0.00    +0.000 C 
ATOM     22  O   UNL     1       5.770   4.624  13.775  0.00  0.00    +0.000 OA
ENDBRANCH  15  22
ENDBRANCH   1  19
TORSDOF 2
ENDMDL
MODEL 5
REMARK VINA RESULT:      -6.7      1.230      2.084
REMARK  Name = 
REMARK  4 active torsions:
REMARK  status: ('A' for Active; 'I' for Inactive)
REMARK    1  A    between atoms: C_1  and  O_2
REMARK    2  A    between atoms: O_2  and  C_3
REMARK    3  A    between atoms: C_7  and  N_8
REMARK    4  A    between atoms: N_17  and  C_18
REMARK                            x       y       z     vdW  Elec       q    Type
REMARK                         _______ _______ _______ _____ _____    ______ ____
ROOT
ATOM      1  N   UNL     1       2.270   8.461  17.668  0.00  0.00    +0.000 N 
ATOM      2  C   UNL     1       3.002   7.330  18.035  0.00  0.00    +0.000 A 
ATOM      3  N   UNL     1       4.223   7.189  17.504  0.00  0.00    +0.000 NA
ATOM      4  C   UNL     1       4.905   6.068  17.838  0.00  0.00    +0.000 A 
ATOM      5  C   UNL     1       4.420   5.079  18.665  0.00  0.00    +0.000 A 
ATOM      6  N   UNL     1       5.170   3.922  18.947  0.00  0.00    +0.000 NA
ATOM      7  C   UNL     1       4.602   3.036  19.706  0.00  0.00    +0.000 A 
ATOM      8  C   UNL     1       3.218   3.180  20.298  0.00  0.00    +0.000 A 
ATOM      9  O   UNL     1       2.802   2.259  20.987  0.00  0.00    +0.000 OA
ATOM     10  N   UNL     1       2.552   4.354  20.000  0.00  0.00    +0.000 N 
ATOM     11  C   UNL     1       1.209   4.594  20.491  0.00  0.00    +0.000 C 
ATOM     12  C   UNL     1       3.148   5.324  19.159  0.00  0.00    +0.000 A 
ATOM     13  N   UNL     1       2.447   6.433  18.866  0.00  0.00    +0.000 NA
ATOM     14  H   UNL     1       2.859   9.078  17.123  0.00  0.00    +0.000 HD
ENDROOT
BRANCH   1  19
ATOM     15  C   UNL     1      -0.765  10.379  18.685  0.00  0.00    +0.000 A 
ATOM     16  C   UNL     1      -0.558  10.455  20.063  0.00  0.00    +0.000 A 
ATOM     17  C   UNL     1       0.558   9.852  20.645  0.00  0.00    +0.000 A 
ATOM     18  C   UNL     1       1.481   9.174  19.846  0.00  0.00    +0.000 A 
ATOM     19  C   UNL     1       1.312   9.121  18.460  0.00  0.00    +0.000 A 
ATOM     20  C   UNL     1       0.165   9.701  17.897  0.00  0.00    +0.000 A 
BRANCH  15  22
ATOM     21  C   UNL     1      -2.288  10.703  16.892  0.00  0.00    +0.000 C 
ATOM     22  O   UNL     1      -1.891  11.006  18.226  0.00  0.00    +0.000 OA
ENDBRANCH  15  22
ENDBRANCH   1  19
TORSDOF 2
ENDMDL
MODEL 6
REMARK VINA RESULT:      -6.6      3.378      7.434
REMARK  Name = 
REMARK  4 active torsions:
REMARK  status: ('A' for Active; 'I' for Inactive)
REMARK    1  A    between atoms: C_1  and  O_2
REMARK    2  A    between atoms: O_2  and  C_3
REMARK    3  A    between atoms: C_7  and  N_8
REMARK    4  A    between atoms: N_17  and  C_18
REMARK                            x       y       z     vdW  Elec       q    Type
REMARK                         _______ _______ _______ _____ _____    ______ ____
ROOT
ATOM      1  N   UNL     1       4.529   3.276  17.108  0.00  0.00    +0.000 N 
ATOM      2  C   UNL     1       3.851   3.950  18.126  0.00  0.00    +0.000 A 
ATOM      3  N   UNL     1       3.484   3.235  19.198  0.00  0.00    +0.000 NA
ATOM      4  C   UNL     1       2.793   3.892  20.159  0.00  0.00    +0.000 A 
ATOM      5  C   UNL     1       2.443   5.223  20.094  0.00  0.00    +0.000 A 
ATOM      6  N   UNL     1       1.695   5.838  21.116  0.00  0.00    +0.000 NA
ATOM      7  C   UNL     1       1.387   7.084  20.934  0.00  0.00    +0.000 A 
ATOM      8  C   UNL     1       1.784   7.895  19.722  0.00  0.00    +0.000 A 
ATOM      9  O   UNL     1       1.412   9.059  19.677  0.00  0.00    +0.000 OA
ATOM     10  N   UNL     1       2.539   7.233  18.772  0.00  0.00    +0.000 N 
ATOM     11  C   UNL     1       2.958   7.901  17.556  0.00  0.00    +0.000 C 
ATOM     12  C   UNL     1       2.871   5.868  18.944  0.00  0.00    +0.000 A 
ATOM     13  N   UNL     1       3.574   5.255  17.977  0.00  0.00    +0.000 NA
ATOM     14  H   UNL     1       4.743   2.336  17.414  0.00  0.00    +0.000 HD
ENDROOT
BRANCH   1  19
ATOM     15  C   UNL     1       6.428   4.106  14.005  0.00  0.00    +0.000 A 
ATOM     16  C   UNL     1       7.413   4.940  14.535  0.00  0.00    +0.000 A 
ATOM     17  C   UNL     1       7.425   5.244  15.897  0.00  0.00    +0.000 A 
ATOM     18  C   UNL     1       6.452   4.704  16.741  0.00  0.00    +0.000 A 
ATOM     19  C   UNL     1       5.481   3.835  16.236  0.00  0.00    +0.000 A 
ATOM     20  C   UNL     1       5.462   3.571  14.858  0.00  0.00    +0.000 A 
BRANCH  15  22
ATOM     21  C   UNL     1       5.423   3.184  12.061  0.00  0.00    +0.000 C 
ATOM     22  O   UNL     1       6.513   3.878  12.658  0.00  0.00    +0.000 OA
ENDBRANCH  15  22
ENDBRANCH   1  19
TORSDOF 2
ENDMDL
MODEL 7
REMARK VINA RESULT:      -6.6      2.258      6.775
REMARK  Name = 
REMARK  4 active torsions:
REMARK  status: ('A' for Active; 'I' for Inactive)
REMARK    1  A    between atoms: C_1  and  O_2
REMARK    2  A    between atoms: O_2  and  C_3
REMARK    3  A    between atoms: C_7  and  N_8
REMARK    4  A    between atoms: N_17  and  C_18
REMARK                            x       y       z     vdW  Elec       q    Type
REMARK                         _______ _______ _______ _____ _____    ______ ____
ROOT
ATOM      1  N   UNL     1       2.558   7.708  18.561  0.00  0.00    +0.000 N 
ATOM      2  C   UNL     1       1.873   8.871  18.917  0.00  0.00    +0.000 A 
ATOM      3  N   UNL     1       1.872   9.879  18.035  0.00  0.00    +0.000 NA
ATOM      4  C   UNL     1       1.238  11.014  18.409  0.00  0.00    +0.000 A 
ATOM      5  C   UNL     1       0.617  11.194  19.626  0.00  0.00    +0.000 A 
ATOM      6  N   UNL     1       0.001  12.414  19.965  0.00  0.00    +0.000 NA
ATOM      7  C   UNL     1      -0.519  12.487  21.151  0.00  0.00    +0.000 A 
ATOM      8  C   UNL     1      -0.510  11.361  22.159  0.00  0.00    +0.000 A 
ATOM      9  O   UNL     1      -1.028  11.574  23.246  0.00  0.00    +0.000 OA
ATOM     10  N   UNL     1       0.088  10.185  21.747  0.00  0.00    +0.000 N 
ATOM     11  C   UNL     1       0.178   9.043  22.636  0.00  0.00    +0.000 C 
ATOM     12  C   UNL     1       0.677  10.091  20.464  0.00  0.00    +0.000 A 
ATOM     13  N   UNL     1       1.281   8.941  20.120  0.00  0.00    +0.000 NA
ATOM     14  H   UNL     1       2.860   7.780  17.597  0.00  0.00    +0.000 HD
ENDROOT
BRANCH   1  19
ATOM     15  C   UNL     1       1.846   4.046  18.486  0.00  0.00    +0.000 A 
ATOM     16  C   UNL     1       1.583   3.819  19.837  0.00  0.00    +0.000 A 
ATOM     17  C   UNL     1       1.671   4.862  20.760  0.00  0.00    +0.000 A 
ATOM     18  C   UNL     1       2.015   6.146  20.331  0.00  0.00    +0.000 A 
ATOM     19  C   UNL     1       2.244   6.402  18.977  0.00  0.00    +0.000 A 
ATOM     20  C   UNL     1       2.187   5.333  18.069  0.00  0.00    +0.000 A 
BRANCH  15  22
ATOM     21  C   UNL     1       2.720   1.939  17.825  0.00  0.00    +0.000 C 
ATOM     22  O   UNL     1       1.729   2.951  17.673  0.00  0.00    +0.000 OA
ENDBRANCH  15  22
ENDBRANCH   1  19
TORSDOF 2
ENDMDL
MODEL 8
REMARK VINA RESULT:      -6.6      2.068      6.636
REMARK  Name = 
REMARK  4 active torsions:
REMARK  status: ('A' for Active; 'I' for Inactive)
REMARK    1  A    between atoms: C_1  and  O_2
REMARK    2  A    between atoms: O_2  and  C_3
REMARK    3  A    between atoms: C_7  and  N_8
REMARK    4  A    between atoms: N_17  and  C_18
REMARK                            x       y       z     vdW  Elec       q    Type
REMARK                         _______ _______ _______ _____ _____    ______ ____
ROOT
ATOM      1  N   UNL     1       2.838   7.655  17.829  0.00  0.00    +0.000 N 
ATOM      2  C   UNL     1       1.878   8.531  18.338  0.00  0.00    +0.000 A 
ATOM      3  N   UNL     1       1.176   9.254  17.457  0.00  0.00    +0.000 NA
ATOM      4  C   UNL     1       0.276  10.127  17.967  0.00  0.00    +0.000 A 
ATOM      5  C   UNL     1       0.055  10.321  19.313  0.00  0.00    +0.000 A 
ATOM      6  N   UNL     1      -0.876  11.270  19.777  0.00  0.00    +0.000 NA
ATOM      7  C   UNL     1      -0.975  11.397  21.064  0.00  0.00    +0.000 A 
ATOM      8  C   UNL     1      -0.177  10.596  22.067  0.00  0.00    +0.000 A 
ATOM      9  O   UNL     1      -0.365  10.830  23.252  0.00  0.00    +0.000 OA
ATOM     10  N   UNL     1       0.697   9.665  21.538  0.00  0.00    +0.000 N 
ATOM     11  C   UNL     1       1.534   8.855  22.402  0.00  0.00    +0.000 C 
ATOM     12  C   UNL     1       0.834   9.523  20.137  0.00  0.00    +0.000 A 
ATOM     13  N   UNL     1       1.724   8.632  19.668  0.00  0.00    +0.000 NA
ATOM     14  H   UNL     1       2.762   7.625  16.820  0.00  0.00    +0.000 HD
ENDROOT
BRANCH   1  19
ATOM     15  C   UNL     1       4.996   4.840  18.986  0.00  0.00    +0.000 A 
ATOM     16  C   UNL     1       4.034   4.014  19.569  0.00  0.00    +0.000 A 
ATOM     17  C   UNL     1       2.694   4.404  19.601  0.00  0.00    +0.000 A 
ATOM     18  C   UNL     1       2.308   5.623  19.039  0.00  0.00    +0.000 A 
ATOM     19  C   UNL     1       3.251   6.445  18.417  0.00  0.00    +0.000 A 
ATOM     20  C   UNL     1       4.599   6.055  18.427  0.00  0.00    +0.000 A 
BRANCH  15  22
ATOM     21  C   UNL     1       7.143   4.795  17.970  0.00  0.00    +0.000 C 
ATOM     22  O   UNL     1       6.277   4.357  19.012  0.00  0.00    +0.000 OA
ENDBRANCH  15  22
ENDBRANCH   1  19
TORSDOF 2
ENDMDL
MODEL 9
REMARK VINA RESULT:      -6.6      1.830      6.424
REMARK  Name = 
REMARK  4 active torsions:
REMARK  status: ('A' for Active; 'I' for Inactive)
REMARK    1  A    between atoms: C_1  and  O_2
REMARK    2  A    between atoms: O_2  and  C_3
REMARK    3  A    between atoms: C_7  and  N_8
REMARK    4  A    between atoms: N_17  and  C_18
REMARK                            x       y       z     vdW  Elec       q    Type
REMARK                         _______ _______ _______ _____ _____    ______ ____
ROOT
ATOM      1  N   UNL     1       3.221   7.361  17.792  0.00  0.00    +0.000 N 
ATOM      2  C   UNL     1       2.387   8.394  18.223  0.00  0.00    +0.000 A 
ATOM      3  N   UNL     1       2.225   9.438  17.399  0.00  0.00    +0.000 NA
ATOM      4  C   UNL     1       1.446  10.450  17.847  0.00  0.00    +0.000 A 
ATOM      5  C   UNL     1       0.833  10.474  19.081  0.00  0.00    +0.000 A 
ATOM      6  N   UNL     1       0.059  11.574  19.497  0.00  0.00    +0.000 NA
ATOM      7  C   UNL     1      -0.440  11.508  20.693  0.00  0.00    +0.000 A 
ATOM      8  C   UNL     1      -0.251  10.341  21.634  0.00  0.00    +0.000 A 
ATOM      9  O   UNL     1      -0.769  10.420  22.739  0.00  0.00    +0.000 OA
ATOM     10  N   UNL     1       0.498   9.286  21.148  0.00  0.00    +0.000 N 
ATOM     11  C   UNL     1       0.767   8.122  21.969  0.00  0.00    +0.000 C 
ATOM     12  C   UNL     1       1.066   9.346  19.853  0.00  0.00    +0.000 A 
ATOM     13  N   UNL     1       1.818   8.314  19.436  0.00  0.00    +0.000 NA
ATOM     14  H   UNL     1       3.489   7.527  16.830  0.00  0.00    +0.000 HD
ENDROOT
BRANCH   1  19
ATOM     15  C   UNL     1       4.028   3.958  19.093  0.00  0.00    +0.000 A 
ATOM     16  C   UNL     1       2.844   3.288  18.781  0.00  0.00    +0.000 A 
ATOM     17  C   UNL     1       1.786   3.967  18.176  0.00  0.00    +0.000 A 
ATOM     18  C   UNL     1       1.911   5.324  17.869  0.00  0.00    +0.000 A 
ATOM     19  C   UNL     1       3.103   6.002  18.137  0.00  0.00    +0.000 A 
ATOM     20  C   UNL     1       4.143   5.313  18.781  0.00  0.00    +0.000 A 
BRANCH  15  22
ATOM     21  C   UNL     1       4.574   1.953  20.242  0.00  0.00    +0.000 C 
ATOM     22  O   UNL     1       4.997   3.194  19.684  0.00  0.00    +0.000 OA
ENDBRANCH  15  22
ENDBRANCH   1  19
TORSDOF 2
ENDMDL
