MODEL 1
REMARK VINA RESULT:      -7.5      0.000      0.000
REMARK  Name = 
REMARK  9 active torsions:
REMARK  status: ('A' for Active; 'I' for Inactive)
REMARK    1  A    between atoms: C_1  and  C_2
REMARK    2  A    between atoms: C_2  and  C_3
REMARK    3  A    between atoms: C_2  and  C_17
REMARK    4  A    between atoms: C_3  and  C_4
REMARK    5  A    between atoms: C_10  and  C_11
REMARK    6  A    between atoms: C_11  and  C_12
REMARK    7  A    between atoms: C_12  and  C_13
REMARK    8  A    between atoms: C_12  and  C_14
REMARK    9  A    between atoms: C_12  and  C_15
REMARK                            x       y       z     vdW  Elec       q    Type
REMARK                         _______ _______ _______ _____ _____    ______ ____
ROOT
ATOM      1  C   UNL     1       6.465   4.885  15.558  0.00  0.00    +0.000 C 
ATOM      2  O   UNL     1       7.527   4.781  16.164  0.00  0.00    +0.000 OA
ATOM      3  N   UNL     1       5.222   4.522  16.022  0.00  0.00    +0.000 N 
ATOM      4  C   UNL     1       5.042   4.096  17.309  0.00  0.00    +0.000 A 
ATOM      5  N   UNL     1       5.866   4.118  18.329  0.00  0.00    +0.000 NA
ATOM      6  N   UNL     1       5.290   3.593  19.468  0.00  0.00    +0.000 NA
ATOM      7  C   UNL     1       4.062   3.168  19.255  0.00  0.00    +0.000 A 
ATOM      8  S   UNL     1       3.508   3.427  17.641  0.00  0.00    +0.000 S 
ATOM      9  H   UNL     1       4.411   4.542  15.424  0.00  0.00    +0.000 HD
ENDROOT
BRANCH   1  10
ATOM     10  C   UNL     1       6.443   5.452  14.150  0.00  0.00    +0.000 C 
BRANCH  10  12
ATOM     11  C   UNL     1       8.218   5.748  12.340  0.00  0.00    +0.000 C 
ATOM     12  C   UNL     1       7.429   4.751  13.201  0.00  0.00    +0.000 C 
BRANCH  12  13
ATOM     13  C   UNL     1       6.760   3.644  12.400  0.00  0.00    +0.000 A 
ATOM     14  C   UNL     1       5.363   3.625  12.273  0.00  0.00    +0.000 A 
ATOM     15  C   UNL     1       4.724   2.609  11.557  0.00  0.00    +0.000 A 
ATOM     16  C   UNL     1       5.475   1.601  10.954  0.00  0.00    +0.000 A 
ATOM     17  C   UNL     1       6.862   1.616  11.057  0.00  0.00    +0.000 A 
ATOM     18  C   UNL     1       7.500   2.634  11.768  0.00  0.00    +0.000 A 
ENDBRANCH  12  13
ENDBRANCH  10  12
ENDBRANCH   1  10
BRANCH   7  19
ATOM     19  C   UNL     1       3.229   2.462  20.282  0.00  0.00    +0.000 C 
BRANCH  19  20
ATOM     20  C   UNL     1       1.936   3.198  20.721  0.00  0.00    +0.000 C 
ATOM     21  C   UNL     1       0.797   2.981  19.710  0.00  0.00    +0.000 C 
ATOM     22  C   UNL     1       1.492   2.614  22.079  0.00  0.00    +0.000 C 
ATOM     23  C   UNL     1       2.171   4.707  20.905  0.00  0.00    +0.000 C 
ENDBRANCH  19  20
ENDBRANCH   7  19
TORSDOF 5
ENDMDL
MODEL 2
REMARK VINA RESULT:      -7.4      0.083      1.029
REMARK  Name = 
REMARK  9 active torsions:
REMARK  status: ('A' for Active; 'I' for Inactive)
REMARK    1  A    between atoms: C_1  and  C_2
REMARK    2  A    between atoms: C_2  and  C_3
REMARK    3  A    between atoms: C_2  and  C_17
REMARK    4  A    between atoms: C_3  and  C_4
REMARK    5  A    between atoms: C_10  and  C_11
REMARK    6  A    between atoms: C_11  and  C_12
REMARK    7  A    between atoms: C_12  and  C_13
REMARK    8  A    between atoms: C_12  and  C_14
REMARK    9  A    between atoms: C_12  and  C_15
REMARK                            x       y       z     vdW  Elec       q    Type
REMARK                         _______ _______ _______ _____ _____    ______ ____
ROOT
ATOM      1  C   UNL     1       6.446   4.904  15.549  0.00  0.00    +0.000 C 
ATOM      2  O   UNL     1       7.496   4.836  16.180  0.00  0.00    +0.000 OA
ATOM      3  N   UNL     1       5.203   4.510  15.988  0.00  0.00    +0.000 N 
ATOM      4  C   UNL     1       5.005   4.094  17.275  0.00  0.00    +0.000 A 
ATOM      5  N   UNL     1       5.804   4.150  18.314  0.00  0.00    +0.000 NA
ATOM      6  N   UNL     1       5.216   3.620  19.444  0.00  0.00    +0.000 NA
ATOM      7  C   UNL     1       4.006   3.159  19.208  0.00  0.00    +0.000 A 
ATOM      8  S   UNL     1       3.483   3.385  17.579  0.00  0.00    +0.000 S 
ATOM      9  H   UNL     1       4.406   4.502  15.371  0.00  0.00    +0.000 HD
ENDROOT
BRANCH   1  10
ATOM     10  C   UNL     1       6.442   5.455  14.134  0.00  0.00    +0.000 C 
BRANCH  10  12
ATOM     11  C   UNL     1       8.240   5.731  12.344  0.00  0.00    +0.000 C 
ATOM     12  C   UNL     1       7.440   4.744  13.206  0.00  0.00    +0.000 C 
BRANCH  12  13
ATOM     13  C   UNL     1       6.781   3.629  12.408  0.00  0.00    +0.000 A 
ATOM     14  C   UNL     1       7.578   2.690  11.735  0.00  0.00    +0.000 A 
ATOM     15  C   UNL     1       6.996   1.667  10.982  0.00  0.00    +0.000 A 
ATOM     16  C   UNL     1       5.609   1.567  10.894  0.00  0.00    +0.000 A 
ATOM     17  C   UNL     1       4.805   2.480  11.569  0.00  0.00    +0.000 A 
ATOM     18  C   UNL     1       5.386   3.498  12.326  0.00  0.00    +0.000 A 
ENDBRANCH  12  13
ENDBRANCH  10  12
ENDBRANCH   1  10
BRANCH   7  19
ATOM     19  C   UNL     1       3.169   2.441  20.223  0.00  0.00    +0.000 C 
BRANCH  19  20
ATOM     20  C   UNL     1       1.897   3.191  20.698  0.00  0.00    +0.000 C 
ATOM     21  C   UNL     1       0.739   3.019  19.701  0.00  0.00    +0.000 C 
ATOM     22  C   UNL     1       1.462   2.584  22.050  0.00  0.00    +0.000 C 
ATOM     23  C   UNL     1       2.165   4.690  20.913  0.00  0.00    +0.000 C 
ENDBRANCH  19  20
ENDBRANCH   7  19
TORSDOF 5
ENDMDL
MODEL 3
REMARK VINA RESULT:      -7.2      6.969      9.225
REMARK  Name = 
REMARK  9 active torsions:
REMARK  status: ('A' for Active; 'I' for Inactive)
REMARK    1  A    between atoms: C_1  and  C_2
REMARK    2  A    between atoms: C_2  and  C_3
REMARK    3  A    between atoms: C_2  and  C_17
REMARK    4  A    between atoms: C_3  and  C_4
REMARK    5  A    between atoms: C_10  and  C_11
REMARK    6  A    between atoms: C_11  and  C_12
REMARK    7  A    between atoms: C_12  and  C_13
REMARK    8  A    between atoms: C_12  and  C_14
REMARK    9  A    between atoms: C_12  and  C_15
REMARK                            x       y       z     vdW  Elec       q    Type
REMARK                         _______ _______ _______ _____ _____    ______ ____
ROOT
ATOM      1  C   UNL     1       8.669   9.519  18.485  0.00  0.00    +0.000 C 
ATOM      2  O   UNL     1       8.019  10.181  17.682  0.00  0.00    +0.000 OA
ATOM      3  N   UNL     1       8.537   8.171  18.727  0.00  0.00    +0.000 N 
ATOM      4  C   UNL     1       7.704   7.394  17.972  0.00  0.00    +0.000 A 
ATOM      5  N   UNL     1       7.067   7.671  16.859  0.00  0.00    +0.000 NA
ATOM      6  N   UNL     1       6.325   6.597  16.410  0.00  0.00    +0.000 NA
ATOM      7  C   UNL     1       6.409   5.560  17.217  0.00  0.00    +0.000 A 
ATOM      8  S   UNL     1       7.448   5.816  18.570  0.00  0.00    +0.000 S 
ATOM      9  H   UNL     1       9.038   7.721  19.477  0.00  0.00    +0.000 HD
ENDROOT
BRANCH   1  10
ATOM     10  C   UNL     1       9.733  10.185  19.337  0.00  0.00    +0.000 C 
BRANCH  10  12
ATOM     11  C   UNL     1      11.354  11.767  18.159  0.00  0.00    +0.000 C 
ATOM     12  C   UNL     1      10.025  11.635  18.916  0.00  0.00    +0.000 C 
BRANCH  12  13
ATOM     13  C   UNL     1       9.882  12.607  20.078  0.00  0.00    +0.000 A 
ATOM     14  C   UNL     1       9.234  12.195  21.252  0.00  0.00    +0.000 A 
ATOM     15  C   UNL     1       9.076  13.075  22.327  0.00  0.00    +0.000 A 
ATOM     16  C   UNL     1       9.568  14.376  22.243  0.00  0.00    +0.000 A 
ATOM     17  C   UNL     1      10.227  14.793  21.091  0.00  0.00    +0.000 A 
ATOM     18  C   UNL     1      10.390  13.913  20.020  0.00  0.00    +0.000 A 
ENDBRANCH  12  13
ENDBRANCH  10  12
ENDBRANCH   1  10
BRANCH   7  19
ATOM     19  C   UNL     1       5.632   4.291  17.034  0.00  0.00    +0.000 C 
BRANCH  19  20
ATOM     20  C   UNL     1       4.327   4.177  17.865  0.00  0.00    +0.000 C 
ATOM     21  C   UNL     1       4.581   3.488  19.216  0.00  0.00    +0.000 C 
ATOM     22  C   UNL     1       3.811   5.605  18.142  0.00  0.00    +0.000 C 
ATOM     23  C   UNL     1       3.230   3.413  17.103  0.00  0.00    +0.000 C 
ENDBRANCH  19  20
ENDBRANCH   7  19
TORSDOF 5
ENDMDL
MODEL 4
REMARK VINA RESULT:      -7.0      7.029      9.190
REMARK  Name = 
REMARK  9 active torsions:
REMARK  status: ('A' for Active; 'I' for Inactive)
REMARK    1  A    between atoms: C_1  and  C_2
REMARK    2  A    between atoms: C_2  and  C_3
REMARK    3  A    between atoms: C_2  and  C_17
REMARK    4  A    between atoms: C_3  and  C_4
REMARK    5  A    between atoms: C_10  and  C_11
REMARK    6  A    between atoms: C_11  and  C_12
REMARK    7  A    between atoms: C_12  and  C_13
REMARK    8  A    between atoms: C_12  and  C_14
REMARK    9  A    between atoms: C_12  and  C_15
REMARK                            x       y       z     vdW  Elec       q    Type
REMARK                         _______ _______ _______ _____ _____    ______ ____
ROOT
ATOM      1  C   UNL     1       8.764   9.677  18.581  0.00  0.00    +0.000 C 
ATOM      2  O   UNL     1       8.137  10.311  17.738  0.00  0.00    +0.000 OA
ATOM      3  N   UNL     1       8.641   8.333  18.850  0.00  0.00    +0.000 N 
ATOM      4  C   UNL     1       7.848   7.527  18.082  0.00  0.00    +0.000 A 
ATOM      5  N   UNL     1       7.251   7.769  16.940  0.00  0.00    +0.000 NA
ATOM      6  N   UNL     1       6.540   6.675  16.488  0.00  0.00    +0.000 NA
ATOM      7  C   UNL     1       6.606   5.659  17.322  0.00  0.00    +0.000 A 
ATOM      8  S   UNL     1       7.588   5.961  18.708  0.00  0.00    +0.000 S 
ATOM      9  H   UNL     1       9.117   7.908  19.629  0.00  0.00    +0.000 HD
ENDROOT
BRANCH   1  10
ATOM     10  C   UNL     1       9.786  10.378  19.457  0.00  0.00    +0.000 C 
BRANCH  10  12
ATOM     11  C   UNL     1      11.866  11.595  18.617  0.00  0.00    +0.000 C 
ATOM     12  C   UNL     1      10.346  11.662  18.823  0.00  0.00    +0.000 C 
BRANCH  12  13
ATOM     13  C   UNL     1       9.882  12.910  19.559  0.00  0.00    +0.000 A 
ATOM     14  C   UNL     1      10.624  13.393  20.647  0.00  0.00    +0.000 A 
ATOM     15  C   UNL     1      10.208  14.527  21.349  0.00  0.00    +0.000 A 
ATOM     16  C   UNL     1       9.047  15.197  20.969  0.00  0.00    +0.000 A 
ATOM     17  C   UNL     1       8.309  14.740  19.882  0.00  0.00    +0.000 A 
ATOM     18  C   UNL     1       8.728  13.611  19.177  0.00  0.00    +0.000 A 
ENDBRANCH  12  13
ENDBRANCH  10  12
ENDBRANCH   1  10
BRANCH   7  19
ATOM     19  C   UNL     1       5.853   4.375  17.141  0.00  0.00    +0.000 C 
BRANCH  19  20
ATOM     20  C   UNL     1       4.492   4.285  17.879  0.00  0.00    +0.000 C 
ATOM     21  C   UNL     1       3.453   3.513  17.047  0.00  0.00    +0.000 C 
ATOM     22  C   UNL     1       4.715   3.519  19.200  0.00  0.00    +0.000 C 
ATOM     23  C   UNL     1       3.935   5.676  18.223  0.00  0.00    +0.000 C 
ENDBRANCH  19  20
ENDBRANCH   7  19
TORSDOF 5
ENDMDL
MODEL 5
REMARK VINA RESULT:      -7.0      4.997      6.984
REMARK  Name = 
REMARK  9 active torsions:
REMARK  status: ('A' for Active; 'I' for Inactive)
REMARK    1  A    between atoms: C_1  and  C_2
REMARK    2  A    between atoms: C_2  and  C_3
REMARK    3  A    between atoms: C_2  and  C_17
REMARK    4  A    between atoms: C_3  and  C_4
REMARK    5  A    between atoms: C_10  and  C_11
REMARK    6  A    between atoms: C_11  and  C_12
REMARK    7  A    between atoms: C_12  and  C_13
REMARK    8  A    between atoms: C_12  and  C_14
REMARK    9  A    between atoms: C_12  and  C_15
REMARK                            x       y       z     vdW  Elec       q    Type
REMARK                         _______ _______ _______ _____ _____    ______ ____
ROOT
ATOM      1  C   UNL     1       2.535   5.347  19.907  0.00  0.00    +0.000 C 
ATOM      2  O   UNL     1       1.872   5.248  20.935  0.00  0.00    +0.000 OA
ATOM      3  N   UNL     1       2.633   6.458  19.103  0.00  0.00    +0.000 N 
ATOM      4  C   UNL     1       2.060   7.646  19.462  0.00  0.00    +0.000 A 
ATOM      5  N   UNL     1       1.520   8.014  20.600  0.00  0.00    +0.000 NA
ATOM      6  N   UNL     1       1.055   9.313  20.553  0.00  0.00    +0.000 NA
ATOM      7  C   UNL     1       1.236   9.865  19.372  0.00  0.00    +0.000 A 
ATOM      8  S   UNL     1       2.036   8.837  18.241  0.00  0.00    +0.000 S 
ATOM      9  H   UNL     1       3.115   6.426  18.218  0.00  0.00    +0.000 HD
ENDROOT
BRANCH   1  10
ATOM     10  C   UNL     1       3.342   4.164  19.405  0.00  0.00    +0.000 C 
BRANCH  10  12
ATOM     11  C   UNL     1       2.636   2.748  17.401  0.00  0.00    +0.000 C 
ATOM     12  C   UNL     1       3.333   4.033  17.872  0.00  0.00    +0.000 C 
BRANCH  12  13
ATOM     13  C   UNL     1       4.717   4.233  17.274  0.00  0.00    +0.000 A 
ATOM     14  C   UNL     1       5.810   4.482  18.118  0.00  0.00    +0.000 A 
ATOM     15  C   UNL     1       7.088   4.687  17.592  0.00  0.00    +0.000 A 
ATOM     16  C   UNL     1       7.291   4.641  16.214  0.00  0.00    +0.000 A 
ATOM     17  C   UNL     1       6.221   4.378  15.365  0.00  0.00    +0.000 A 
ATOM     18  C   UNL     1       4.945   4.168  15.892  0.00  0.00    +0.000 A 
ENDBRANCH  12  13
ENDBRANCH  10  12
ENDBRANCH   1  10
BRANCH   7  19
ATOM     19  C   UNL     1       0.742  11.230  19.000  0.00  0.00    +0.000 C 
BRANCH  19  20
ATOM     20  C   UNL     1      -0.797  11.377  18.877  0.00  0.00    +0.000 C 
ATOM     21  C   UNL     1      -1.446  11.655  20.243  0.00  0.00    +0.000 C 
ATOM     22  C   UNL     1      -1.090  12.578  17.952  0.00  0.00    +0.000 C 
ATOM     23  C   UNL     1      -1.442  10.128  18.253  0.00  0.00    +0.000 C 
ENDBRANCH  19  20
ENDBRANCH   7  19
TORSDOF 5
ENDMDL
MODEL 6
REMARK VINA RESULT:      -7.0      4.854      6.850
REMARK  Name = 
REMARK  9 active torsions:
REMARK  status: ('A' for Active; 'I' for Inactive)
REMARK    1  A    between atoms: C_1  and  C_2
REMARK    2  A    between atoms: C_2  and  C_3
REMARK    3  A    between atoms: C_2  and  C_17
REMARK    4  A    between atoms: C_3  and  C_4
REMARK    5  A    between atoms: C_10  and  C_11
REMARK    6  A    between atoms: C_11  and  C_12
REMARK    7  A    between atoms: C_12  and  C_13
REMARK    8  A    between atoms: C_12  and  C_14
REMARK    9  A    between atoms: C_12  and  C_15
REMARK                            x       y       z     vdW  Elec       q    Type
REMARK                         _______ _______ _______ _____ _____    ______ ____
ROOT
ATOM      1  C   UNL     1       2.759   5.239  19.975  0.00  0.00    +0.000 C 
ATOM      2  O   UNL     1       2.096   5.185  21.006  0.00  0.00    +0.000 OA
ATOM      3  N   UNL     1       2.823   6.299  19.101  0.00  0.00    +0.000 N 
ATOM      4  C   UNL     1       2.208   7.487  19.381  0.00  0.00    +0.000 A 
ATOM      5  N   UNL     1       1.651   7.909  20.492  0.00  0.00    +0.000 NA
ATOM      6  N   UNL     1       1.142   9.185  20.359  0.00  0.00    +0.000 NA
ATOM      7  C   UNL     1       1.310   9.666  19.145  0.00  0.00    +0.000 A 
ATOM      8  S   UNL     1       2.149   8.595  18.085  0.00  0.00    +0.000 S 
ATOM      9  H   UNL     1       3.310   6.226  18.221  0.00  0.00    +0.000 HD
ENDROOT
BRANCH   1  10
ATOM     10  C   UNL     1       3.609   4.054  19.552  0.00  0.00    +0.000 C 
BRANCH  10  12
ATOM     11  C   UNL     1       3.025   2.355  17.740  0.00  0.00    +0.000 C 
ATOM     12  C   UNL     1       3.539   3.769  18.043  0.00  0.00    +0.000 C 
BRANCH  12  13
ATOM     13  C   UNL     1       4.843   4.112  17.337  0.00  0.00    +0.000 A 
ATOM     14  C   UNL     1       4.883   4.160  15.936  0.00  0.00    +0.000 A 
ATOM     15  C   UNL     1       6.073   4.456  15.265  0.00  0.00    +0.000 A 
ATOM     16  C   UNL     1       7.237   4.711  15.986  0.00  0.00    +0.000 A 
ATOM     17  C   UNL     1       7.209   4.683  17.377  0.00  0.00    +0.000 A 
ATOM     18  C   UNL     1       6.020   4.394  18.047  0.00  0.00    +0.000 A 
ENDBRANCH  12  13
ENDBRANCH  10  12
ENDBRANCH   1  10
BRANCH   7  19
ATOM     19  C   UNL     1       0.770  10.987  18.685  0.00  0.00    +0.000 C 
BRANCH  19  20
ATOM     20  C   UNL     1      -0.756  11.191  18.871  0.00  0.00    +0.000 C 
ATOM     21  C   UNL     1      -1.126  11.336  20.357  0.00  0.00    +0.000 C 
ATOM     22  C   UNL     1      -1.155  12.495  18.147  0.00  0.00    +0.000 C 
ATOM     23  C   UNL     1      -1.566  10.038  18.256  0.00  0.00    +0.000 C 
ENDBRANCH  19  20
ENDBRANCH   7  19
TORSDOF 5
ENDMDL
MODEL 7
REMARK VINA RESULT:      -7.0      6.972      9.116
REMARK  Name = 
REMARK  9 active torsions:
REMARK  status: ('A' for Active; 'I' for Inactive)
REMARK    1  A    between atoms: C_1  and  C_2
REMARK    2  A    between atoms: C_2  and  C_3
REMARK    3  A    between atoms: C_2  and  C_17
REMARK    4  A    between atoms: C_3  and  C_4
REMARK    5  A    between atoms: C_10  and  C_11
REMARK    6  A    between atoms: C_11  and  C_12
REMARK    7  A    between atoms: C_12  and  C_13
REMARK    8  A    between atoms: C_12  and  C_14
REMARK    9  A    between atoms: C_12  and  C_15
REMARK                            x       y       z     vdW  Elec       q    Type
REMARK                         _______ _______ _______ _____ _____    ______ ____
ROOT
ATOM      1  C   UNL     1       8.817   9.746  18.609  0.00  0.00    +0.000 C 
ATOM      2  O   UNL     1       8.247  10.366  17.717  0.00  0.00    +0.000 OA
ATOM      3  N   UNL     1       8.670   8.409  18.896  0.00  0.00    +0.000 N 
ATOM      4  C   UNL     1       7.923   7.590  18.096  0.00  0.00    +0.000 A 
ATOM      5  N   UNL     1       7.400   7.811  16.913  0.00  0.00    +0.000 NA
ATOM      6  N   UNL     1       6.715   6.711  16.439  0.00  0.00    +0.000 NA
ATOM      7  C   UNL     1       6.724   5.711  17.295  0.00  0.00    +0.000 A 
ATOM      8  S   UNL     1       7.618   6.037  18.734  0.00  0.00    +0.000 S 
ATOM      9  H   UNL     1       9.095   7.997  19.712  0.00  0.00    +0.000 HD
ENDROOT
BRANCH   1  10
ATOM     10  C   UNL     1       9.785  10.461  19.535  0.00  0.00    +0.000 C 
BRANCH  10  12
ATOM     11  C   UNL     1      12.047  11.560  19.098  0.00  0.00    +0.000 C 
ATOM     12  C   UNL     1      10.533  11.617  18.850  0.00  0.00    +0.000 C 
BRANCH  12  13
ATOM     13  C   UNL     1       9.910  12.968  19.171  0.00  0.00    +0.000 A 
ATOM     14  C   UNL     1       9.387  13.756  18.135  0.00  0.00    +0.000 A 
ATOM     15  C   UNL     1       8.826  15.008  18.403  0.00  0.00    +0.000 A 
ATOM     16  C   UNL     1       8.776  15.485  19.711  0.00  0.00    +0.000 A 
ATOM     17  C   UNL     1       9.275  14.708  20.751  0.00  0.00    +0.000 A 
ATOM     18  C   UNL     1       9.831  13.456  20.484  0.00  0.00    +0.000 A 
ENDBRANCH  12  13
ENDBRANCH  10  12
ENDBRANCH   1  10
BRANCH   7  19
ATOM     19  C   UNL     1       5.978   4.427  17.092  0.00  0.00    +0.000 C 
BRANCH  19  20
ATOM     20  C   UNL     1       4.613   4.319  17.820  0.00  0.00    +0.000 C 
ATOM     21  C   UNL     1       4.768   3.682  19.211  0.00  0.00    +0.000 C 
ATOM     22  C   UNL     1       4.056   5.747  18.005  0.00  0.00    +0.000 C 
ATOM     23  C   UNL     1       3.591   3.512  17.003  0.00  0.00    +0.000 C 
ENDBRANCH  19  20
ENDBRANCH   7  19
TORSDOF 5
ENDMDL
MODEL 8
REMARK VINA RESULT:      -7.0      5.396      9.534
REMARK  Name = 
REMARK  9 active torsions:
REMARK  status: ('A' for Active; 'I' for Inactive)
REMARK    1  A    between atoms: C_1  and  C_2
REMARK    2  A    between atoms: C_2  and  C_3
REMARK    3  A    between atoms: C_2  and  C_17
REMARK    4  A    between atoms: C_3  and  C_4
REMARK    5  A    between atoms: C_10  and  C_11
REMARK    6  A    between atoms: C_11  and  C_12
REMARK    7  A    between atoms: C_12  and  C_13
REMARK    8  A    between atoms: C_12  and  C_14
REMARK    9  A    between atoms: C_12  and  C_15
REMARK                            x       y       z     vdW  Elec       q    Type
REMARK                         _______ _______ _______ _____ _____    ______ ____
ROOT
ATOM      1  C   UNL     1       1.792   9.380  18.250  0.00  0.00    +0.000 C 
ATOM      2  O   UNL     1       2.327   9.420  17.147  0.00  0.00    +0.000 OA
ATOM      3  N   UNL     1       1.830   8.329  19.138  0.00  0.00    +0.000 N 
ATOM      4  C   UNL     1       2.604   7.228  18.899  0.00  0.00    +0.000 A 
ATOM      5  N   UNL     1       3.524   7.023  17.987  0.00  0.00    +0.000 NA
ATOM      6  N   UNL     1       4.080   5.764  18.091  0.00  0.00    +0.000 NA
ATOM      7  C   UNL     1       3.538   5.058  19.061  0.00  0.00    +0.000 A 
ATOM      8  S   UNL     1       2.329   5.911  19.948  0.00  0.00    +0.000 S 
ATOM      9  H   UNL     1       1.277   8.333  19.981  0.00  0.00    +0.000 HD
ENDROOT
BRANCH   1  10
ATOM     10  C   UNL     1       0.982  10.563  18.748  0.00  0.00    +0.000 C 
BRANCH  10  12
ATOM     11  C   UNL     1      -1.482  10.559  18.082  0.00  0.00    +0.000 C 
ATOM     12  C   UNL     1      -0.451  10.185  19.157  0.00  0.00    +0.000 C 
BRANCH  12  13
ATOM     13  C   UNL     1      -0.802  10.696  20.547  0.00  0.00    +0.000 A 
ATOM     14  C   UNL     1      -0.395   9.972  21.677  0.00  0.00    +0.000 A 
ATOM     15  C   UNL     1      -0.720  10.412  22.963  0.00  0.00    +0.000 A 
ATOM     16  C   UNL     1      -1.451  11.585  23.136  0.00  0.00    +0.000 A 
ATOM     17  C   UNL     1      -1.847  12.323  22.025  0.00  0.00    +0.000 A 
ATOM     18  C   UNL     1      -1.518  11.886  20.741  0.00  0.00    +0.000 A 
ENDBRANCH  12  13
ENDBRANCH  10  12
ENDBRANCH   1  10
BRANCH   7  19
ATOM     19  C   UNL     1       3.873   3.624  19.342  0.00  0.00    +0.000 C 
BRANCH  19  20
ATOM     20  C   UNL     1       2.918   2.575  18.716  0.00  0.00    +0.000 C 
ATOM     21  C   UNL     1       2.355   3.061  17.370  0.00  0.00    +0.000 C 
ATOM     22  C   UNL     1       3.726   1.284  18.461  0.00  0.00    +0.000 C 
ATOM     23  C   UNL     1       1.753   2.229  19.658  0.00  0.00    +0.000 C 
ENDBRANCH  19  20
ENDBRANCH   7  19
TORSDOF 5
ENDMDL
MODEL 9
REMARK VINA RESULT:      -6.9      5.603      7.803
REMARK  Name = 
REMARK  9 active torsions:
REMARK  status: ('A' for Active; 'I' for Inactive)
REMARK    1  A    between atoms: C_1  and  C_2
REMARK    2  A    between atoms: C_2  and  C_3
REMARK    3  A    between atoms: C_2  and  C_17
REMARK    4  A    between atoms: C_3  and  C_4
REMARK    5  A    between atoms: C_10  and  C_11
REMARK    6  A    between atoms: C_11  and  C_12
REMARK    7  A    between atoms: C_12  and  C_13
REMARK    8  A    between atoms: C_12  and  C_14
REMARK    9  A    between atoms: C_12  and  C_15
REMARK                            x       y       z     vdW  Elec       q    Type
REMARK                         _______ _______ _______ _____ _____    ______ ____
ROOT
ATOM      1  C   UNL     1       2.549   5.911  19.726  0.00  0.00    +0.000 C 
ATOM      2  O   UNL     1       1.891   5.759  20.750  0.00  0.00    +0.000 OA
ATOM      3  N   UNL     1       2.559   7.025  18.919  0.00  0.00    +0.000 N 
ATOM      4  C   UNL     1       1.886   8.161  19.273  0.00  0.00    +0.000 A 
ATOM      5  N   UNL     1       1.310   8.485  20.406  0.00  0.00    +0.000 NA
ATOM      6  N   UNL     1       0.737   9.739  20.353  0.00  0.00    +0.000 NA
ATOM      7  C   UNL     1       0.880  10.303  19.172  0.00  0.00    +0.000 A 
ATOM      8  S   UNL     1       1.771   9.344  18.048  0.00  0.00    +0.000 S 
ATOM      9  H   UNL     1       3.048   7.032  18.038  0.00  0.00    +0.000 HD
ENDROOT
BRANCH   1  10
ATOM     10  C   UNL     1       3.457   4.799  19.231  0.00  0.00    +0.000 C 
BRANCH  10  12
ATOM     11  C   UNL     1       4.099   3.921  16.922  0.00  0.00    +0.000 C 
ATOM     12  C   UNL     1       4.124   5.118  17.882  0.00  0.00    +0.000 C 
BRANCH  12  13
ATOM     13  C   UNL     1       5.504   5.733  18.060  0.00  0.00    +0.000 A 
ATOM     14  C   UNL     1       6.353   5.254  19.069  0.00  0.00    +0.000 A 
ATOM     15  C   UNL     1       7.619   5.814  19.263  0.00  0.00    +0.000 A 
ATOM     16  C   UNL     1       8.054   6.857  18.448  0.00  0.00    +0.000 A 
ATOM     17  C   UNL     1       7.229   7.331  17.432  0.00  0.00    +0.000 A 
ATOM     18  C   UNL     1       5.968   6.768  17.235  0.00  0.00    +0.000 A 
ENDBRANCH  12  13
ENDBRANCH  10  12
ENDBRANCH   1  10
BRANCH   7  19
ATOM     19  C   UNL     1       0.275  11.621  18.794  0.00  0.00    +0.000 C 
BRANCH  19  20
ATOM     20  C   UNL     1       1.143  12.871  19.097  0.00  0.00    +0.000 C 
ATOM     21  C   UNL     1       1.653  12.862  20.547  0.00  0.00    +0.000 C 
ATOM     22  C   UNL     1       2.366  12.841  18.156  0.00  0.00    +0.000 C 
ATOM     23  C   UNL     1       0.373  14.177  18.837  0.00  0.00    +0.000 C 
ENDBRANCH  19  20
ENDBRANCH   7  19
TORSDOF 5
ENDMDL
