MODEL 1
REMARK VINA RESULT:      -7.3      0.000      0.000
REMARK  Name = 
REMARK  9 active torsions:
REMARK  status: ('A' for Active; 'I' for Inactive)
REMARK    1  A    between atoms: C_2  and  O_3
REMARK    2  A    between atoms: C_2  and  C_4
REMARK    3  A    between atoms: C_4  and  N_5
REMARK    4  A    between atoms: C_6  and  C_8
REMARK    5  A    between atoms: C_11  and  N_12
REMARK    6  A    between atoms: N_13  and  C_14
REMARK    7  A    between atoms: C_17  and  O_18
REMARK    8  A    between atoms: C_19  and  C_20
REMARK    9  A    between atoms: C_20  and  O_22
REMARK                            x       y       z     vdW  Elec       q    Type
REMARK                         _______ _______ _______ _____ _____    ______ ____
ROOT
ATOM      1  C   UNL     1      -0.427  10.662  21.201  0.00  0.00    +0.000 A 
ATOM      2  C   UNL     1       0.165  10.616  19.936  0.00  0.00    +0.000 A 
ATOM      3  C   UNL     1       0.973   9.525  19.579  0.00  0.00    +0.000 A 
ATOM      4  C   UNL     1       1.215   8.472  20.472  0.00  0.00    +0.000 A 
ATOM      5  C   UNL     1       0.616   8.532  21.739  0.00  0.00    +0.000 A 
ATOM      6  C   UNL     1      -0.188   9.621  22.107  0.00  0.00    +0.000 A 
ENDROOT
BRANCH   1   8
ATOM      7  N   UNL     1      -1.874  11.715  22.867  0.00  0.00    +0.000 N 
ATOM      8  C   UNL     1      -1.271  11.809  21.632  0.00  0.00    +0.000 C 
ATOM      9  O   UNL     1      -1.391  12.798  20.914  0.00  0.00    +0.000 OA
ATOM     10  H   UNL     1      -1.624  10.980  23.521  0.00  0.00    +0.000 HD
BRANCH   7  11
ATOM     11  C   UNL     1      -2.694  12.806  23.360  0.00  0.00    +0.000 C 
BRANCH  11  13
ATOM     12  O   UNL     1      -4.959  12.512  22.523  0.00  0.00    +0.000 OA
ATOM     13  C   UNL     1      -4.166  12.435  23.451  0.00  0.00    +0.000 C 
BRANCH  13  14
ATOM     14  O   UNL     1      -4.524  11.992  24.681  0.00  0.00    +0.000 OA
ATOM     15  H   UNL     1      -4.481  11.021  24.786  0.00  0.00    +0.000 HD
ENDBRANCH  13  14
ENDBRANCH  11  13
ENDBRANCH   7  11
ENDBRANCH   1   8
BRANCH   4  16
ATOM     16  N   UNL     1       2.027   7.399  20.033  0.00  0.00    +0.000 NA
ATOM     17  N   UNL     1       1.636   6.298  20.474  0.00  0.00    +0.000 NA
BRANCH  17  18
ATOM     18  C   UNL     1       2.499   5.233  20.137  0.00  0.00    +0.000 A 
ATOM     19  C   UNL     1       2.036   3.923  20.324  0.00  0.00    +0.000 A 
ATOM     20  C   UNL     1       2.870   2.820  20.110  0.00  0.00    +0.000 A 
ATOM     21  C   UNL     1       4.189   3.021  19.708  0.00  0.00    +0.000 A 
ATOM     22  C   UNL     1       4.683   4.318  19.508  0.00  0.00    +0.000 A 
ATOM     23  C   UNL     1       3.829   5.415  19.725  0.00  0.00    +0.000 A 
BRANCH  21  24
ATOM     24  O   UNL     1       5.005   1.936  19.521  0.00  0.00    +0.000 OA
ATOM     25  H   UNL     1       5.398   1.684  20.379  0.00  0.00    +0.000 HD
ENDBRANCH  21  24
BRANCH  22  26
ATOM     26  C   UNL     1       6.087   4.615  19.099  0.00  0.00    +0.000 C 
ATOM     27  O   UNL     1       6.808   5.371  19.736  0.00  0.00    +0.000 OA
BRANCH  26  28
ATOM     28  O   UNL     1       6.515   3.989  17.982  0.00  0.00    +0.000 OA
ATOM     29  H   UNL     1       5.815   3.435  17.572  0.00  0.00    +0.000 HD
ENDBRANCH  26  28
ENDBRANCH  22  26
ENDBRANCH  17  18
ENDBRANCH   4  16
TORSDOF 9
ENDMDL
MODEL 2
REMARK VINA RESULT:      -7.2      1.961      2.335
REMARK  Name = 
REMARK  9 active torsions:
REMARK  status: ('A' for Active; 'I' for Inactive)
REMARK    1  A    between atoms: C_2  and  O_3
REMARK    2  A    between atoms: C_2  and  C_4
REMARK    3  A    between atoms: C_4  and  N_5
REMARK    4  A    between atoms: C_6  and  C_8
REMARK    5  A    between atoms: C_11  and  N_12
REMARK    6  A    between atoms: N_13  and  C_14
REMARK    7  A    between atoms: C_17  and  O_18
REMARK    8  A    between atoms: C_19  and  C_20
REMARK    9  A    between atoms: C_20  and  O_22
REMARK                            x       y       z     vdW  Elec       q    Type
REMARK                         _______ _______ _______ _____ _____    ______ ____
ROOT
ATOM      1  C   UNL     1       0.142  10.121  21.204  0.00  0.00    +0.000 A 
ATOM      2  C   UNL     1       0.362  10.501  19.877  0.00  0.00    +0.000 A 
ATOM      3  C   UNL     1       1.107   9.673  19.024  0.00  0.00    +0.000 A 
ATOM      4  C   UNL     1       1.655   8.463  19.475  0.00  0.00    +0.000 A 
ATOM      5  C   UNL     1       1.428   8.095  20.810  0.00  0.00    +0.000 A 
ATOM      6  C   UNL     1       0.690   8.920  21.672  0.00  0.00    +0.000 A 
ENDROOT
BRANCH   1   8
ATOM      7  N   UNL     1      -1.488  11.899  21.603  0.00  0.00    +0.000 N 
ATOM      8  C   UNL     1      -0.621  10.979  22.151  0.00  0.00    +0.000 C 
ATOM      9  O   UNL     1      -0.489  10.839  23.362  0.00  0.00    +0.000 OA
ATOM     10  H   UNL     1      -1.720  11.882  20.615  0.00  0.00    +0.000 HD
BRANCH   7  11
ATOM     11  C   UNL     1      -2.280  12.754  22.467  0.00  0.00    +0.000 C 
BRANCH  11  13
ATOM     12  O   UNL     1      -4.602  12.305  23.038  0.00  0.00    +0.000 OA
ATOM     13  C   UNL     1      -3.772  12.633  22.200  0.00  0.00    +0.000 C 
BRANCH  13  14
ATOM     14  O   UNL     1      -4.107  12.937  20.922  0.00  0.00    +0.000 OA
ATOM     15  H   UNL     1      -3.895  12.236  20.274  0.00  0.00    +0.000 HD
ENDBRANCH  13  14
ENDBRANCH  11  13
ENDBRANCH   7  11
ENDBRANCH   1   8
BRANCH   4  16
ATOM     16  N   UNL     1       2.381   7.675  18.551  0.00  0.00    +0.000 NA
ATOM     17  N   UNL     1       2.703   6.565  19.026  0.00  0.00    +0.000 NA
BRANCH  17  18
ATOM     18  C   UNL     1       3.521   5.812  18.157  0.00  0.00    +0.000 A 
ATOM     19  C   UNL     1       3.076   4.542  17.765  0.00  0.00    +0.000 A 
ATOM     20  C   UNL     1       3.879   3.697  16.990  0.00  0.00    +0.000 A 
ATOM     21  C   UNL     1       5.148   4.119  16.602  0.00  0.00    +0.000 A 
ATOM     22  C   UNL     1       5.624   5.385  16.975  0.00  0.00    +0.000 A 
ATOM     23  C   UNL     1       4.801   6.222  17.750  0.00  0.00    +0.000 A 
BRANCH  21  24
ATOM     24  O   UNL     1       5.936   3.277  15.862  0.00  0.00    +0.000 OA
ATOM     25  H   UNL     1       6.610   2.877  16.446  0.00  0.00    +0.000 HD
ENDBRANCH  21  24
BRANCH  22  26
ATOM     26  C   UNL     1       6.978   5.899  16.616  0.00  0.00    +0.000 C 
ATOM     27  O   UNL     1       7.671   6.523  17.407  0.00  0.00    +0.000 OA
BRANCH  26  28
ATOM     28  O   UNL     1       7.394   5.624  15.361  0.00  0.00    +0.000 OA
ATOM     29  H   UNL     1       6.989   6.219  14.693  0.00  0.00    +0.000 HD
ENDBRANCH  26  28
ENDBRANCH  22  26
ENDBRANCH  17  18
ENDBRANCH   4  16
TORSDOF 9
ENDMDL
MODEL 3
REMARK VINA RESULT:      -7.2      3.641     10.509
REMARK  Name = 
REMARK  9 active torsions:
REMARK  status: ('A' for Active; 'I' for Inactive)
REMARK    1  A    between atoms: C_2  and  O_3
REMARK    2  A    between atoms: C_2  and  C_4
REMARK    3  A    between atoms: C_4  and  N_5
REMARK    4  A    between atoms: C_6  and  C_8
REMARK    5  A    between atoms: C_11  and  N_12
REMARK    6  A    between atoms: N_13  and  C_14
REMARK    7  A    between atoms: C_17  and  O_18
REMARK    8  A    between atoms: C_19  and  C_20
REMARK    9  A    between atoms: C_20  and  O_22
REMARK                            x       y       z     vdW  Elec       q    Type
REMARK                         _______ _______ _______ _____ _____    ______ ____
ROOT
ATOM      1  C   UNL     1       5.225   5.255  16.249  0.00  0.00    +0.000 A 
ATOM      2  C   UNL     1       4.987   6.631  16.310  0.00  0.00    +0.000 A 
ATOM      3  C   UNL     1       4.131   7.152  17.291  0.00  0.00    +0.000 A 
ATOM      4  C   UNL     1       3.489   6.319  18.219  0.00  0.00    +0.000 A 
ATOM      5  C   UNL     1       3.735   4.939  18.145  0.00  0.00    +0.000 A 
ATOM      6  C   UNL     1       4.584   4.409  17.163  0.00  0.00    +0.000 A 
ENDROOT
BRANCH   1   8
ATOM      7  N   UNL     1       5.506   4.246  14.040  0.00  0.00    +0.000 N 
ATOM      8  C   UNL     1       6.106   4.656  15.210  0.00  0.00    +0.000 C 
ATOM      9  O   UNL     1       7.315   4.563  15.398  0.00  0.00    +0.000 OA
ATOM     10  H   UNL     1       4.544   4.490  13.827  0.00  0.00    +0.000 HD
BRANCH   7  11
ATOM     11  C   UNL     1       6.308   3.672  12.975  0.00  0.00    +0.000 C 
BRANCH  11  13
ATOM     12  O   UNL     1       4.367   3.232  11.576  0.00  0.00    +0.000 OA
ATOM     13  C   UNL     1       5.473   2.890  11.973  0.00  0.00    +0.000 C 
BRANCH  13  14
ATOM     14  O   UNL     1       6.084   1.759  11.543  0.00  0.00    +0.000 OA
ATOM     15  H   UNL     1       6.279   1.114  12.252  0.00  0.00    +0.000 HD
ENDBRANCH  13  14
ENDBRANCH  11  13
ENDBRANCH   7  11
ENDBRANCH   1   8
BRANCH   4  16
ATOM     16  N   UNL     1       2.653   6.921  19.189  0.00  0.00    +0.000 NA
ATOM     17  N   UNL     1       2.174   8.005  18.794  0.00  0.00    +0.000 NA
BRANCH  17  18
ATOM     18  C   UNL     1       1.428   8.671  19.790  0.00  0.00    +0.000 A 
ATOM     19  C   UNL     1       1.322   8.069  21.051  0.00  0.00    +0.000 A 
ATOM     20  C   UNL     1       0.516   8.618  22.054  0.00  0.00    +0.000 A 
ATOM     21  C   UNL     1      -0.203   9.784  21.799  0.00  0.00    +0.000 A 
ATOM     22  C   UNL     1      -0.118  10.414  20.549  0.00  0.00    +0.000 A 
ATOM     23  C   UNL     1       0.701   9.849  19.554  0.00  0.00    +0.000 A 
BRANCH  21  24
ATOM     24  O   UNL     1      -1.007  10.303  22.779  0.00  0.00    +0.000 OA
ATOM     25  H   UNL     1      -1.901   9.918  22.693  0.00  0.00    +0.000 HD
ENDBRANCH  21  24
BRANCH  22  26
ATOM     26  C   UNL     1      -0.873  11.652  20.193  0.00  0.00    +0.000 C 
ATOM     27  O   UNL     1      -1.894  11.986  20.778  0.00  0.00    +0.000 OA
BRANCH  26  28
ATOM     28  O   UNL     1      -0.351  12.384  19.186  0.00  0.00    +0.000 OA
ATOM     29  H   UNL     1      -0.385  13.349  19.367  0.00  0.00    +0.000 HD
ENDBRANCH  26  28
ENDBRANCH  22  26
ENDBRANCH  17  18
ENDBRANCH   4  16
TORSDOF 9
ENDMDL
MODEL 4
REMARK VINA RESULT:      -7.2      7.661     10.741
REMARK  Name = 
REMARK  9 active torsions:
REMARK  status: ('A' for Active; 'I' for Inactive)
REMARK    1  A    between atoms: C_2  and  O_3
REMARK    2  A    between atoms: C_2  and  C_4
REMARK    3  A    between atoms: C_4  and  N_5
REMARK    4  A    between atoms: C_6  and  C_8
REMARK    5  A    between atoms: C_11  and  N_12
REMARK    6  A    between atoms: N_13  and  C_14
REMARK    7  A    between atoms: C_17  and  O_18
REMARK    8  A    between atoms: C_19  and  C_20
REMARK    9  A    between atoms: C_20  and  O_22
REMARK                            x       y       z     vdW  Elec       q    Type
REMARK                         _______ _______ _______ _____ _____    ______ ____
ROOT
ATOM      1  C   UNL     1       6.217   5.978  17.615  0.00  0.00    +0.000 A 
ATOM      2  C   UNL     1       5.990   7.185  16.949  0.00  0.00    +0.000 A 
ATOM      3  C   UNL     1       6.874   8.261  17.124  0.00  0.00    +0.000 A 
ATOM      4  C   UNL     1       7.988   8.161  17.971  0.00  0.00    +0.000 A 
ATOM      5  C   UNL     1       8.203   6.943  18.635  0.00  0.00    +0.000 A 
ATOM      6  C   UNL     1       7.320   5.865  18.470  0.00  0.00    +0.000 A 
ENDROOT
BRANCH   1   8
ATOM      7  N   UNL     1       4.524   4.497  18.574  0.00  0.00    +0.000 N 
ATOM      8  C   UNL     1       5.293   4.819  17.477  0.00  0.00    +0.000 C 
ATOM      9  O   UNL     1       5.217   4.207  16.417  0.00  0.00    +0.000 OA
ATOM     10  H   UNL     1       4.465   5.116  19.377  0.00  0.00    +0.000 HD
BRANCH   7  11
ATOM     11  C   UNL     1       3.586   3.392  18.504  0.00  0.00    +0.000 C 
BRANCH  11  13
ATOM     12  O   UNL     1       4.823   2.074  20.131  0.00  0.00    +0.000 OA
ATOM     13  C   UNL     1       4.141   2.115  19.116  0.00  0.00    +0.000 C 
BRANCH  13  14
ATOM     14  O   UNL     1       3.796   1.003  18.424  0.00  0.00    +0.000 OA
ATOM     15  H   UNL     1       4.414   0.771  17.703  0.00  0.00    +0.000 HD
ENDBRANCH  13  14
ENDBRANCH  11  13
ENDBRANCH   7  11
ENDBRANCH   1   8
BRANCH   4  16
ATOM     16  N   UNL     1       8.842   9.283  18.084  0.00  0.00    +0.000 NA
ATOM     17  N   UNL     1       8.927   9.696  19.260  0.00  0.00    +0.000 NA
BRANCH  17  18
ATOM     18  C   UNL     1       9.686  10.881  19.372  0.00  0.00    +0.000 A 
ATOM     19  C   UNL     1       9.790  11.483  20.634  0.00  0.00    +0.000 A 
ATOM     20  C   UNL     1      10.438  12.711  20.802  0.00  0.00    +0.000 A 
ATOM     21  C   UNL     1      10.989  13.357  19.698  0.00  0.00    +0.000 A 
ATOM     22  C   UNL     1      10.906  12.781  18.421  0.00  0.00    +0.000 A 
ATOM     23  C   UNL     1      10.254  11.543  18.272  0.00  0.00    +0.000 A 
BRANCH  21  24
ATOM     24  O   UNL     1      11.603  14.570  19.869  0.00  0.00    +0.000 OA
ATOM     25  H   UNL     1      11.035  15.269  19.489  0.00  0.00    +0.000 HD
ENDBRANCH  21  24
BRANCH  22  26
ATOM     26  C   UNL     1      11.453  13.420  17.188  0.00  0.00    +0.000 C 
ATOM     27  O   UNL     1      11.131  14.547  16.838  0.00  0.00    +0.000 OA
BRANCH  26  28
ATOM     28  O   UNL     1      12.333  12.675  16.486  0.00  0.00    +0.000 OA
ATOM     29  H   UNL     1      11.903  11.925  16.021  0.00  0.00    +0.000 HD
ENDBRANCH  26  28
ENDBRANCH  22  26
ENDBRANCH  17  18
ENDBRANCH   4  16
TORSDOF 9
ENDMDL
MODEL 5
REMARK VINA RESULT:      -7.2      3.635     10.586
REMARK  Name = 
REMARK  9 active torsions:
REMARK  status: ('A' for Active; 'I' for Inactive)
REMARK    1  A    between atoms: C_2  and  O_3
REMARK    2  A    between atoms: C_2  and  C_4
REMARK    3  A    between atoms: C_4  and  N_5
REMARK    4  A    between atoms: C_6  and  C_8
REMARK    5  A    between atoms: C_11  and  N_12
REMARK    6  A    between atoms: N_13  and  C_14
REMARK    7  A    between atoms: C_17  and  O_18
REMARK    8  A    between atoms: C_19  and  C_20
REMARK    9  A    between atoms: C_20  and  O_22
REMARK                            x       y       z     vdW  Elec       q    Type
REMARK                         _______ _______ _______ _____ _____    ______ ____
ROOT
ATOM      1  C   UNL     1       4.961   5.094  16.280  0.00  0.00    +0.000 A 
ATOM      2  C   UNL     1       4.055   4.375  17.064  0.00  0.00    +0.000 A 
ATOM      3  C   UNL     1       3.247   5.044  17.995  0.00  0.00    +0.000 A 
ATOM      4  C   UNL     1       3.331   6.433  18.171  0.00  0.00    +0.000 A 
ATOM      5  C   UNL     1       4.246   7.143  17.379  0.00  0.00    +0.000 A 
ATOM      6  C   UNL     1       5.063   6.481  16.450  0.00  0.00    +0.000 A 
ENDROOT
BRANCH   1   8
ATOM      7  N   UNL     1       5.367   4.254  14.020  0.00  0.00    +0.000 N 
ATOM      8  C   UNL     1       5.855   4.424  15.297  0.00  0.00    +0.000 C 
ATOM      9  O   UNL     1       6.983   4.068  15.624  0.00  0.00    +0.000 OA
ATOM     10  H   UNL     1       4.512   4.709  13.717  0.00  0.00    +0.000 HD
BRANCH   7  11
ATOM     11  C   UNL     1       6.193   3.626  13.005  0.00  0.00    +0.000 C 
BRANCH  11  13
ATOM     12  O   UNL     1       4.291   3.254  11.535  0.00  0.00    +0.000 OA
ATOM     13  C   UNL     1       5.373   2.877  11.966  0.00  0.00    +0.000 C 
BRANCH  13  14
ATOM     14  O   UNL     1       5.968   1.735  11.544  0.00  0.00    +0.000 OA
ATOM     15  H   UNL     1       6.141   1.087  12.255  0.00  0.00    +0.000 HD
ENDBRANCH  13  14
ENDBRANCH  11  13
ENDBRANCH   7  11
ENDBRANCH   1   8
BRANCH   4  16
ATOM     16  N   UNL     1       2.471   7.038  19.118  0.00  0.00    +0.000 NA
ATOM     17  N   UNL     1       2.122   8.187  18.774  0.00  0.00    +0.000 NA
BRANCH  17  18
ATOM     18  C   UNL     1       1.355   8.846  19.758  0.00  0.00    +0.000 A 
ATOM     19  C   UNL     1       1.413   8.366  21.074  0.00  0.00    +0.000 A 
ATOM     20  C   UNL     1       0.603   8.902  22.080  0.00  0.00    +0.000 A 
ATOM     21  C   UNL     1      -0.285   9.931  21.774  0.00  0.00    +0.000 A 
ATOM     22  C   UNL     1      -0.367  10.438  20.469  0.00  0.00    +0.000 A 
ATOM     23  C   UNL     1       0.459   9.888  19.471  0.00  0.00    +0.000 A 
BRANCH  21  24
ATOM     24  O   UNL     1      -1.091  10.436  22.761  0.00  0.00    +0.000 OA
ATOM     25  H   UNL     1      -2.025  10.322  22.498  0.00  0.00    +0.000 HD
ENDBRANCH  21  24
BRANCH  22  26
ATOM     26  C   UNL     1      -1.307  11.523  20.060  0.00  0.00    +0.000 C 
ATOM     27  O   UNL     1      -1.920  11.492  19.002  0.00  0.00    +0.000 OA
BRANCH  26  28
ATOM     28  O   UNL     1      -1.442  12.540  20.937  0.00  0.00    +0.000 OA
ATOM     29  H   UNL     1      -2.301  12.514  21.411  0.00  0.00    +0.000 HD
ENDBRANCH  26  28
ENDBRANCH  22  26
ENDBRANCH  17  18
ENDBRANCH   4  16
TORSDOF 9
ENDMDL
MODEL 6
REMARK VINA RESULT:      -7.2      0.839      1.364
REMARK  Name = 
REMARK  9 active torsions:
REMARK  status: ('A' for Active; 'I' for Inactive)
REMARK    1  A    between atoms: C_2  and  O_3
REMARK    2  A    between atoms: C_2  and  C_4
REMARK    3  A    between atoms: C_4  and  N_5
REMARK    4  A    between atoms: C_6  and  C_8
REMARK    5  A    between atoms: C_11  and  N_12
REMARK    6  A    between atoms: N_13  and  C_14
REMARK    7  A    between atoms: C_17  and  O_18
REMARK    8  A    between atoms: C_19  and  C_20
REMARK    9  A    between atoms: C_20  and  O_22
REMARK                            x       y       z     vdW  Elec       q    Type
REMARK                         _______ _______ _______ _____ _____    ______ ____
ROOT
ATOM      1  C   UNL     1      -0.176  10.871  21.961  0.00  0.00    +0.000 A 
ATOM      2  C   UNL     1       0.066   9.710  22.701  0.00  0.00    +0.000 A 
ATOM      3  C   UNL     1       0.717   8.620  22.105  0.00  0.00    +0.000 A 
ATOM      4  C   UNL     1       1.127   8.657  20.764  0.00  0.00    +0.000 A 
ATOM      5  C   UNL     1       0.876   9.828  20.031  0.00  0.00    +0.000 A 
ATOM      6  C   UNL     1       0.220  10.920  20.618  0.00  0.00    +0.000 A 
ENDROOT
BRANCH   1   8
ATOM      7  N   UNL     1      -2.132  11.816  23.082  0.00  0.00    +0.000 N 
ATOM      8  C   UNL     1      -0.884  12.042  22.545  0.00  0.00    +0.000 C 
ATOM      9  O   UNL     1      -0.351  13.147  22.560  0.00  0.00    +0.000 OA
ATOM     10  H   UNL     1      -2.482  10.874  23.224  0.00  0.00    +0.000 HD
BRANCH   7  11
ATOM     11  C   UNL     1      -2.870  12.908  23.687  0.00  0.00    +0.000 C 
BRANCH  11  13
ATOM     12  O   UNL     1      -4.975  12.327  22.614  0.00  0.00    +0.000 OA
ATOM     13  C   UNL     1      -4.376  12.708  23.611  0.00  0.00    +0.000 C 
BRANCH  13  14
ATOM     14  O   UNL     1      -5.007  12.986  24.778  0.00  0.00    +0.000 OA
ATOM     15  H   UNL     1      -4.912  13.912  25.075  0.00  0.00    +0.000 HD
ENDBRANCH  13  14
ENDBRANCH  11  13
ENDBRANCH   7  11
ENDBRANCH   1   8
BRANCH   4  16
ATOM     16  N   UNL     1       1.791   7.524  20.238  0.00  0.00    +0.000 NA
ATOM     17  N   UNL     1       1.510   6.479  20.861  0.00  0.00    +0.000 NA
BRANCH  17  18
ATOM     18  C   UNL     1       2.249   5.361  20.420  0.00  0.00    +0.000 A 
ATOM     19  C   UNL     1       1.990   4.119  21.018  0.00  0.00    +0.000 A 
ATOM     20  C   UNL     1       2.753   2.989  20.706  0.00  0.00    +0.000 A 
ATOM     21  C   UNL     1       3.796   3.093  19.789  0.00  0.00    +0.000 A 
ATOM     22  C   UNL     1       4.081   4.319  19.170  0.00  0.00    +0.000 A 
ATOM     23  C   UNL     1       3.300   5.444  19.493  0.00  0.00    +0.000 A 
BRANCH  21  24
ATOM     24  O   UNL     1       4.552   1.986  19.506  0.00  0.00    +0.000 OA
ATOM     25  H   UNL     1       4.336   1.281  20.148  0.00  0.00    +0.000 HD
ENDBRANCH  21  24
BRANCH  22  26
ATOM     26  C   UNL     1       5.193   4.515  18.194  0.00  0.00    +0.000 C 
ATOM     27  O   UNL     1       5.033   5.093  17.128  0.00  0.00    +0.000 OA
BRANCH  26  28
ATOM     28  O   UNL     1       6.392   4.019  18.568  0.00  0.00    +0.000 OA
ATOM     29  H   UNL     1       7.135   4.414  18.063  0.00  0.00    +0.000 HD
ENDBRANCH  26  28
ENDBRANCH  22  26
ENDBRANCH  17  18
ENDBRANCH   4  16
TORSDOF 9
ENDMDL
MODEL 7
REMARK VINA RESULT:      -7.1      3.590     10.450
REMARK  Name = 
REMARK  9 active torsions:
REMARK  status: ('A' for Active; 'I' for Inactive)
REMARK    1  A    between atoms: C_2  and  O_3
REMARK    2  A    between atoms: C_2  and  C_4
REMARK    3  A    between atoms: C_4  and  N_5
REMARK    4  A    between atoms: C_6  and  C_8
REMARK    5  A    between atoms: C_11  and  N_12
REMARK    6  A    between atoms: N_13  and  C_14
REMARK    7  A    between atoms: C_17  and  O_18
REMARK    8  A    between atoms: C_19  and  C_20
REMARK    9  A    between atoms: C_20  and  O_22
REMARK                            x       y       z     vdW  Elec       q    Type
REMARK                         _______ _______ _______ _____ _____    ______ ____
ROOT
ATOM      1  C   UNL     1       4.851   5.418  16.588  0.00  0.00    +0.000 A 
ATOM      2  C   UNL     1       4.892   6.814  16.622  0.00  0.00    +0.000 A 
ATOM      3  C   UNL     1       3.962   7.525  17.395  0.00  0.00    +0.000 A 
ATOM      4  C   UNL     1       2.970   6.865  18.135  0.00  0.00    +0.000 A 
ATOM      5  C   UNL     1       2.939   5.463  18.091  0.00  0.00    +0.000 A 
ATOM      6  C   UNL     1       3.861   4.744  17.315  0.00  0.00    +0.000 A 
ENDROOT
BRANCH   1   8
ATOM      7  N   UNL     1       5.509   4.489  14.424  0.00  0.00    +0.000 N 
ATOM      8  C   UNL     1       5.801   4.624  15.763  0.00  0.00    +0.000 C 
ATOM      9  O   UNL     1       6.809   4.139  16.269  0.00  0.00    +0.000 OA
ATOM     10  H   UNL     1       4.776   5.039  13.986  0.00  0.00    +0.000 HD
BRANCH   7  11
ATOM     11  C   UNL     1       6.403   3.746  13.556  0.00  0.00    +0.000 C 
BRANCH  11  13
ATOM     12  O   UNL     1       4.613   3.564  11.919  0.00  0.00    +0.000 OA
ATOM     13  C   UNL     1       5.693   3.171  12.340  0.00  0.00    +0.000 C 
BRANCH  13  14
ATOM     14  O   UNL     1       6.385   2.168  11.748  0.00  0.00    +0.000 OA
ATOM     15  H   UNL     1       7.183   1.887  12.238  0.00  0.00    +0.000 HD
ENDBRANCH  13  14
ENDBRANCH  11  13
ENDBRANCH   7  11
ENDBRANCH   1   8
BRANCH   4  16
ATOM     16  N   UNL     1       2.078   7.651  18.904  0.00  0.00    +0.000 NA
ATOM     17  N   UNL     1       1.762   8.711  18.324  0.00  0.00    +0.000 NA
BRANCH  17  18
ATOM     18  C   UNL     1       0.962   9.556  19.123  0.00  0.00    +0.000 A 
ATOM     19  C   UNL     1       0.428  10.711  18.534  0.00  0.00    +0.000 A 
ATOM     20  C   UNL     1      -0.288  11.647  19.289  0.00  0.00    +0.000 A 
ATOM     21  C   UNL     1      -0.471  11.436  20.653  0.00  0.00    +0.000 A 
ATOM     22  C   UNL     1       0.048  10.291  21.274  0.00  0.00    +0.000 A 
ATOM     23  C   UNL     1       0.761   9.358  20.498  0.00  0.00    +0.000 A 
BRANCH  21  24
ATOM     24  O   UNL     1      -1.154  12.369  21.389  0.00  0.00    +0.000 OA
ATOM     25  H   UNL     1      -1.955  12.637  20.897  0.00  0.00    +0.000 HD
ENDBRANCH  21  24
BRANCH  22  26
ATOM     26  C   UNL     1      -0.089  10.005  22.732  0.00  0.00    +0.000 C 
ATOM     27  O   UNL     1      -1.153  10.125  23.325  0.00  0.00    +0.000 OA
BRANCH  26  28
ATOM     28  O   UNL     1       1.037   9.599  23.356  0.00  0.00    +0.000 OA
ATOM     29  H   UNL     1       0.856   9.197  24.233  0.00  0.00    +0.000 HD
ENDBRANCH  26  28
ENDBRANCH  22  26
ENDBRANCH  17  18
ENDBRANCH   4  16
TORSDOF 9
ENDMDL
MODEL 8
REMARK VINA RESULT:      -7.1      7.398     10.547
REMARK  Name = 
REMARK  9 active torsions:
REMARK  status: ('A' for Active; 'I' for Inactive)
REMARK    1  A    between atoms: C_2  and  O_3
REMARK    2  A    between atoms: C_2  and  C_4
REMARK    3  A    between atoms: C_4  and  N_5
REMARK    4  A    between atoms: C_6  and  C_8
REMARK    5  A    between atoms: C_11  and  N_12
REMARK    6  A    between atoms: N_13  and  C_14
REMARK    7  A    between atoms: C_17  and  O_18
REMARK    8  A    between atoms: C_19  and  C_20
REMARK    9  A    between atoms: C_20  and  O_22
REMARK                            x       y       z     vdW  Elec       q    Type
REMARK                         _______ _______ _______ _____ _____    ______ ____
ROOT
ATOM      1  C   UNL     1       6.129   5.364  18.246  0.00  0.00    +0.000 A 
ATOM      2  C   UNL     1       5.577   6.320  17.388  0.00  0.00    +0.000 A 
ATOM      3  C   UNL     1       6.260   7.521  17.144  0.00  0.00    +0.000 A 
ATOM      4  C   UNL     1       7.492   7.799  17.755  0.00  0.00    +0.000 A 
ATOM      5  C   UNL     1       8.033   6.831  18.616  0.00  0.00    +0.000 A 
ATOM      6  C   UNL     1       7.354   5.630  18.870  0.00  0.00    +0.000 A 
ENDROOT
BRANCH   1   8
ATOM      7  N   UNL     1       4.703   3.510  17.533  0.00  0.00    +0.000 N 
ATOM      8  C   UNL     1       5.429   4.087  18.552  0.00  0.00    +0.000 C 
ATOM      9  O   UNL     1       5.528   3.574  19.662  0.00  0.00    +0.000 OA
ATOM     10  H   UNL     1       4.776   3.846  16.578  0.00  0.00    +0.000 HD
BRANCH   7  11
ATOM     11  C   UNL     1       4.013   2.253  17.755  0.00  0.00    +0.000 C 
BRANCH  11  13
ATOM     12  O   UNL     1       1.866   3.291  17.271  0.00  0.00    +0.000 OA
ATOM     13  C   UNL     1       2.505   2.425  17.855  0.00  0.00    +0.000 C 
BRANCH  13  14
ATOM     14  O   UNL     1       1.919   1.505  18.659  0.00  0.00    +0.000 OA
ATOM     15  H   UNL     1       2.466   0.712  18.827  0.00  0.00    +0.000 HD
ENDBRANCH  13  14
ENDBRANCH  11  13
ENDBRANCH   7  11
ENDBRANCH   1   8
BRANCH   4  16
ATOM     16  N   UNL     1       8.127   9.025  17.447  0.00  0.00    +0.000 NA
ATOM     17  N   UNL     1       8.693   9.528  18.441  0.00  0.00    +0.000 NA
BRANCH  17  18
ATOM     18  C   UNL     1       9.236  10.803  18.177  0.00  0.00    +0.000 A 
ATOM     19  C   UNL     1      10.631  10.937  18.160  0.00  0.00    +0.000 A 
ATOM     20  C   UNL     1      11.239  12.188  18.008  0.00  0.00    +0.000 A 
ATOM     21  C   UNL     1      10.449  13.327  17.877  0.00  0.00    +0.000 A 
ATOM     22  C   UNL     1       9.050  13.229  17.888  0.00  0.00    +0.000 A 
ATOM     23  C   UNL     1       8.456  11.963  18.037  0.00  0.00    +0.000 A 
BRANCH  21  24
ATOM     24  O   UNL     1      11.053  14.551  17.751  0.00  0.00    +0.000 OA
ATOM     25  H   UNL     1      10.453  15.239  18.097  0.00  0.00    +0.000 HD
ENDBRANCH  21  24
BRANCH  22  26
ATOM     26  C   UNL     1       8.137  14.404  17.774  0.00  0.00    +0.000 C 
ATOM     27  O   UNL     1       8.553  15.540  17.595  0.00  0.00    +0.000 OA
BRANCH  26  28
ATOM     28  O   UNL     1       6.818  14.131  17.874  0.00  0.00    +0.000 OA
ATOM     29  H   UNL     1       6.404  14.565  18.651  0.00  0.00    +0.000 HD
ENDBRANCH  26  28
ENDBRANCH  22  26
ENDBRANCH  17  18
ENDBRANCH   4  16
TORSDOF 9
ENDMDL
MODEL 9
REMARK VINA RESULT:      -7.1      2.285      2.651
REMARK  Name = 
REMARK  9 active torsions:
REMARK  status: ('A' for Active; 'I' for Inactive)
REMARK    1  A    between atoms: C_2  and  O_3
REMARK    2  A    between atoms: C_2  and  C_4
REMARK    3  A    between atoms: C_4  and  N_5
REMARK    4  A    between atoms: C_6  and  C_8
REMARK    5  A    between atoms: C_11  and  N_12
REMARK    6  A    between atoms: N_13  and  C_14
REMARK    7  A    between atoms: C_17  and  O_18
REMARK    8  A    between atoms: C_19  and  C_20
REMARK    9  A    between atoms: C_20  and  O_22
REMARK                            x       y       z     vdW  Elec       q    Type
REMARK                         _______ _______ _______ _____ _____    ______ ____
ROOT
ATOM      1  C   UNL     1       0.180  10.036  21.257  0.00  0.00    +0.000 A 
ATOM      2  C   UNL     1       0.353  10.411  19.921  0.00  0.00    +0.000 A 
ATOM      3  C   UNL     1       1.104   9.600  19.057  0.00  0.00    +0.000 A 
ATOM      4  C   UNL     1       1.705   8.415  19.504  0.00  0.00    +0.000 A 
ATOM      5  C   UNL     1       1.525   8.052  20.848  0.00  0.00    +0.000 A 
ATOM      6  C   UNL     1       0.781   8.859  21.720  0.00  0.00    +0.000 A 
ENDROOT
BRANCH   1   8
ATOM      7  N   UNL     1      -1.446  11.813  21.680  0.00  0.00    +0.000 N 
ATOM      8  C   UNL     1      -0.588  10.877  22.215  0.00  0.00    +0.000 C 
ATOM      9  O   UNL     1      -0.467  10.710  23.424  0.00  0.00    +0.000 OA
ATOM     10  H   UNL     1      -1.670  11.818  20.690  0.00  0.00    +0.000 HD
BRANCH   7  11
ATOM     11  C   UNL     1      -2.242  12.652  22.555  0.00  0.00    +0.000 C 
BRANCH  11  13
ATOM     12  O   UNL     1      -0.768  14.192  23.728  0.00  0.00    +0.000 OA
ATOM     13  C   UNL     1      -1.583  13.994  22.836  0.00  0.00    +0.000 C 
BRANCH  13  14
ATOM     14  O   UNL     1      -1.981  14.968  21.983  0.00  0.00    +0.000 OA
ATOM     15  H   UNL     1      -1.515  15.820  22.101  0.00  0.00    +0.000 HD
ENDBRANCH  13  14
ENDBRANCH  11  13
ENDBRANCH   7  11
ENDBRANCH   1   8
BRANCH   4  16
ATOM     16  N   UNL     1       2.434   7.643  18.569  0.00  0.00    +0.000 NA
ATOM     17  N   UNL     1       2.720   6.510  19.011  0.00  0.00    +0.000 NA
BRANCH  17  18
ATOM     18  C   UNL     1       3.541   5.769  18.134  0.00  0.00    +0.000 A 
ATOM     19  C   UNL     1       3.097   4.505  17.722  0.00  0.00    +0.000 A 
ATOM     20  C   UNL     1       3.902   3.672  16.938  0.00  0.00    +0.000 A 
ATOM     21  C   UNL     1       5.173   4.098  16.560  0.00  0.00    +0.000 A 
ATOM     22  C   UNL     1       5.648   5.358  16.953  0.00  0.00    +0.000 A 
ATOM     23  C   UNL     1       4.823   6.184  17.738  0.00  0.00    +0.000 A 
BRANCH  21  24
ATOM     24  O   UNL     1       5.963   3.266  15.811  0.00  0.00    +0.000 OA
ATOM     25  H   UNL     1       6.683   3.791  15.407  0.00  0.00    +0.000 HD
ENDBRANCH  21  24
BRANCH  22  26
ATOM     26  C   UNL     1       7.004   5.877  16.606  0.00  0.00    +0.000 C 
ATOM     27  O   UNL     1       7.697   6.483  17.410  0.00  0.00    +0.000 OA
BRANCH  26  28
ATOM     28  O   UNL     1       7.420   5.626  15.346  0.00  0.00    +0.000 OA
ATOM     29  H   UNL     1       8.370   5.380  15.307  0.00  0.00    +0.000 HD
ENDBRANCH  26  28
ENDBRANCH  22  26
ENDBRANCH  17  18
ENDBRANCH   4  16
TORSDOF 9
ENDMDL
