MODEL 1
REMARK VINA RESULT:      -8.5      0.000      0.000
REMARK  Name = 
REMARK  6 active torsions:
REMARK  status: ('A' for Active; 'I' for Inactive)
REMARK    1  A    between atoms: C_1  and  C_2
REMARK    2  A    between atoms: C_4  and  C_5
REMARK    3  A    between atoms: N_7  and  C_8
REMARK    4  A    between atoms: C_12  and  C_13
REMARK    5  A    between atoms: C_20  and  C_21
REMARK    6  A    between atoms: C_21  and  N_22
REMARK                            x       y       z     vdW  Elec       q    Type
REMARK                         _______ _______ _______ _____ _____    ______ ____
ROOT
ATOM      1  C   UNL     1       1.663   3.133  21.449  0.00  0.00    +0.000 C 
ATOM      2  C   UNL     1       2.313   4.103  20.507  0.00  0.00    +0.000 A 
ATOM      3  N   UNL     1       1.872   5.374  20.694  0.00  0.00    +0.000 NA
ATOM      4  C   UNL     1       2.408   6.347  19.933  0.00  0.00    +0.000 A 
ATOM      5  C   UNL     1       3.407   6.111  18.994  0.00  0.00    +0.000 A 
ATOM      6  C   UNL     1       3.888   4.800  18.775  0.00  0.00    +0.000 A 
ATOM      7  C   UNL     1       3.293   3.741  19.550  0.00  0.00    +0.000 A 
ENDROOT
BRANCH   6   8
ATOM      8  C   UNL     1       4.963   4.596  17.733  0.00  0.00    +0.000 A 
ATOM      9  C   UNL     1       4.677   4.225  16.403  0.00  0.00    +0.000 A 
ATOM     10  C   UNL     1       5.659   4.176  15.403  0.00  0.00    +0.000 A 
ATOM     11  C   UNL     1       6.990   4.386  15.725  0.00  0.00    +0.000 A 
ATOM     12  C   UNL     1       7.331   4.651  17.046  0.00  0.00    +0.000 A 
ATOM     13  C   UNL     1       6.333   4.772  18.021  0.00  0.00    +0.000 A 
ATOM     14  F   UNL     1       6.740   5.078  19.262  0.00  0.00    +0.000 F 
ENDBRANCH   6   8
BRANCH   4  15
ATOM     15  C   UNL     1       1.865   7.731  20.140  0.00  0.00    +0.000 C 
ATOM     16  O   UNL     1       1.690   8.502  19.204  0.00  0.00    +0.000 OA
ATOM     17  N   UNL     1       1.583   8.048  21.473  0.00  0.00    +0.000 N 
ATOM     18  H   UNL     1       1.786   7.318  22.152  0.00  0.00    +0.000 HD
BRANCH  17  19
ATOM     19  C   UNL     1       1.104   9.324  21.889  0.00  0.00    +0.000 C 
ATOM     20  C   UNL     1      -0.323   9.758  21.702  0.00  0.00    +0.000 C 
ATOM     21  C   UNL     1       0.178   9.420  23.071  0.00  0.00    +0.000 C 
ENDBRANCH  17  19
ENDBRANCH   4  15
BRANCH   7  22
ATOM     22  C   UNL     1       3.782   2.308  19.377  0.00  0.00    +0.000 C 
BRANCH  22  23
ATOM     23  N   UNL     1       4.994   1.867  20.062  0.00  0.00    +0.000 NA
ATOM     24  H   UNL     1       4.749   1.496  20.977  0.00  0.00    +0.000 HD
ATOM     25  H   UNL     1       5.553   2.697  20.273  0.00  0.00    +0.000 HD
ENDBRANCH  22  23
ENDBRANCH   7  22
TORSDOF 5
ENDMDL
MODEL 2
REMARK VINA RESULT:      -8.2      0.995      1.419
REMARK  Name = 
REMARK  6 active torsions:
REMARK  status: ('A' for Active; 'I' for Inactive)
REMARK    1  A    between atoms: C_1  and  C_2
REMARK    2  A    between atoms: C_4  and  C_5
REMARK    3  A    between atoms: N_7  and  C_8
REMARK    4  A    between atoms: C_12  and  C_13
REMARK    5  A    between atoms: C_20  and  C_21
REMARK    6  A    between atoms: C_21  and  N_22
REMARK                            x       y       z     vdW  Elec       q    Type
REMARK                         _______ _______ _______ _____ _____    ______ ____
ROOT
ATOM      1  C   UNL     1       1.680   3.142  21.508  0.00  0.00    +0.000 C 
ATOM      2  C   UNL     1       2.335   4.131  20.589  0.00  0.00    +0.000 A 
ATOM      3  N   UNL     1       1.869   5.393  20.778  0.00  0.00    +0.000 NA
ATOM      4  C   UNL     1       2.406   6.381  20.037  0.00  0.00    +0.000 A 
ATOM      5  C   UNL     1       3.429   6.170  19.119  0.00  0.00    +0.000 A 
ATOM      6  C   UNL     1       3.935   4.870  18.898  0.00  0.00    +0.000 A 
ATOM      7  C   UNL     1       3.341   3.794  19.651  0.00  0.00    +0.000 A 
ENDROOT
BRANCH   6   8
ATOM      8  C   UNL     1       5.036   4.693  17.878  0.00  0.00    +0.000 A 
ATOM      9  C   UNL     1       6.380   5.030  18.139  0.00  0.00    +0.000 A 
ATOM     10  C   UNL     1       7.421   4.734  17.247  0.00  0.00    +0.000 A 
ATOM     11  C   UNL     1       7.138   4.191  16.004  0.00  0.00    +0.000 A 
ATOM     12  C   UNL     1       5.815   3.940  15.662  0.00  0.00    +0.000 A 
ATOM     13  C   UNL     1       4.792   4.170  16.591  0.00  0.00    +0.000 A 
ATOM     14  F   UNL     1       3.546   3.857  16.201  0.00  0.00    +0.000 F 
ENDBRANCH   6   8
BRANCH   4  15
ATOM     15  C   UNL     1       1.836   7.755  20.246  0.00  0.00    +0.000 C 
ATOM     16  O   UNL     1       1.623   8.514  19.307  0.00  0.00    +0.000 OA
ATOM     17  N   UNL     1       1.575   8.076  21.581  0.00  0.00    +0.000 N 
ATOM     18  H   UNL     1       1.809   7.357  22.262  0.00  0.00    +0.000 HD
BRANCH  17  19
ATOM     19  C   UNL     1       1.077   9.345  21.998  0.00  0.00    +0.000 C 
ATOM     20  C   UNL     1      -0.351   9.766  21.788  0.00  0.00    +0.000 C 
ATOM     21  C   UNL     1       0.128   9.423  23.163  0.00  0.00    +0.000 C 
ENDBRANCH  17  19
ENDBRANCH   4  15
BRANCH   7  22
ATOM     22  C   UNL     1       3.857   2.370  19.475  0.00  0.00    +0.000 C 
BRANCH  22  23
ATOM     23  N   UNL     1       5.070   1.948  20.169  0.00  0.00    +0.000 NA
ATOM     24  H   UNL     1       5.849   1.943  19.514  0.00  0.00    +0.000 HD
ATOM     25  H   UNL     1       4.957   0.966  20.426  0.00  0.00    +0.000 HD
ENDBRANCH  22  23
ENDBRANCH   7  22
TORSDOF 5
ENDMDL
MODEL 3
REMARK VINA RESULT:      -8.2      4.151      7.819
REMARK  Name = 
REMARK  6 active torsions:
REMARK  status: ('A' for Active; 'I' for Inactive)
REMARK    1  A    between atoms: C_1  and  C_2
REMARK    2  A    between atoms: C_4  and  C_5
REMARK    3  A    between atoms: N_7  and  C_8
REMARK    4  A    between atoms: C_12  and  C_13
REMARK    5  A    between atoms: C_20  and  C_21
REMARK    6  A    between atoms: C_21  and  N_22
REMARK                            x       y       z     vdW  Elec       q    Type
REMARK                         _______ _______ _______ _____ _____    ______ ____
ROOT
ATOM      1  C   UNL     1       7.742   6.854  17.412  0.00  0.00    +0.000 C 
ATOM      2  C   UNL     1       6.779   5.867  16.820  0.00  0.00    +0.000 A 
ATOM      3  N   UNL     1       7.098   5.542  15.541  0.00  0.00    +0.000 NA
ATOM      4  C   UNL     1       6.330   4.635  14.909  0.00  0.00    +0.000 A 
ATOM      5  C   UNL     1       5.252   3.999  15.517  0.00  0.00    +0.000 A 
ATOM      6  C   UNL     1       4.893   4.315  16.847  0.00  0.00    +0.000 A 
ATOM      7  C   UNL     1       5.679   5.317  17.522  0.00  0.00    +0.000 A 
ENDROOT
BRANCH   6   8
ATOM      8  C   UNL     1       3.704   3.607  17.454  0.00  0.00    +0.000 A 
ATOM      9  C   UNL     1       3.716   2.235  17.778  0.00  0.00    +0.000 A 
ATOM     10  C   UNL     1       2.667   1.613  18.472  0.00  0.00    +0.000 A 
ATOM     11  C   UNL     1       1.512   2.319  18.766  0.00  0.00    +0.000 A 
ATOM     12  C   UNL     1       1.415   3.647  18.370  0.00  0.00    +0.000 A 
ATOM     13  C   UNL     1       2.498   4.278  17.746  0.00  0.00    +0.000 A 
ATOM     14  F   UNL     1       2.342   5.576  17.440  0.00  0.00    +0.000 F 
ENDBRANCH   6   8
BRANCH   4  15
ATOM     15  C   UNL     1       6.690   4.334  13.483  0.00  0.00    +0.000 C 
ATOM     16  O   UNL     1       7.474   5.035  12.853  0.00  0.00    +0.000 OA
ATOM     17  N   UNL     1       6.062   3.202  12.954  0.00  0.00    +0.000 N 
ATOM     18  H   UNL     1       5.427   2.716  13.582  0.00  0.00    +0.000 HD
BRANCH  17  19
ATOM     19  C   UNL     1       6.232   2.770  11.607  0.00  0.00    +0.000 C 
ATOM     20  C   UNL     1       7.358   1.871  11.176  0.00  0.00    +0.000 C 
ATOM     21  C   UNL     1       5.964   1.333  11.248  0.00  0.00    +0.000 C 
ENDBRANCH  17  19
ENDBRANCH   4  15
BRANCH   7  22
ATOM     22  C   UNL     1       5.357   5.686  18.966  0.00  0.00    +0.000 C 
BRANCH  22  23
ATOM     23  N   UNL     1       6.184   5.165  20.050  0.00  0.00    +0.000 NA
ATOM     24  H   UNL     1       7.042   4.778  19.663  0.00  0.00    +0.000 HD
ATOM     25  H   UNL     1       5.705   4.356  20.447  0.00  0.00    +0.000 HD
ENDBRANCH  22  23
ENDBRANCH   7  22
TORSDOF 5
ENDMDL
MODEL 4
REMARK VINA RESULT:      -7.9      1.371      1.656
REMARK  Name = 
REMARK  6 active torsions:
REMARK  status: ('A' for Active; 'I' for Inactive)
REMARK    1  A    between atoms: C_1  and  C_2
REMARK    2  A    between atoms: C_4  and  C_5
REMARK    3  A    between atoms: N_7  and  C_8
REMARK    4  A    between atoms: C_12  and  C_13
REMARK    5  A    between atoms: C_20  and  C_21
REMARK    6  A    between atoms: C_21  and  N_22
REMARK                            x       y       z     vdW  Elec       q    Type
REMARK                         _______ _______ _______ _____ _____    ______ ____
ROOT
ATOM      1  C   UNL     1       1.890   2.802  21.580  0.00  0.00    +0.000 C 
ATOM      2  C   UNL     1       2.444   3.820  20.627  0.00  0.00    +0.000 A 
ATOM      3  N   UNL     1       1.917   5.055  20.831  0.00  0.00    +0.000 NA
ATOM      4  C   UNL     1       2.361   6.067  20.062  0.00  0.00    +0.000 A 
ATOM      5  C   UNL     1       3.351   5.907  19.098  0.00  0.00    +0.000 A 
ATOM      6  C   UNL     1       3.920   4.636  18.860  0.00  0.00    +0.000 A 
ATOM      7  C   UNL     1       3.423   3.534  19.645  0.00  0.00    +0.000 A 
ENDROOT
BRANCH   6   8
ATOM      8  C   UNL     1       4.980   4.514  17.790  0.00  0.00    +0.000 A 
ATOM      9  C   UNL     1       4.685   4.152  16.460  0.00  0.00    +0.000 A 
ATOM     10  C   UNL     1       5.645   4.179  15.438  0.00  0.00    +0.000 A 
ATOM     11  C   UNL     1       6.969   4.460  15.735  0.00  0.00    +0.000 A 
ATOM     12  C   UNL     1       7.324   4.719  17.052  0.00  0.00    +0.000 A 
ATOM     13  C   UNL     1       6.344   4.763  18.051  0.00  0.00    +0.000 A 
ATOM     14  F   UNL     1       6.762   5.068  19.290  0.00  0.00    +0.000 F 
ENDBRANCH   6   8
BRANCH   4  15
ATOM     15  C   UNL     1       1.724   7.407  20.290  0.00  0.00    +0.000 C 
ATOM     16  O   UNL     1       1.134   7.672  21.331  0.00  0.00    +0.000 OA
ATOM     17  N   UNL     1       1.866   8.303  19.226  0.00  0.00    +0.000 N 
ATOM     18  H   UNL     1       2.370   7.950  18.417  0.00  0.00    +0.000 HD
BRANCH  17  19
ATOM     19  C   UNL     1       1.296   9.610  19.222  0.00  0.00    +0.000 C 
ATOM     20  C   UNL     1       1.629  10.638  18.176  0.00  0.00    +0.000 C 
ATOM     21  C   UNL     1       0.286   9.976  18.168  0.00  0.00    +0.000 C 
ENDBRANCH  17  19
ENDBRANCH   4  15
BRANCH   7  22
ATOM     22  C   UNL     1       4.011   2.140  19.452  0.00  0.00    +0.000 C 
BRANCH  22  23
ATOM     23  N   UNL     1       5.154   1.718  20.256  0.00  0.00    +0.000 NA
ATOM     24  H   UNL     1       5.891   1.379  19.641  0.00  0.00    +0.000 HD
ATOM     25  H   UNL     1       4.875   0.892  20.787  0.00  0.00    +0.000 HD
ENDBRANCH  22  23
ENDBRANCH   7  22
TORSDOF 5
ENDMDL
MODEL 5
REMARK VINA RESULT:      -7.9      3.860      7.397
REMARK  Name = 
REMARK  6 active torsions:
REMARK  status: ('A' for Active; 'I' for Inactive)
REMARK    1  A    between atoms: C_1  and  C_2
REMARK    2  A    between atoms: C_4  and  C_5
REMARK    3  A    between atoms: N_7  and  C_8
REMARK    4  A    between atoms: C_12  and  C_13
REMARK    5  A    between atoms: C_20  and  C_21
REMARK    6  A    between atoms: C_21  and  N_22
REMARK                            x       y       z     vdW  Elec       q    Type
REMARK                         _______ _______ _______ _____ _____    ______ ____
ROOT
ATOM      1  C   UNL     1       7.850   6.228  18.384  0.00  0.00    +0.000 C 
ATOM      2  C   UNL     1       6.773   5.495  17.639  0.00  0.00    +0.000 A 
ATOM      3  N   UNL     1       7.090   5.305  16.333  0.00  0.00    +0.000 NA
ATOM      4  C   UNL     1       6.219   4.625  15.564  0.00  0.00    +0.000 A 
ATOM      5  C   UNL     1       5.034   4.087  16.054  0.00  0.00    +0.000 A 
ATOM      6  C   UNL     1       4.674   4.267  17.409  0.00  0.00    +0.000 A 
ATOM      7  C   UNL     1       5.574   5.031  18.235  0.00  0.00    +0.000 A 
ENDROOT
BRANCH   6   8
ATOM      8  C   UNL     1       3.368   3.675  17.887  0.00  0.00    +0.000 A 
ATOM      9  C   UNL     1       2.117   4.268  17.618  0.00  0.00    +0.000 A 
ATOM     10  C   UNL     1       0.901   3.647  17.937  0.00  0.00    +0.000 A 
ATOM     11  C   UNL     1       0.894   2.455  18.645  0.00  0.00    +0.000 A 
ATOM     12  C   UNL     1       2.104   1.889  19.024  0.00  0.00    +0.000 A 
ATOM     13  C   UNL     1       3.313   2.480  18.634  0.00  0.00    +0.000 A 
ATOM     14  F   UNL     1       4.437   1.844  18.998  0.00  0.00    +0.000 F 
ENDBRANCH   6   8
BRANCH   4  15
ATOM     15  C   UNL     1       6.587   4.472  14.116  0.00  0.00    +0.000 C 
ATOM     16  O   UNL     1       7.426   5.190  13.584  0.00  0.00    +0.000 OA
ATOM     17  N   UNL     1       5.897   3.455  13.448  0.00  0.00    +0.000 N 
ATOM     18  H   UNL     1       5.220   2.942  14.006  0.00  0.00    +0.000 HD
BRANCH  17  19
ATOM     19  C   UNL     1       6.065   3.176  12.060  0.00  0.00    +0.000 C 
ATOM     20  C   UNL     1       5.872   1.804  11.478  0.00  0.00    +0.000 C 
ATOM     21  C   UNL     1       4.859   2.873  11.213  0.00  0.00    +0.000 C 
ENDBRANCH  17  19
ENDBRANCH   4  15
BRANCH   7  22
ATOM     22  C   UNL     1       5.254   5.242  19.711  0.00  0.00    +0.000 C 
BRANCH  22  23
ATOM     23  N   UNL     1       3.994   5.868  20.097  0.00  0.00    +0.000 NA
ATOM     24  H   UNL     1       3.508   5.268  20.759  0.00  0.00    +0.000 HD
ATOM     25  H   UNL     1       3.385   5.877  19.277  0.00  0.00    +0.000 HD
ENDBRANCH  22  23
ENDBRANCH   7  22
TORSDOF 5
ENDMDL
MODEL 6
REMARK VINA RESULT:      -7.7      1.674      2.146
REMARK  Name = 
REMARK  6 active torsions:
REMARK  status: ('A' for Active; 'I' for Inactive)
REMARK    1  A    between atoms: C_1  and  C_2
REMARK    2  A    between atoms: C_4  and  C_5
REMARK    3  A    between atoms: N_7  and  C_8
REMARK    4  A    between atoms: C_12  and  C_13
REMARK    5  A    between atoms: C_20  and  C_21
REMARK    6  A    between atoms: C_21  and  N_22
REMARK                            x       y       z     vdW  Elec       q    Type
REMARK                         _______ _______ _______ _____ _____    ______ ____
ROOT
ATOM      1  C   UNL     1       1.709   2.804  21.518  0.00  0.00    +0.000 C 
ATOM      2  C   UNL     1       2.332   3.856  20.647  0.00  0.00    +0.000 A 
ATOM      3  N   UNL     1       1.800   5.086  20.866  0.00  0.00    +0.000 NA
ATOM      4  C   UNL     1       2.301   6.124  20.171  0.00  0.00    +0.000 A 
ATOM      5  C   UNL     1       3.352   5.995  19.270  0.00  0.00    +0.000 A 
ATOM      6  C   UNL     1       3.929   4.730  19.018  0.00  0.00    +0.000 A 
ATOM      7  C   UNL     1       3.374   3.601  19.722  0.00  0.00    +0.000 A 
ENDROOT
BRANCH   6   8
ATOM      8  C   UNL     1       5.058   4.643  18.018  0.00  0.00    +0.000 A 
ATOM      9  C   UNL     1       6.381   5.023  18.324  0.00  0.00    +0.000 A 
ATOM     10  C   UNL     1       7.452   4.808  17.445  0.00  0.00    +0.000 A 
ATOM     11  C   UNL     1       7.219   4.308  16.174  0.00  0.00    +0.000 A 
ATOM     12  C   UNL     1       5.916   4.019  15.791  0.00  0.00    +0.000 A 
ATOM     13  C   UNL     1       4.864   4.167  16.704  0.00  0.00    +0.000 A 
ATOM     14  F   UNL     1       3.641   3.819  16.272  0.00  0.00    +0.000 F 
ENDBRANCH   6   8
BRANCH   4  15
ATOM     15  C   UNL     1       1.658   7.459  20.411  0.00  0.00    +0.000 C 
ATOM     16  O   UNL     1       1.110   7.730  21.473  0.00  0.00    +0.000 OA
ATOM     17  N   UNL     1       1.744   8.345  19.332  0.00  0.00    +0.000 N 
ATOM     18  H   UNL     1       2.217   7.988  18.505  0.00  0.00    +0.000 HD
BRANCH  17  19
ATOM     19  C   UNL     1       1.159   9.644  19.337  0.00  0.00    +0.000 C 
ATOM     20  C   UNL     1       1.520  10.703  18.332  0.00  0.00    +0.000 C 
ATOM     21  C   UNL     1       0.188  10.026  18.253  0.00  0.00    +0.000 C 
ENDBRANCH  17  19
ENDBRANCH   4  15
BRANCH   7  22
ATOM     22  C   UNL     1       3.965   2.211  19.512  0.00  0.00    +0.000 C 
BRANCH  22  23
ATOM     23  N   UNL     1       5.127   1.792  20.290  0.00  0.00    +0.000 NA
ATOM     24  H   UNL     1       5.920   2.387  20.059  0.00  0.00    +0.000 HD
ATOM     25  H   UNL     1       5.407   0.867  19.960  0.00  0.00    +0.000 HD
ENDBRANCH  22  23
ENDBRANCH   7  22
TORSDOF 5
ENDMDL
MODEL 7
REMARK VINA RESULT:      -7.6      1.481      1.663
REMARK  Name = 
REMARK  6 active torsions:
REMARK  status: ('A' for Active; 'I' for Inactive)
REMARK    1  A    between atoms: C_1  and  C_2
REMARK    2  A    between atoms: C_4  and  C_5
REMARK    3  A    between atoms: N_7  and  C_8
REMARK    4  A    between atoms: C_12  and  C_13
REMARK    5  A    between atoms: C_20  and  C_21
REMARK    6  A    between atoms: C_21  and  N_22
REMARK                            x       y       z     vdW  Elec       q    Type
REMARK                         _______ _______ _______ _____ _____    ______ ____
ROOT
ATOM      1  C   UNL     1       1.991   4.460  20.746  0.00  0.00    +0.000 C 
ATOM      2  C   UNL     1       2.564   5.224  19.589  0.00  0.00    +0.000 A 
ATOM      3  N   UNL     1       2.085   6.493  19.524  0.00  0.00    +0.000 NA
ATOM      4  C   UNL     1       2.552   7.295  18.549  0.00  0.00    +0.000 A 
ATOM      5  C   UNL     1       3.518   6.892  17.633  0.00  0.00    +0.000 A 
ATOM      6  C   UNL     1       4.037   5.578  17.673  0.00  0.00    +0.000 A 
ATOM      7  C   UNL     1       3.515   4.693  18.683  0.00  0.00    +0.000 A 
ENDROOT
BRANCH   6   8
ATOM      8  C   UNL     1       5.074   5.186  16.645  0.00  0.00    +0.000 A 
ATOM      9  C   UNL     1       4.746   4.522  15.446  0.00  0.00    +0.000 A 
ATOM     10  C   UNL     1       5.685   4.287  14.430  0.00  0.00    +0.000 A 
ATOM     11  C   UNL     1       7.019   4.608  14.629  0.00  0.00    +0.000 A 
ATOM     12  C   UNL     1       7.405   5.168  15.840  0.00  0.00    +0.000 A 
ATOM     13  C   UNL     1       6.446   5.467  16.816  0.00  0.00    +0.000 A 
ATOM     14  F   UNL     1       6.893   6.052  17.938  0.00  0.00    +0.000 F 
ENDBRANCH   6   8
BRANCH   4  15
ATOM     15  C   UNL     1       1.967   8.677  18.485  0.00  0.00    +0.000 C 
ATOM     16  O   UNL     1       2.103   9.390  17.498  0.00  0.00    +0.000 OA
ATOM     17  N   UNL     1       1.267   9.062  19.633  0.00  0.00    +0.000 N 
ATOM     18  H   UNL     1       1.240   8.376  20.384  0.00  0.00    +0.000 HD
BRANCH  17  19
ATOM     19  C   UNL     1       0.676  10.349  19.795  0.00  0.00    +0.000 C 
ATOM     20  C   UNL     1      -0.738  10.651  19.382  0.00  0.00    +0.000 C 
ATOM     21  C   UNL     1      -0.393  10.549  20.835  0.00  0.00    +0.000 C 
ENDBRANCH  17  19
ENDBRANCH   4  15
BRANCH   7  22
ATOM     22  C   UNL     1       4.050   3.270  18.793  0.00  0.00    +0.000 C 
BRANCH  22  23
ATOM     23  N   UNL     1       5.288   3.014  19.523  0.00  0.00    +0.000 NA
ATOM     24  H   UNL     1       5.870   2.375  18.986  0.00  0.00    +0.000 HD
ATOM     25  H   UNL     1       5.051   2.485  20.365  0.00  0.00    +0.000 HD
ENDBRANCH  22  23
ENDBRANCH   7  22
TORSDOF 5
ENDMDL
MODEL 8
REMARK VINA RESULT:      -7.5      2.467      4.516
REMARK  Name = 
REMARK  6 active torsions:
REMARK  status: ('A' for Active; 'I' for Inactive)
REMARK    1  A    between atoms: C_1  and  C_2
REMARK    2  A    between atoms: C_4  and  C_5
REMARK    3  A    between atoms: N_7  and  C_8
REMARK    4  A    between atoms: C_12  and  C_13
REMARK    5  A    between atoms: C_20  and  C_21
REMARK    6  A    between atoms: C_21  and  N_22
REMARK                            x       y       z     vdW  Elec       q    Type
REMARK                         _______ _______ _______ _____ _____    ______ ____
ROOT
ATOM      1  C   UNL     1       5.457   6.600  16.108  0.00  0.00    +0.000 C 
ATOM      2  C   UNL     1       4.358   6.590  17.130  0.00  0.00    +0.000 A 
ATOM      3  N   UNL     1       3.716   7.785  17.205  0.00  0.00    +0.000 NA
ATOM      4  C   UNL     1       2.683   7.894  18.061  0.00  0.00    +0.000 A 
ATOM      5  C   UNL     1       2.229   6.835  18.841  0.00  0.00    +0.000 A 
ATOM      6  C   UNL     1       2.875   5.579  18.786  0.00  0.00    +0.000 A 
ATOM      7  C   UNL     1       4.011   5.459  17.908  0.00  0.00    +0.000 A 
ENDROOT
BRANCH   6   8
ATOM      8  C   UNL     1       2.352   4.466  19.666  0.00  0.00    +0.000 A 
ATOM      9  C   UNL     1       2.760   4.295  21.004  0.00  0.00    +0.000 A 
ATOM     10  C   UNL     1       2.171   3.354  21.861  0.00  0.00    +0.000 A 
ATOM     11  C   UNL     1       1.226   2.466  21.372  0.00  0.00    +0.000 A 
ATOM     12  C   UNL     1       0.870   2.529  20.031  0.00  0.00    +0.000 A 
ATOM     13  C   UNL     1       1.411   3.522  19.204  0.00  0.00    +0.000 A 
ATOM     14  F   UNL     1       0.979   3.546  17.934  0.00  0.00    +0.000 F 
ENDBRANCH   6   8
BRANCH   4  15
ATOM     15  C   UNL     1       2.027   9.242  18.146  0.00  0.00    +0.000 C 
ATOM     16  O   UNL     1       2.218  10.107  17.300  0.00  0.00    +0.000 OA
ATOM     17  N   UNL     1       1.194   9.411  19.257  0.00  0.00    +0.000 N 
ATOM     18  H   UNL     1       1.133   8.615  19.887  0.00  0.00    +0.000 HD
BRANCH  17  19
ATOM     19  C   UNL     1       0.515  10.629  19.548  0.00  0.00    +0.000 C 
ATOM     20  C   UNL     1      -0.925  10.865  19.183  0.00  0.00    +0.000 C 
ATOM     21  C   UNL     1      -0.546  10.652  20.615  0.00  0.00    +0.000 C 
ENDBRANCH  17  19
ENDBRANCH   4  15
BRANCH   7  22
ATOM     22  C   UNL     1       4.737   4.124  17.786  0.00  0.00    +0.000 C 
BRANCH  22  23
ATOM     23  N   UNL     1       5.855   3.823  18.676  0.00  0.00    +0.000 NA
ATOM     24  H   UNL     1       5.935   2.814  18.787  0.00  0.00    +0.000 HD
ATOM     25  H   UNL     1       5.610   4.156  19.610  0.00  0.00    +0.000 HD
ENDBRANCH  22  23
ENDBRANCH   7  22
TORSDOF 5
ENDMDL
MODEL 9
REMARK VINA RESULT:      -7.3      4.127      7.527
REMARK  Name = 
REMARK  6 active torsions:
REMARK  status: ('A' for Active; 'I' for Inactive)
REMARK    1  A    between atoms: C_1  and  C_2
REMARK    2  A    between atoms: C_4  and  C_5
REMARK    3  A    between atoms: N_7  and  C_8
REMARK    4  A    between atoms: C_12  and  C_13
REMARK    5  A    between atoms: C_20  and  C_21
REMARK    6  A    between atoms: C_21  and  N_22
REMARK                            x       y       z     vdW  Elec       q    Type
REMARK                         _______ _______ _______ _____ _____    ______ ____
ROOT
ATOM      1  C   UNL     1       7.551   6.701  16.898  0.00  0.00    +0.000 C 
ATOM      2  C   UNL     1       6.487   5.719  16.506  0.00  0.00    +0.000 A 
ATOM      3  N   UNL     1       6.597   5.331  15.209  0.00  0.00    +0.000 NA
ATOM      4  C   UNL     1       5.720   4.422  14.745  0.00  0.00    +0.000 A 
ATOM      5  C   UNL     1       4.735   3.844  15.538  0.00  0.00    +0.000 A 
ATOM      6  C   UNL     1       4.593   4.225  16.892  0.00  0.00    +0.000 A 
ATOM      7  C   UNL     1       5.495   5.231  17.392  0.00  0.00    +0.000 A 
ENDROOT
BRANCH   6   8
ATOM      8  C   UNL     1       3.496   3.578  17.706  0.00  0.00    +0.000 A 
ATOM      9  C   UNL     1       3.598   2.270  18.222  0.00  0.00    +0.000 A 
ATOM     10  C   UNL     1       2.645   1.724  19.095  0.00  0.00    +0.000 A 
ATOM     11  C   UNL     1       1.490   2.431  19.392  0.00  0.00    +0.000 A 
ATOM     12  C   UNL     1       1.298   3.682  18.821  0.00  0.00    +0.000 A 
ATOM     13  C   UNL     1       2.292   4.247  18.011  0.00  0.00    +0.000 A 
ATOM     14  F   UNL     1       2.051   5.479  17.537  0.00  0.00    +0.000 F 
ENDBRANCH   6   8
BRANCH   4  15
ATOM     15  C   UNL     1       5.850   4.051  13.295  0.00  0.00    +0.000 C 
ATOM     16  O   UNL     1       6.918   4.139  12.699  0.00  0.00    +0.000 OA
ATOM     17  N   UNL     1       4.664   3.605  12.704  0.00  0.00    +0.000 N 
ATOM     18  H   UNL     1       3.848   3.590  13.310  0.00  0.00    +0.000 HD
BRANCH  17  19
ATOM     19  C   UNL     1       4.561   3.248  11.328  0.00  0.00    +0.000 C 
ATOM     20  C   UNL     1       3.332   2.607  10.744  0.00  0.00    +0.000 C 
ATOM     21  C   UNL     1       3.651   4.034  10.424  0.00  0.00    +0.000 C 
ENDBRANCH  17  19
ENDBRANCH   4  15
BRANCH   7  22
ATOM     22  C   UNL     1       5.408   5.669  18.850  0.00  0.00    +0.000 C 
BRANCH  22  23
ATOM     23  N   UNL     1       6.316   5.092  19.837  0.00  0.00    +0.000 NA
ATOM     24  H   UNL     1       5.990   5.326  20.772  0.00  0.00    +0.000 HD
ATOM     25  H   UNL     1       7.212   5.576  19.758  0.00  0.00    +0.000 HD
ENDBRANCH  22  23
ENDBRANCH   7  22
TORSDOF 5
ENDMDL
