MODEL 1
REMARK VINA RESULT:      -7.4      0.000      0.000
REMARK  Name = 
REMARK  9 active torsions:
REMARK  status: ('A' for Active; 'I' for Inactive)
REMARK    1  A    between atoms: C_1  and  N_2
REMARK    2  A    between atoms: C_6  and  C_7
REMARK    3  A    between atoms: C_7  and  C_8
REMARK    4  A    between atoms: C_9  and  C_10
REMARK    5  A    between atoms: C_23  and  C_24
REMARK    6  A    between atoms: C_25  and  C_26
REMARK    7  A    between atoms: C_26  and  C_27
REMARK    8  A    between atoms: C_26  and  C_28
REMARK    9  A    between atoms: C_26  and  O_29
REMARK                            x       y       z     vdW  Elec       q    Type
REMARK                         _______ _______ _______ _____ _____    ______ ____
ROOT
ATOM      1  C   UNL     1       8.394  14.035  23.270  0.00  0.00    +0.000 A 
ATOM      2  C   UNL     1       8.362  12.720  23.716  0.00  0.00    +0.000 A 
ATOM      3  N   UNL     1       8.778  11.864  22.706  0.00  0.00    +0.000 NA
ATOM      4  C   UNL     1       9.088  12.610  21.657  0.00  0.00    +0.000 A 
ATOM      5  N   UNL     1       8.915  13.952  21.987  0.00  0.00    +0.000 N 
ATOM      6  C   UNL     1       9.288  15.112  21.194  0.00  0.00    +0.000 C 
ATOM      7  C   UNL     1      10.810  15.074  20.863  0.00  0.00    +0.000 C 
ATOM      8  C   UNL     1      10.468  14.353  19.548  0.00  0.00    +0.000 C 
ATOM      9  C   UNL     1       9.066  15.025  19.663  0.00  0.00    +0.000 C 
ATOM     10  C   UNL     1      10.292  12.792  19.431  0.00  0.00    +0.000 A 
ATOM     11  C   UNL     1      10.669  12.161  18.224  0.00  0.00    +0.000 A 
ATOM     12  C   UNL     1      10.115  10.947  17.834  0.00  0.00    +0.000 A 
ATOM     13  C   UNL     1       9.204  10.316  18.668  0.00  0.00    +0.000 A 
ATOM     14  C   UNL     1       8.970  10.817  19.952  0.00  0.00    +0.000 A 
ATOM     15  C   UNL     1       9.503  12.058  20.349  0.00  0.00    +0.000 A 
ENDROOT
BRANCH   2  16
ATOM     16  C   UNL     1       7.931  12.238  25.032  0.00  0.00    +0.000 C 
ATOM     17  N   UNL     1       8.753  12.604  26.056  0.00  0.00    +0.000 N 
ATOM     18  O   UNL     1       6.932  11.562  25.231  0.00  0.00    +0.000 OA
ATOM     19  H   UNL     1       9.569  13.171  25.860  0.00  0.00    +0.000 HD
ATOM     20  H   UNL     1       8.522  12.326  27.001  0.00  0.00    +0.000 HD
ENDBRANCH   2  16
BRANCH  13  21
ATOM     21  C   UNL     1       8.485   9.184  18.178  0.00  0.00    +0.000 C 
ATOM     22  C   UNL     1       7.902   8.077  17.810  0.00  0.00    +0.000 C 
BRANCH  22  23
ATOM     23  C   UNL     1       7.222   6.787  17.381  0.00  0.00    +0.000 C 
ATOM     24  C   UNL     1       7.560   5.670  18.366  0.00  0.00    +0.000 C 
ATOM     25  C   UNL     1       5.714   7.001  17.295  0.00  0.00    +0.000 C 
BRANCH  23  26
ATOM     26  O   UNL     1       7.697   6.421  16.090  0.00  0.00    +0.000 OA
ATOM     27  H   UNL     1       6.918   6.338  15.515  0.00  0.00    +0.000 HD
ENDBRANCH  23  26
ENDBRANCH  22  23
ENDBRANCH  13  21
BRANCH   1  28
ATOM     28  C   UNL     1       7.941  15.294  23.960  0.00  0.00    +0.000 C 
BRANCH  28  34
ATOM     29  C   UNL     1       7.588  16.153  26.987  0.00  0.00    +0.000 C 
ATOM     30  N   UNL     1       8.772  16.281  26.170  0.00  0.00    +0.000 N 
ATOM     31  N   UNL     1       9.834  16.920  26.712  0.00  0.00    +0.000 NA
ATOM     32  C   UNL     1      10.734  16.945  25.734  0.00  0.00    +0.000 A 
ATOM     33  C   UNL     1      10.257  16.341  24.564  0.00  0.00    +0.000 A 
ATOM     34  C   UNL     1       8.970  15.919  24.854  0.00  0.00    +0.000 A 
ENDBRANCH  28  34
ENDBRANCH   1  28
TORSDOF 6
ENDMDL
MODEL 2
REMARK VINA RESULT:      -7.4      1.569      2.198
REMARK  Name = 
REMARK  9 active torsions:
REMARK  status: ('A' for Active; 'I' for Inactive)
REMARK    1  A    between atoms: C_1  and  N_2
REMARK    2  A    between atoms: C_6  and  C_7
REMARK    3  A    between atoms: C_7  and  C_8
REMARK    4  A    between atoms: C_9  and  C_10
REMARK    5  A    between atoms: C_23  and  C_24
REMARK    6  A    between atoms: C_25  and  C_26
REMARK    7  A    between atoms: C_26  and  C_27
REMARK    8  A    between atoms: C_26  and  C_28
REMARK    9  A    between atoms: C_26  and  O_29
REMARK                            x       y       z     vdW  Elec       q    Type
REMARK                         _______ _______ _______ _____ _____    ______ ____
ROOT
ATOM      1  C   UNL     1       8.327  14.090  23.240  0.00  0.00    +0.000 A 
ATOM      2  C   UNL     1       8.397  12.786  23.715  0.00  0.00    +0.000 A 
ATOM      3  N   UNL     1       8.857  11.939  22.717  0.00  0.00    +0.000 NA
ATOM      4  C   UNL     1       9.095  12.680  21.647  0.00  0.00    +0.000 A 
ATOM      5  N   UNL     1       8.831  14.015  21.950  0.00  0.00    +0.000 N 
ATOM      6  C   UNL     1       9.107  15.179  21.125  0.00  0.00    +0.000 C 
ATOM      7  C   UNL     1      10.622  15.243  20.766  0.00  0.00    +0.000 C 
ATOM      8  C   UNL     1      10.310  14.469  19.474  0.00  0.00    +0.000 C 
ATOM      9  C   UNL     1       8.866  15.040  19.599  0.00  0.00    +0.000 C 
ATOM     10  C   UNL     1      10.245  12.896  19.395  0.00  0.00    +0.000 A 
ATOM     11  C   UNL     1      10.648  12.265  18.196  0.00  0.00    +0.000 A 
ATOM     12  C   UNL     1      10.176  11.007  17.844  0.00  0.00    +0.000 A 
ATOM     13  C   UNL     1       9.326  10.331  18.707  0.00  0.00    +0.000 A 
ATOM     14  C   UNL     1       9.079  10.844  19.984  0.00  0.00    +0.000 A 
ATOM     15  C   UNL     1       9.527  12.129  20.344  0.00  0.00    +0.000 A 
ENDROOT
BRANCH   2  16
ATOM     16  C   UNL     1       8.024  12.306  25.050  0.00  0.00    +0.000 C 
ATOM     17  N   UNL     1       8.782  12.820  26.059  0.00  0.00    +0.000 N 
ATOM     18  O   UNL     1       7.122  11.512  25.274  0.00  0.00    +0.000 OA
ATOM     19  H   UNL     1       9.517  13.482  25.841  0.00  0.00    +0.000 HD
ATOM     20  H   UNL     1       8.583  12.553  27.014  0.00  0.00    +0.000 HD
ENDBRANCH   2  16
BRANCH  13  21
ATOM     21  C   UNL     1       8.683   9.139  18.256  0.00  0.00    +0.000 C 
ATOM     22  C   UNL     1       7.983   8.104  17.885  0.00  0.00    +0.000 C 
BRANCH  22  23
ATOM     23  C   UNL     1       7.168   6.896  17.452  0.00  0.00    +0.000 C 
ATOM     24  C   UNL     1       7.361   5.756  18.448  0.00  0.00    +0.000 C 
ATOM     25  C   UNL     1       5.695   7.280  17.342  0.00  0.00    +0.000 C 
BRANCH  23  26
ATOM     26  O   UNL     1       7.617   6.470  16.170  0.00  0.00    +0.000 OA
ATOM     27  H   UNL     1       7.412   7.186  15.546  0.00  0.00    +0.000 HD
ENDBRANCH  23  26
ENDBRANCH  22  23
ENDBRANCH  13  21
BRANCH   1  28
ATOM     28  C   UNL     1       7.796  15.329  23.909  0.00  0.00    +0.000 C 
BRANCH  28  34
ATOM     29  C   UNL     1       5.358  14.855  25.873  0.00  0.00    +0.000 C 
ATOM     30  N   UNL     1       5.314  15.383  24.529  0.00  0.00    +0.000 N 
ATOM     31  N   UNL     1       4.094  15.625  23.997  0.00  0.00    +0.000 NA
ATOM     32  C   UNL     1       4.354  16.035  22.759  0.00  0.00    +0.000 A 
ATOM     33  C   UNL     1       5.727  16.046  22.485  0.00  0.00    +0.000 A 
ATOM     34  C   UNL     1       6.347  15.608  23.643  0.00  0.00    +0.000 A 
ENDBRANCH  28  34
ENDBRANCH   1  28
TORSDOF 6
ENDMDL
MODEL 3
REMARK VINA RESULT:      -7.3      1.563      2.266
REMARK  Name = 
REMARK  9 active torsions:
REMARK  status: ('A' for Active; 'I' for Inactive)
REMARK    1  A    between atoms: C_1  and  N_2
REMARK    2  A    between atoms: C_6  and  C_7
REMARK    3  A    between atoms: C_7  and  C_8
REMARK    4  A    between atoms: C_9  and  C_10
REMARK    5  A    between atoms: C_23  and  C_24
REMARK    6  A    between atoms: C_25  and  C_26
REMARK    7  A    between atoms: C_26  and  C_27
REMARK    8  A    between atoms: C_26  and  C_28
REMARK    9  A    between atoms: C_26  and  O_29
REMARK                            x       y       z     vdW  Elec       q    Type
REMARK                         _______ _______ _______ _____ _____    ______ ____
ROOT
ATOM      1  C   UNL     1       8.409  14.020  23.248  0.00  0.00    +0.000 A 
ATOM      2  C   UNL     1       8.371  12.708  23.703  0.00  0.00    +0.000 A 
ATOM      3  N   UNL     1       8.778  11.842  22.697  0.00  0.00    +0.000 NA
ATOM      4  C   UNL     1       9.088  12.579  21.642  0.00  0.00    +0.000 A 
ATOM      5  N   UNL     1       8.924  13.925  21.964  0.00  0.00    +0.000 N 
ATOM      6  C   UNL     1       9.301  15.077  21.161  0.00  0.00    +0.000 C 
ATOM      7  C   UNL     1      10.821  15.029  20.824  0.00  0.00    +0.000 C 
ATOM      8  C   UNL     1      10.469  14.301  19.515  0.00  0.00    +0.000 C 
ATOM      9  C   UNL     1       9.072  14.981  19.631  0.00  0.00    +0.000 C 
ATOM     10  C   UNL     1      10.284  12.740  19.409  0.00  0.00    +0.000 A 
ATOM     11  C   UNL     1      10.653  12.098  18.206  0.00  0.00    +0.000 A 
ATOM     12  C   UNL     1      10.090  10.886  17.826  0.00  0.00    +0.000 A 
ATOM     13  C   UNL     1       9.178  10.265  18.668  0.00  0.00    +0.000 A 
ATOM     14  C   UNL     1       8.953  10.776  19.949  0.00  0.00    +0.000 A 
ATOM     15  C   UNL     1       9.494  12.017  20.336  0.00  0.00    +0.000 A 
ENDROOT
BRANCH   2  16
ATOM     16  C   UNL     1       7.942  12.237  25.024  0.00  0.00    +0.000 C 
ATOM     17  N   UNL     1       8.739  12.654  26.049  0.00  0.00    +0.000 N 
ATOM     18  O   UNL     1       6.966  11.529  25.226  0.00  0.00    +0.000 OA
ATOM     19  H   UNL     1       9.536  13.247  25.850  0.00  0.00    +0.000 HD
ATOM     20  H   UNL     1       8.507  12.387  26.997  0.00  0.00    +0.000 HD
ENDBRANCH   2  16
BRANCH  13  21
ATOM     21  C   UNL     1       8.451   9.134  18.188  0.00  0.00    +0.000 C 
ATOM     22  C   UNL     1       7.880   8.026  17.804  0.00  0.00    +0.000 C 
BRANCH  22  23
ATOM     23  C   UNL     1       7.215   6.735  17.356  0.00  0.00    +0.000 C 
ATOM     24  C   UNL     1       7.565   5.608  18.324  0.00  0.00    +0.000 C 
ATOM     25  C   UNL     1       5.704   6.935  17.274  0.00  0.00    +0.000 C 
BRANCH  23  26
ATOM     26  O   UNL     1       7.693   6.394  16.059  0.00  0.00    +0.000 OA
ATOM     27  H   UNL     1       6.925   6.402  15.463  0.00  0.00    +0.000 HD
ENDBRANCH  23  26
ENDBRANCH  22  23
ENDBRANCH  13  21
BRANCH   1  28
ATOM     28  C   UNL     1       7.966  15.286  23.931  0.00  0.00    +0.000 C 
BRANCH  28  34
ATOM     29  C   UNL     1       7.037  17.992  22.575  0.00  0.00    +0.000 C 
ATOM     30  N   UNL     1       6.202  16.901  23.021  0.00  0.00    +0.000 N 
ATOM     31  N   UNL     1       4.863  17.072  22.942  0.00  0.00    +0.000 NA
ATOM     32  C   UNL     1       4.360  15.959  23.468  0.00  0.00    +0.000 A 
ATOM     33  C   UNL     1       5.361  15.081  23.897  0.00  0.00    +0.000 A 
ATOM     34  C   UNL     1       6.563  15.708  23.611  0.00  0.00    +0.000 A 
ENDBRANCH  28  34
ENDBRANCH   1  28
TORSDOF 6
ENDMDL
MODEL 4
REMARK VINA RESULT:      -7.1      8.263      9.772
REMARK  Name = 
REMARK  9 active torsions:
REMARK  status: ('A' for Active; 'I' for Inactive)
REMARK    1  A    between atoms: C_1  and  N_2
REMARK    2  A    between atoms: C_6  and  C_7
REMARK    3  A    between atoms: C_7  and  C_8
REMARK    4  A    between atoms: C_9  and  C_10
REMARK    5  A    between atoms: C_23  and  C_24
REMARK    6  A    between atoms: C_25  and  C_26
REMARK    7  A    between atoms: C_26  and  C_27
REMARK    8  A    between atoms: C_26  and  C_28
REMARK    9  A    between atoms: C_26  and  O_29
REMARK                            x       y       z     vdW  Elec       q    Type
REMARK                         _______ _______ _______ _____ _____    ______ ____
ROOT
ATOM      1  C   UNL     1       0.009  12.105  20.553  0.00  0.00    +0.000 A 
ATOM      2  C   UNL     1      -0.032  12.004  19.168  0.00  0.00    +0.000 A 
ATOM      3  N   UNL     1       0.360  10.733  18.771  0.00  0.00    +0.000 NA
ATOM      4  C   UNL     1       0.620  10.039  19.867  0.00  0.00    +0.000 A 
ATOM      5  N   UNL     1       0.364  10.834  20.981  0.00  0.00    +0.000 N 
ATOM      6  C   UNL     1       0.363  10.426  22.376  0.00  0.00    +0.000 C 
ATOM      7  C   UNL     1      -0.645   9.259  22.599  0.00  0.00    +0.000 C 
ATOM      8  C   UNL     1       0.509   8.269  22.366  0.00  0.00    +0.000 C 
ATOM      9  C   UNL     1       1.455   9.420  22.822  0.00  0.00    +0.000 C 
ATOM     10  C   UNL     1       0.949   7.763  20.941  0.00  0.00    +0.000 A 
ATOM     11  C   UNL     1       1.454   6.449  20.819  0.00  0.00    +0.000 A 
ATOM     12  C   UNL     1       2.304   6.090  19.779  0.00  0.00    +0.000 A 
ATOM     13  C   UNL     1       2.630   7.029  18.811  0.00  0.00    +0.000 A 
ATOM     14  C   UNL     1       1.985   8.269  18.798  0.00  0.00    +0.000 A 
ATOM     15  C   UNL     1       1.144   8.656  19.858  0.00  0.00    +0.000 A 
ENDROOT
BRANCH   2  16
ATOM     16  C   UNL     1      -0.394  13.055  18.211  0.00  0.00    +0.000 C 
ATOM     17  N   UNL     1      -1.243  12.644  17.227  0.00  0.00    +0.000 N 
ATOM     18  O   UNL     1       0.014  14.206  18.258  0.00  0.00    +0.000 OA
ATOM     19  H   UNL     1      -1.570  11.685  17.221  0.00  0.00    +0.000 HD
ATOM     20  H   UNL     1      -1.556  13.310  16.533  0.00  0.00    +0.000 HD
ENDBRANCH   2  16
BRANCH  13  21
ATOM     21  C   UNL     1       3.658   6.724  17.869  0.00  0.00    +0.000 C 
ATOM     22  C   UNL     1       4.598   6.325  17.058  0.00  0.00    +0.000 C 
BRANCH  22  23
ATOM     23  C   UNL     1       5.694   5.860  16.113  0.00  0.00    +0.000 C 
ATOM     24  C   UNL     1       7.063   6.199  16.699  0.00  0.00    +0.000 C 
ATOM     25  C   UNL     1       5.563   4.359  15.868  0.00  0.00    +0.000 C 
BRANCH  23  26
ATOM     26  O   UNL     1       5.547   6.532  14.867  0.00  0.00    +0.000 OA
ATOM     27  H   UNL     1       4.771   7.111  14.948  0.00  0.00    +0.000 HD
ENDBRANCH  23  26
ENDBRANCH  22  23
ENDBRANCH  13  21
BRANCH   1  28
ATOM     28  C   UNL     1      -0.224  13.301  21.436  0.00  0.00    +0.000 C 
BRANCH  28  34
ATOM     29  C   UNL     1      -1.146  14.981  23.957  0.00  0.00    +0.000 C 
ATOM     30  N   UNL     1      -1.963  14.133  23.119  0.00  0.00    +0.000 N 
ATOM     31  N   UNL     1      -3.250  13.950  23.490  0.00  0.00    +0.000 NA
ATOM     32  C   UNL     1      -3.730  13.094  22.593  0.00  0.00    +0.000 A 
ATOM     33  C   UNL     1      -2.760  12.713  21.658  0.00  0.00    +0.000 A 
ATOM     34  C   UNL     1      -1.605  13.388  22.015  0.00  0.00    +0.000 A 
ENDBRANCH  28  34
ENDBRANCH   1  28
TORSDOF 6
ENDMDL
MODEL 5
REMARK VINA RESULT:      -7.1      8.261     12.108
REMARK  Name = 
REMARK  9 active torsions:
REMARK  status: ('A' for Active; 'I' for Inactive)
REMARK    1  A    between atoms: C_1  and  N_2
REMARK    2  A    between atoms: C_6  and  C_7
REMARK    3  A    between atoms: C_7  and  C_8
REMARK    4  A    between atoms: C_9  and  C_10
REMARK    5  A    between atoms: C_23  and  C_24
REMARK    6  A    between atoms: C_25  and  C_26
REMARK    7  A    between atoms: C_26  and  C_27
REMARK    8  A    between atoms: C_26  and  C_28
REMARK    9  A    between atoms: C_26  and  O_29
REMARK                            x       y       z     vdW  Elec       q    Type
REMARK                         _______ _______ _______ _____ _____    ______ ____
ROOT
ATOM      1  C   UNL     1       6.245   4.512  17.848  0.00  0.00    +0.000 A 
ATOM      2  C   UNL     1       6.577   5.360  18.897  0.00  0.00    +0.000 A 
ATOM      3  N   UNL     1       5.466   5.582  19.699  0.00  0.00    +0.000 NA
ATOM      4  C   UNL     1       4.465   4.881  19.192  0.00  0.00    +0.000 A 
ATOM      5  N   UNL     1       4.923   4.170  18.085  0.00  0.00    +0.000 N 
ATOM      6  C   UNL     1       4.205   3.157  17.327  0.00  0.00    +0.000 C 
ATOM      7  C   UNL     1       3.750   2.000  18.265  0.00  0.00    +0.000 C 
ATOM      8  C   UNL     1       2.410   2.730  18.454  0.00  0.00    +0.000 C 
ATOM      9  C   UNL     1       2.695   3.398  17.075  0.00  0.00    +0.000 C 
ATOM     10  C   UNL     1       2.173   3.849  19.538  0.00  0.00    +0.000 A 
ATOM     11  C   UNL     1       0.889   3.961  20.120  0.00  0.00    +0.000 A 
ATOM     12  C   UNL     1       0.442   5.158  20.667  0.00  0.00    +0.000 A 
ATOM     13  C   UNL     1       1.289   6.257  20.686  0.00  0.00    +0.000 A 
ATOM     14  C   UNL     1       2.626   6.113  20.304  0.00  0.00    +0.000 A 
ATOM     15  C   UNL     1       3.085   4.916  19.723  0.00  0.00    +0.000 A 
ENDROOT
BRANCH   2  16
ATOM     16  C   UNL     1       7.877   5.987  19.156  0.00  0.00    +0.000 C 
ATOM     17  N   UNL     1       8.621   5.354  20.107  0.00  0.00    +0.000 N 
ATOM     18  O   UNL     1       8.288   6.991  18.592  0.00  0.00    +0.000 OA
ATOM     19  H   UNL     1       8.256   4.519  20.550  0.00  0.00    +0.000 HD
ATOM     20  H   UNL     1       9.539   5.712  20.338  0.00  0.00    +0.000 HD
ENDBRANCH   2  16
BRANCH  13  21
ATOM     21  C   UNL     1       0.762   7.531  21.055  0.00  0.00    +0.000 C 
ATOM     22  C   UNL     1       0.398   8.745  21.364  0.00  0.00    +0.000 C 
BRANCH  22  23
ATOM     23  C   UNL     1      -0.026  10.159  21.724  0.00  0.00    +0.000 C 
ATOM     24  C   UNL     1      -0.898  10.738  20.612  0.00  0.00    +0.000 C 
ATOM     25  C   UNL     1      -0.773  10.152  23.054  0.00  0.00    +0.000 C 
BRANCH  23  26
ATOM     26  O   UNL     1       1.136  10.969  21.866  0.00  0.00    +0.000 OA
ATOM     27  H   UNL     1       1.023  11.486  22.681  0.00  0.00    +0.000 HD
ENDBRANCH  23  26
ENDBRANCH  22  23
ENDBRANCH  13  21
BRANCH   1  28
ATOM     28  C   UNL     1       7.076   4.068  16.673  0.00  0.00    +0.000 C 
BRANCH  28  34
ATOM     29  C   UNL     1       5.359   6.563  15.750  0.00  0.00    +0.000 C 
ATOM     30  N   UNL     1       5.686   5.387  14.977  0.00  0.00    +0.000 N 
ATOM     31  N   UNL     1       5.131   5.278  13.749  0.00  0.00    +0.000 NA
ATOM     32  C   UNL     1       5.547   4.095  13.307  0.00  0.00    +0.000 A 
ATOM     33  C   UNL     1       6.352   3.436  14.244  0.00  0.00    +0.000 A 
ATOM     34  C   UNL     1       6.430   4.283  15.337  0.00  0.00    +0.000 A 
ENDBRANCH  28  34
ENDBRANCH   1  28
TORSDOF 6
ENDMDL
MODEL 6
REMARK VINA RESULT:      -7.0      8.324      9.663
REMARK  Name = 
REMARK  9 active torsions:
REMARK  status: ('A' for Active; 'I' for Inactive)
REMARK    1  A    between atoms: C_1  and  N_2
REMARK    2  A    between atoms: C_6  and  C_7
REMARK    3  A    between atoms: C_7  and  C_8
REMARK    4  A    between atoms: C_9  and  C_10
REMARK    5  A    between atoms: C_23  and  C_24
REMARK    6  A    between atoms: C_25  and  C_26
REMARK    7  A    between atoms: C_26  and  C_27
REMARK    8  A    between atoms: C_26  and  C_28
REMARK    9  A    between atoms: C_26  and  O_29
REMARK                            x       y       z     vdW  Elec       q    Type
REMARK                         _______ _______ _______ _____ _____    ______ ____
ROOT
ATOM      1  C   UNL     1       0.377  12.099  20.630  0.00  0.00    +0.000 A 
ATOM      2  C   UNL     1       0.439  12.062  19.243  0.00  0.00    +0.000 A 
ATOM      3  N   UNL     1       0.770  10.784  18.815  0.00  0.00    +0.000 NA
ATOM      4  C   UNL     1       0.891  10.024  19.892  0.00  0.00    +0.000 A 
ATOM      5  N   UNL     1       0.604  10.788  21.021  0.00  0.00    +0.000 N 
ATOM      6  C   UNL     1       0.461  10.320  22.390  0.00  0.00    +0.000 C 
ATOM      7  C   UNL     1      -0.642   9.224  22.477  0.00  0.00    +0.000 C 
ATOM      8  C   UNL     1       0.452   8.160  22.285  0.00  0.00    +0.000 C 
ATOM      9  C   UNL     1       1.439   9.216  22.868  0.00  0.00    +0.000 C 
ATOM     10  C   UNL     1       0.968   7.686  20.874  0.00  0.00    +0.000 A 
ATOM     11  C   UNL     1       1.385   6.343  20.726  0.00  0.00    +0.000 A 
ATOM     12  C   UNL     1       2.288   5.967  19.739  0.00  0.00    +0.000 A 
ATOM     13  C   UNL     1       2.758   6.920  18.847  0.00  0.00    +0.000 A 
ATOM     14  C   UNL     1       2.206   8.205  18.845  0.00  0.00    +0.000 A 
ATOM     15  C   UNL     1       1.312   8.607  19.855  0.00  0.00    +0.000 A 
ENDROOT
BRANCH   2  16
ATOM     16  C   UNL     1       0.232  13.178  18.314  0.00  0.00    +0.000 C 
ATOM     17  N   UNL     1      -0.844  13.026  17.492  0.00  0.00    +0.000 N 
ATOM     18  O   UNL     1       0.944  14.170  18.252  0.00  0.00    +0.000 OA
ATOM     19  H   UNL     1      -1.419  12.195  17.574  0.00  0.00    +0.000 HD
ATOM     20  H   UNL     1      -1.068  13.756  16.829  0.00  0.00    +0.000 HD
ENDBRANCH   2  16
BRANCH  13  21
ATOM     21  C   UNL     1       3.833   6.580  17.972  0.00  0.00    +0.000 C 
ATOM     22  C   UNL     1       4.887   6.248  17.280  0.00  0.00    +0.000 C 
BRANCH  22  23
ATOM     23  C   UNL     1       6.116   5.862  16.473  0.00  0.00    +0.000 C 
ATOM     24  C   UNL     1       6.809   4.667  17.123  0.00  0.00    +0.000 C 
ATOM     25  C   UNL     1       5.712   5.543  15.036  0.00  0.00    +0.000 C 
BRANCH  23  26
ATOM     26  O   UNL     1       7.019   6.963  16.451  0.00  0.00    +0.000 OA
ATOM     27  H   UNL     1       7.536   6.888  15.631  0.00  0.00    +0.000 HD
ENDBRANCH  23  26
ENDBRANCH  22  23
ENDBRANCH  13  21
BRANCH   1  28
ATOM     28  C   UNL     1       0.160  13.270  21.551  0.00  0.00    +0.000 C 
BRANCH  28  34
ATOM     29  C   UNL     1      -1.591  15.654  20.422  0.00  0.00    +0.000 C 
ATOM     30  N   UNL     1      -2.004  14.619  21.342  0.00  0.00    +0.000 N 
ATOM     31  N   UNL     1      -3.249  14.713  21.862  0.00  0.00    +0.000 NA
ATOM     32  C   UNL     1      -3.329  13.686  22.703  0.00  0.00    +0.000 A 
ATOM     33  C   UNL     1      -2.143  12.942  22.740  0.00  0.00    +0.000 A 
ATOM     34  C   UNL     1      -1.278  13.565  21.855  0.00  0.00    +0.000 A 
ENDBRANCH  28  34
ENDBRANCH   1  28
TORSDOF 6
ENDMDL
MODEL 7
REMARK VINA RESULT:      -6.9     11.312     13.860
REMARK  Name = 
REMARK  9 active torsions:
REMARK  status: ('A' for Active; 'I' for Inactive)
REMARK    1  A    between atoms: C_1  and  N_2
REMARK    2  A    between atoms: C_6  and  C_7
REMARK    3  A    between atoms: C_7  and  C_8
REMARK    4  A    between atoms: C_9  and  C_10
REMARK    5  A    between atoms: C_23  and  C_24
REMARK    6  A    between atoms: C_25  and  C_26
REMARK    7  A    between atoms: C_26  and  C_27
REMARK    8  A    between atoms: C_26  and  C_28
REMARK    9  A    between atoms: C_26  and  O_29
REMARK                            x       y       z     vdW  Elec       q    Type
REMARK                         _______ _______ _______ _____ _____    ______ ____
ROOT
ATOM      1  C   UNL     1      -4.682  12.186  19.347  0.00  0.00    +0.000 A 
ATOM      2  C   UNL     1      -3.683  11.641  18.550  0.00  0.00    +0.000 A 
ATOM      3  N   UNL     1      -2.436  12.038  19.010  0.00  0.00    +0.000 NA
ATOM      4  C   UNL     1      -2.630  12.793  20.079  0.00  0.00    +0.000 A 
ATOM      5  N   UNL     1      -3.996  12.861  20.346  0.00  0.00    +0.000 N 
ATOM      6  C   UNL     1      -4.640  13.447  21.510  0.00  0.00    +0.000 C 
ATOM      7  C   UNL     1      -4.108  12.784  22.815  0.00  0.00    +0.000 C 
ATOM      8  C   UNL     1      -3.052  13.898  22.907  0.00  0.00    +0.000 C 
ATOM      9  C   UNL     1      -4.039  14.763  22.066  0.00  0.00    +0.000 C 
ATOM     10  C   UNL     1      -1.657  13.838  22.178  0.00  0.00    +0.000 A 
ATOM     11  C   UNL     1      -0.545  14.449  22.800  0.00  0.00    +0.000 A 
ATOM     12  C   UNL     1       0.549  14.887  22.064  0.00  0.00    +0.000 A 
ATOM     13  C   UNL     1       0.575  14.681  20.693  0.00  0.00    +0.000 A 
ATOM     14  C   UNL     1      -0.414  13.901  20.087  0.00  0.00    +0.000 A 
ATOM     15  C   UNL     1      -1.542  13.474  20.814  0.00  0.00    +0.000 A 
ENDROOT
BRANCH   2  16
ATOM     16  C   UNL     1      -3.856  10.792  17.366  0.00  0.00    +0.000 C 
ATOM     17  N   UNL     1      -4.157  11.480  16.228  0.00  0.00    +0.000 N 
ATOM     18  O   UNL     1      -3.753   9.574  17.364  0.00  0.00    +0.000 OA
ATOM     19  H   UNL     1      -4.227  12.490  16.261  0.00  0.00    +0.000 HD
ATOM     20  H   UNL     1      -4.279  10.973  15.361  0.00  0.00    +0.000 HD
ENDBRANCH   2  16
BRANCH  13  21
ATOM     21  C   UNL     1       1.595  15.310  19.916  0.00  0.00    +0.000 C 
ATOM     22  C   UNL     1       2.551  15.766  19.156  0.00  0.00    +0.000 C 
BRANCH  22  23
ATOM     23  C   UNL     1       3.665  16.299  18.270  0.00  0.00    +0.000 C 
ATOM     24  C   UNL     1       4.624  15.168  17.907  0.00  0.00    +0.000 C 
ATOM     25  C   UNL     1       3.070  16.934  17.017  0.00  0.00    +0.000 C 
BRANCH  23  26
ATOM     26  O   UNL     1       4.384  17.301  18.983  0.00  0.00    +0.000 OA
ATOM     27  H   UNL     1       5.321  17.195  18.751  0.00  0.00    +0.000 HD
ENDBRANCH  23  26
ENDBRANCH  22  23
ENDBRANCH  13  21
BRANCH   1  28
ATOM     28  C   UNL     1      -6.177  12.128  19.188  0.00  0.00    +0.000 C 
BRANCH  28  34
ATOM     29  C   UNL     1      -7.829  11.876  21.878  0.00  0.00    +0.000 C 
ATOM     30  N   UNL     1      -7.526  10.828  20.930  0.00  0.00    +0.000 N 
ATOM     31  N   UNL     1      -7.905   9.571  21.255  0.00  0.00    +0.000 NA
ATOM     32  C   UNL     1      -7.451   8.824  20.253  0.00  0.00    +0.000 A 
ATOM     33  C   UNL     1      -6.771   9.586  19.295  0.00  0.00    +0.000 A 
ATOM     34  C   UNL     1      -6.816  10.893  19.750  0.00  0.00    +0.000 A 
ENDBRANCH  28  34
ENDBRANCH   1  28
TORSDOF 6
ENDMDL
MODEL 8
REMARK VINA RESULT:      -6.9      6.908      9.022
REMARK  Name = 
REMARK  9 active torsions:
REMARK  status: ('A' for Active; 'I' for Inactive)
REMARK    1  A    between atoms: C_1  and  N_2
REMARK    2  A    between atoms: C_6  and  C_7
REMARK    3  A    between atoms: C_7  and  C_8
REMARK    4  A    between atoms: C_9  and  C_10
REMARK    5  A    between atoms: C_23  and  C_24
REMARK    6  A    between atoms: C_25  and  C_26
REMARK    7  A    between atoms: C_26  and  C_27
REMARK    8  A    between atoms: C_26  and  C_28
REMARK    9  A    between atoms: C_26  and  O_29
REMARK                            x       y       z     vdW  Elec       q    Type
REMARK                         _______ _______ _______ _____ _____    ______ ____
ROOT
ATOM      1  C   UNL     1      -0.144  12.048  20.377  0.00  0.00    +0.000 A 
ATOM      2  C   UNL     1      -0.215  11.869  19.001  0.00  0.00    +0.000 A 
ATOM      3  N   UNL     1       0.212  10.592  18.664  0.00  0.00    +0.000 NA
ATOM      4  C   UNL     1       0.521   9.968  19.789  0.00  0.00    +0.000 A 
ATOM      5  N   UNL     1       0.264  10.815  20.865  0.00  0.00    +0.000 N 
ATOM      6  C   UNL     1       0.310  10.486  22.280  0.00  0.00    +0.000 C 
ATOM      7  C   UNL     1      -0.652   9.300  22.591  0.00  0.00    +0.000 C 
ATOM      8  C   UNL     1       0.530   8.337  22.384  0.00  0.00    +0.000 C 
ATOM      9  C   UNL     1       1.446   9.542  22.752  0.00  0.00    +0.000 C 
ATOM     10  C   UNL     1       0.954   7.768  20.978  0.00  0.00    +0.000 A 
ATOM     11  C   UNL     1       1.500   6.466  20.915  0.00  0.00    +0.000 A 
ATOM     12  C   UNL     1       2.337   6.078  19.876  0.00  0.00    +0.000 A 
ATOM     13  C   UNL     1       2.609   6.972  18.850  0.00  0.00    +0.000 A 
ATOM     14  C   UNL     1       1.921   8.187  18.785  0.00  0.00    +0.000 A 
ATOM     15  C   UNL     1       1.092   8.605  19.843  0.00  0.00    +0.000 A 
ENDROOT
BRANCH   2  16
ATOM     16  C   UNL     1      -0.635  12.852  17.997  0.00  0.00    +0.000 C 
ATOM     17  N   UNL     1      -1.513  12.367  17.075  0.00  0.00    +0.000 N 
ATOM     18  O   UNL     1      -0.248  14.011  17.957  0.00  0.00    +0.000 OA
ATOM     19  H   UNL     1      -1.821  11.404  17.141  0.00  0.00    +0.000 HD
ATOM     20  H   UNL     1      -1.866  12.983  16.355  0.00  0.00    +0.000 HD
ENDBRANCH   2  16
BRANCH  13  21
ATOM     21  C   UNL     1       3.623   6.649  17.900  0.00  0.00    +0.000 C 
ATOM     22  C   UNL     1       4.616   6.298  17.130  0.00  0.00    +0.000 C 
BRANCH  22  23
ATOM     23  C   UNL     1       5.772   5.888  16.232  0.00  0.00    +0.000 C 
ATOM     24  C   UNL     1       7.093   6.346  16.847  0.00  0.00    +0.000 C 
ATOM     25  C   UNL     1       5.760   4.375  16.031  0.00  0.00    +0.000 C 
BRANCH  23  26
ATOM     26  O   UNL     1       5.615   6.511  14.962  0.00  0.00    +0.000 OA
ATOM     27  H   UNL     1       6.448   6.971  14.767  0.00  0.00    +0.000 HD
ENDBRANCH  23  26
ENDBRANCH  22  23
ENDBRANCH  13  21
BRANCH   1  28
ATOM     28  C   UNL     1      -0.398  13.283  21.198  0.00  0.00    +0.000 C 
BRANCH  28  34
ATOM     29  C   UNL     1      -0.199  15.800  23.109  0.00  0.00    +0.000 C 
ATOM     30  N   UNL     1       0.877  15.151  22.396  0.00  0.00    +0.000 N 
ATOM     31  N   UNL     1       2.101  15.721  22.468  0.00  0.00    +0.000 NA
ATOM     32  C   UNL     1       2.861  14.963  21.682  0.00  0.00    +0.000 A 
ATOM     33  C   UNL     1       2.134  13.920  21.096  0.00  0.00    +0.000 A 
ATOM     34  C   UNL     1       0.836  14.056  21.559  0.00  0.00    +0.000 A 
ENDBRANCH  28  34
ENDBRANCH   1  28
TORSDOF 6
ENDMDL
MODEL 9
REMARK VINA RESULT:      -6.8      8.578     10.108
REMARK  Name = 
REMARK  9 active torsions:
REMARK  status: ('A' for Active; 'I' for Inactive)
REMARK    1  A    between atoms: C_1  and  N_2
REMARK    2  A    between atoms: C_6  and  C_7
REMARK    3  A    between atoms: C_7  and  C_8
REMARK    4  A    between atoms: C_9  and  C_10
REMARK    5  A    between atoms: C_23  and  C_24
REMARK    6  A    between atoms: C_25  and  C_26
REMARK    7  A    between atoms: C_26  and  C_27
REMARK    8  A    between atoms: C_26  and  C_28
REMARK    9  A    between atoms: C_26  and  O_29
REMARK                            x       y       z     vdW  Elec       q    Type
REMARK                         _______ _______ _______ _____ _____    ______ ____
ROOT
ATOM      1  C   UNL     1      -0.223  11.772  20.314  0.00  0.00    +0.000 A 
ATOM      2  C   UNL     1      -0.181  11.629  18.933  0.00  0.00    +0.000 A 
ATOM      3  N   UNL     1       0.319  10.379  18.598  0.00  0.00    +0.000 NA
ATOM      4  C   UNL     1       0.567   9.736  19.728  0.00  0.00    +0.000 A 
ATOM      5  N   UNL     1       0.195  10.543  20.801  0.00  0.00    +0.000 N 
ATOM      6  C   UNL     1       0.146  10.176  22.207  0.00  0.00    +0.000 C 
ATOM      7  C   UNL     1      -0.788   8.946  22.413  0.00  0.00    +0.000 C 
ATOM      8  C   UNL     1       0.442   8.034  22.274  0.00  0.00    +0.000 C 
ATOM      9  C   UNL     1       1.279   9.263  22.742  0.00  0.00    +0.000 C 
ATOM     10  C   UNL     1       0.994   7.521  20.891  0.00  0.00    +0.000 A 
ATOM     11  C   UNL     1       1.595   6.243  20.838  0.00  0.00    +0.000 A 
ATOM     12  C   UNL     1       2.523   5.917  19.857  0.00  0.00    +0.000 A 
ATOM     13  C   UNL     1       2.836   6.848  18.877  0.00  0.00    +0.000 A 
ATOM     14  C   UNL     1       2.108   8.038  18.790  0.00  0.00    +0.000 A 
ATOM     15  C   UNL     1       1.185   8.394  19.792  0.00  0.00    +0.000 A 
ENDROOT
BRANCH   2  16
ATOM     16  C   UNL     1      -0.562  12.625  17.925  0.00  0.00    +0.000 C 
ATOM     17  N   UNL     1      -1.544  12.209  17.076  0.00  0.00    +0.000 N 
ATOM     18  O   UNL     1      -0.062  13.735  17.823  0.00  0.00    +0.000 OA
ATOM     19  H   UNL     1      -1.945  11.286  17.193  0.00  0.00    +0.000 HD
ATOM     20  H   UNL     1      -1.878  12.840  16.359  0.00  0.00    +0.000 HD
ENDBRANCH   2  16
BRANCH  13  21
ATOM     21  C   UNL     1       3.933   6.591  18.001  0.00  0.00    +0.000 C 
ATOM     22  C   UNL     1       5.008   6.339  17.307  0.00  0.00    +0.000 C 
BRANCH  22  23
ATOM     23  C   UNL     1       6.261   6.046  16.497  0.00  0.00    +0.000 C 
ATOM     24  C   UNL     1       6.974   4.824  17.071  0.00  0.00    +0.000 C 
ATOM     25  C   UNL     1       5.890   5.824  15.034  0.00  0.00    +0.000 C 
BRANCH  23  26
ATOM     26  O   UNL     1       7.133   7.168  16.573  0.00  0.00    +0.000 OA
ATOM     27  H   UNL     1       7.204   7.408  17.512  0.00  0.00    +0.000 HD
ENDBRANCH  23  26
ENDBRANCH  22  23
ENDBRANCH  13  21
BRANCH   1  28
ATOM     28  C   UNL     1      -0.587  12.974  21.145  0.00  0.00    +0.000 C 
BRANCH  28  34
ATOM     29  C   UNL     1      -3.560  12.629  20.112  0.00  0.00    +0.000 C 
ATOM     30  N   UNL     1      -3.104  12.660  21.483  0.00  0.00    +0.000 N 
ATOM     31  N   UNL     1      -4.047  12.631  22.451  0.00  0.00    +0.000 NA
ATOM     32  C   UNL     1      -3.356  12.734  23.583  0.00  0.00    +0.000 A 
ATOM     33  C   UNL     1      -1.980  12.844  23.351  0.00  0.00    +0.000 A 
ATOM     34  C   UNL     1      -1.824  12.805  21.976  0.00  0.00    +0.000 A 
ENDBRANCH  28  34
ENDBRANCH   1  28
TORSDOF 6
ENDMDL
