MODEL 1
REMARK VINA RESULT:      -8.0      0.000      0.000
REMARK  Name = 
REMARK  7 active torsions:
REMARK  status: ('A' for Active; 'I' for Inactive)
REMARK    1  A    between atoms: C_1  and  C_2
REMARK    2  A    between atoms: C_4  and  C_5
REMARK    3  A    between atoms: C_7  and  N_8
REMARK    4  A    between atoms: C_9  and  C_11
REMARK    5  A    between atoms: C_11  and  O_12
REMARK    6  A    between atoms: O_12  and  C_13
REMARK    7  A    between atoms: C_13  and  C_15
REMARK                            x       y       z     vdW  Elec       q    Type
REMARK                         _______ _______ _______ _____ _____    ______ ____
ROOT
ATOM      1  C   UNL     1       2.401   2.930  21.266  0.00  0.00    +0.000 C 
ENDROOT
BRANCH   1   3
ATOM      2  N   UNL     1       2.304   5.364  21.004  0.00  0.00    +0.000 N 
ATOM      3  C   UNL     1       1.676   4.160  20.722  0.00  0.00    +0.000 C 
ATOM      4  O   UNL     1       0.633   4.007  20.088  0.00  0.00    +0.000 OA
ATOM      5  H   UNL     1       3.172   5.299  21.523  0.00  0.00    +0.000 HD
BRANCH   2  12
ATOM      6  C   UNL     1       2.277   9.006  17.659  0.00  0.00    +0.000 C 
ATOM      7  C   UNL     1       1.849   8.459  18.990  0.00  0.00    +0.000 A 
ATOM      8  C   UNL     1       1.041   9.226  19.839  0.00  0.00    +0.000 A 
ATOM      9  C   UNL     1       0.643   8.724  21.080  0.00  0.00    +0.000 A 
ATOM     10  C   UNL     1      -0.221   9.525  22.008  0.00  0.00    +0.000 C 
ATOM     11  C   UNL     1       1.058   7.444  21.468  0.00  0.00    +0.000 A 
ATOM     12  C   UNL     1       1.864   6.658  20.642  0.00  0.00    +0.000 A 
ATOM     13  C   UNL     1       2.256   7.175  19.398  0.00  0.00    +0.000 A 
ENDBRANCH   2  12
ENDBRANCH   1   3
BRANCH   1  14
ATOM     14  O   UNL     1       3.637   2.673  20.596  0.00  0.00    +0.000 OA
BRANCH  14  15
ATOM     15  C   UNL     1       3.567   2.600  19.246  0.00  0.00    +0.000 C 
ATOM     16  O   UNL     1       3.013   1.729  18.597  0.00  0.00    +0.000 OA
BRANCH  15  17
ATOM     17  C   UNL     1       4.293   3.738  18.630  0.00  0.00    +0.000 A 
ATOM     18  C   UNL     1       3.699   4.369  17.527  0.00  0.00    +0.000 A 
ATOM     19  C   UNL     1       4.343   5.433  16.894  0.00  0.00    +0.000 A 
ATOM     20  C   UNL     1       5.584   5.864  17.352  0.00  0.00    +0.000 A 
ATOM     21  C   UNL     1       6.174   5.251  18.464  0.00  0.00    +0.000 A 
ATOM     22  C   UNL     1       5.534   4.187  19.100  0.00  0.00    +0.000 A 
ATOM     23  O   UNL     1       7.388   5.633  18.975  0.00  0.00    +0.000 OA
ATOM     24  C   UNL     1       7.791   6.914  18.477  0.00  0.00    +0.000 C 
ATOM     25  C   UNL     1       7.559   7.016  16.978  0.00  0.00    +0.000 C 
ATOM     26  O   UNL     1       6.166   6.897  16.669  0.00  0.00    +0.000 OA
ENDBRANCH  15  17
ENDBRANCH  14  15
ENDBRANCH   1  14
TORSDOF 5
ENDMDL
MODEL 2
REMARK VINA RESULT:      -7.9      0.356      1.759
REMARK  Name = 
REMARK  7 active torsions:
REMARK  status: ('A' for Active; 'I' for Inactive)
REMARK    1  A    between atoms: C_1  and  C_2
REMARK    2  A    between atoms: C_4  and  C_5
REMARK    3  A    between atoms: C_7  and  N_8
REMARK    4  A    between atoms: C_9  and  C_11
REMARK    5  A    between atoms: C_11  and  O_12
REMARK    6  A    between atoms: O_12  and  C_13
REMARK    7  A    between atoms: C_13  and  C_15
REMARK                            x       y       z     vdW  Elec       q    Type
REMARK                         _______ _______ _______ _____ _____    ______ ____
ROOT
ATOM      1  C   UNL     1       2.209   3.016  21.547  0.00  0.00    +0.000 C 
ENDROOT
BRANCH   1   3
ATOM      2  N   UNL     1       2.224   5.426  21.114  0.00  0.00    +0.000 N 
ATOM      3  C   UNL     1       1.563   4.229  20.882  0.00  0.00    +0.000 C 
ATOM      4  O   UNL     1       0.548   4.071  20.205  0.00  0.00    +0.000 OA
ATOM      5  H   UNL     1       3.061   5.366  21.682  0.00  0.00    +0.000 HD
BRANCH   2  12
ATOM      6  C   UNL     1      -0.214   9.656  21.902  0.00  0.00    +0.000 C 
ATOM      7  C   UNL     1       0.653   8.798  21.027  0.00  0.00    +0.000 A 
ATOM      8  C   UNL     1       1.073   9.266  19.775  0.00  0.00    +0.000 A 
ATOM      9  C   UNL     1       1.876   8.471  18.955  0.00  0.00    +0.000 A 
ATOM     10  C   UNL     1       2.338   8.949  17.611  0.00  0.00    +0.000 C 
ATOM     11  C   UNL     1       2.261   7.199  19.397  0.00  0.00    +0.000 A 
ATOM     12  C   UNL     1       1.857   6.706  20.640  0.00  0.00    +0.000 A 
ATOM     13  C   UNL     1       1.050   7.517  21.453  0.00  0.00    +0.000 A 
ENDBRANCH   2  12
ENDBRANCH   1   3
BRANCH   1  14
ATOM     14  O   UNL     1       3.316   2.499  20.806  0.00  0.00    +0.000 OA
BRANCH  14  15
ATOM     15  C   UNL     1       3.151   2.454  19.463  0.00  0.00    +0.000 C 
ATOM     16  O   UNL     1       2.462   1.661  18.845  0.00  0.00    +0.000 OA
BRANCH  15  17
ATOM     17  C   UNL     1       3.959   3.514  18.810  0.00  0.00    +0.000 A 
ATOM     18  C   UNL     1       3.418   4.140  17.677  0.00  0.00    +0.000 A 
ATOM     19  C   UNL     1       4.139   5.131  17.009  0.00  0.00    +0.000 A 
ATOM     20  C   UNL     1       5.404   5.493  17.462  0.00  0.00    +0.000 A 
ATOM     21  C   UNL     1       5.941   4.885  18.602  0.00  0.00    +0.000 A 
ATOM     22  C   UNL     1       5.225   3.895  19.274  0.00  0.00    +0.000 A 
ATOM     23  O   UNL     1       7.175   5.203  19.109  0.00  0.00    +0.000 OA
ATOM     24  C   UNL     1       7.670   6.432  18.566  0.00  0.00    +0.000 C 
ATOM     25  C   UNL     1       7.456   6.490  17.062  0.00  0.00    +0.000 C 
ATOM     26  O   UNL     1       6.061   6.455  16.744  0.00  0.00    +0.000 OA
ENDBRANCH  15  17
ENDBRANCH  14  15
ENDBRANCH   1  14
TORSDOF 5
ENDMDL
MODEL 3
REMARK VINA RESULT:      -7.8      0.950      1.226
REMARK  Name = 
REMARK  7 active torsions:
REMARK  status: ('A' for Active; 'I' for Inactive)
REMARK    1  A    between atoms: C_1  and  C_2
REMARK    2  A    between atoms: C_4  and  C_5
REMARK    3  A    between atoms: C_7  and  N_8
REMARK    4  A    between atoms: C_9  and  C_11
REMARK    5  A    between atoms: C_11  and  O_12
REMARK    6  A    between atoms: O_12  and  C_13
REMARK    7  A    between atoms: C_13  and  C_15
REMARK                            x       y       z     vdW  Elec       q    Type
REMARK                         _______ _______ _______ _____ _____    ______ ____
ROOT
ATOM      1  C   UNL     1       2.309   3.165  21.582  0.00  0.00    +0.000 C 
ENDROOT
BRANCH   1   3
ATOM      2  N   UNL     1       2.253   5.573  21.135  0.00  0.00    +0.000 N 
ATOM      3  C   UNL     1       1.647   4.351  20.884  0.00  0.00    +0.000 C 
ATOM      4  O   UNL     1       0.666   4.152  20.168  0.00  0.00    +0.000 OA
ATOM      5  H   UNL     1       3.068   5.546  21.736  0.00  0.00    +0.000 HD
BRANCH   2  12
ATOM      6  C   UNL     1       2.439   8.892  17.474  0.00  0.00    +0.000 C 
ATOM      7  C   UNL     1       1.947   8.478  18.831  0.00  0.00    +0.000 A 
ATOM      8  C   UNL     1       1.127   9.336  19.574  0.00  0.00    +0.000 A 
ATOM      9  C   UNL     1       0.670   8.958  20.839  0.00  0.00    +0.000 A 
ATOM     10  C   UNL     1      -0.209   9.858  21.655  0.00  0.00    +0.000 C 
ATOM     11  C   UNL     1       1.039   7.711  21.358  0.00  0.00    +0.000 A 
ATOM     12  C   UNL     1       1.858   6.836  20.639  0.00  0.00    +0.000 A 
ATOM     13  C   UNL     1       2.308   7.229  19.370  0.00  0.00    +0.000 A 
ENDBRANCH   2  12
ENDBRANCH   1   3
BRANCH   1  14
ATOM     14  O   UNL     1       2.838   2.205  20.665  0.00  0.00    +0.000 OA
BRANCH  14  15
ATOM     15  C   UNL     1       4.162   2.309  20.407  0.00  0.00    +0.000 C 
ATOM     16  O   UNL     1       5.065   1.784  21.037  0.00  0.00    +0.000 OA
BRANCH  15  17
ATOM     17  C   UNL     1       4.392   3.188  19.234  0.00  0.00    +0.000 A 
ATOM     18  C   UNL     1       3.683   2.905  18.058  0.00  0.00    +0.000 A 
ATOM     19  C   UNL     1       3.871   3.687  16.917  0.00  0.00    +0.000 A 
ATOM     20  C   UNL     1       4.775   4.744  16.942  0.00  0.00    +0.000 A 
ATOM     21  C   UNL     1       5.472   5.044  18.118  0.00  0.00    +0.000 A 
ATOM     22  C   UNL     1       5.288   4.267  19.261  0.00  0.00    +0.000 A 
ATOM     23  O   UNL     1       6.367   6.078  18.215  0.00  0.00    +0.000 OA
ATOM     24  C   UNL     1       6.237   6.995  17.123  0.00  0.00    +0.000 C 
ATOM     25  C   UNL     1       6.107   6.257  15.801  0.00  0.00    +0.000 C 
ATOM     26  O   UNL     1       4.924   5.452  15.780  0.00  0.00    +0.000 OA
ENDBRANCH  15  17
ENDBRANCH  14  15
ENDBRANCH   1  14
TORSDOF 5
ENDMDL
MODEL 4
REMARK VINA RESULT:      -7.7      3.806      7.270
REMARK  Name = 
REMARK  7 active torsions:
REMARK  status: ('A' for Active; 'I' for Inactive)
REMARK    1  A    between atoms: C_1  and  C_2
REMARK    2  A    between atoms: C_4  and  C_5
REMARK    3  A    between atoms: C_7  and  N_8
REMARK    4  A    between atoms: C_9  and  C_11
REMARK    5  A    between atoms: C_11  and  O_12
REMARK    6  A    between atoms: O_12  and  C_13
REMARK    7  A    between atoms: C_13  and  C_15
REMARK                            x       y       z     vdW  Elec       q    Type
REMARK                         _______ _______ _______ _____ _____    ______ ____
ROOT
ATOM      1  C   UNL     1       7.979   6.780  18.454  0.00  0.00    +0.000 C 
ENDROOT
BRANCH   1   3
ATOM      2  N   UNL     1       9.010   8.875  19.190  0.00  0.00    +0.000 N 
ATOM      3  C   UNL     1       8.181   8.280  18.251  0.00  0.00    +0.000 C 
ATOM      4  O   UNL     1       7.628   8.836  17.304  0.00  0.00    +0.000 OA
ATOM      5  H   UNL     1       9.398   8.257  19.894  0.00  0.00    +0.000 HD
BRANCH   2  12
ATOM      6  C   UNL     1       9.415  12.972  21.931  0.00  0.00    +0.000 C 
ATOM      7  C   UNL     1       9.571  12.267  20.615  0.00  0.00    +0.000 A 
ATOM      8  C   UNL     1      10.056  12.959  19.498  0.00  0.00    +0.000 A 
ATOM      9  C   UNL     1      10.200  12.310  18.270  0.00  0.00    +0.000 A 
ATOM     10  C   UNL     1      10.715  13.029  17.060  0.00  0.00    +0.000 C 
ATOM     11  C   UNL     1       9.856  10.956  18.166  0.00  0.00    +0.000 A 
ATOM     12  C   UNL     1       9.370  10.241  19.263  0.00  0.00    +0.000 A 
ATOM     13  C   UNL     1       9.231  10.907  20.489  0.00  0.00    +0.000 A 
ENDBRANCH   2  12
ENDBRANCH   1   3
BRANCH   1  14
ATOM     14  O   UNL     1       6.697   6.328  18.014  0.00  0.00    +0.000 OA
BRANCH  14  15
ATOM     15  C   UNL     1       6.652   5.058  17.546  0.00  0.00    +0.000 C 
ATOM     16  O   UNL     1       7.548   4.470  16.963  0.00  0.00    +0.000 OA
BRANCH  15  17
ATOM     17  C   UNL     1       5.325   4.454  17.820  0.00  0.00    +0.000 A 
ATOM     18  C   UNL     1       4.544   4.071  16.721  0.00  0.00    +0.000 A 
ATOM     19  C   UNL     1       3.279   3.513  16.915  0.00  0.00    +0.000 A 
ATOM     20  C   UNL     1       2.785   3.348  18.206  0.00  0.00    +0.000 A 
ATOM     21  C   UNL     1       3.567   3.712  19.308  0.00  0.00    +0.000 A 
ATOM     22  C   UNL     1       4.832   4.269  19.119  0.00  0.00    +0.000 A 
ATOM     23  O   UNL     1       3.148   3.564  20.606  0.00  0.00    +0.000 OA
ATOM     24  C   UNL     1       2.011   2.698  20.699  0.00  0.00    +0.000 C 
ATOM     25  C   UNL     1       0.985   3.025  19.627  0.00  0.00    +0.000 C 
ATOM     26  O   UNL     1       1.529   2.817  18.319  0.00  0.00    +0.000 OA
ENDBRANCH  15  17
ENDBRANCH  14  15
ENDBRANCH   1  14
TORSDOF 5
ENDMDL
MODEL 5
REMARK VINA RESULT:      -7.7      3.910      7.141
REMARK  Name = 
REMARK  7 active torsions:
REMARK  status: ('A' for Active; 'I' for Inactive)
REMARK    1  A    between atoms: C_1  and  C_2
REMARK    2  A    between atoms: C_4  and  C_5
REMARK    3  A    between atoms: C_7  and  N_8
REMARK    4  A    between atoms: C_9  and  C_11
REMARK    5  A    between atoms: C_11  and  O_12
REMARK    6  A    between atoms: O_12  and  C_13
REMARK    7  A    between atoms: C_13  and  C_15
REMARK                            x       y       z     vdW  Elec       q    Type
REMARK                         _______ _______ _______ _____ _____    ______ ____
ROOT
ATOM      1  C   UNL     1       7.938   6.991  18.254  0.00  0.00    +0.000 C 
ENDROOT
BRANCH   1   3
ATOM      2  N   UNL     1       9.039   9.011  19.093  0.00  0.00    +0.000 N 
ATOM      3  C   UNL     1       8.164   8.498  18.148  0.00  0.00    +0.000 C 
ATOM      4  O   UNL     1       7.586   9.129  17.264  0.00  0.00    +0.000 OA
ATOM      5  H   UNL     1       9.441   8.338  19.736  0.00  0.00    +0.000 HD
BRANCH   2  12
ATOM      6  C   UNL     1      10.970  13.082  17.055  0.00  0.00    +0.000 C 
ATOM      7  C   UNL     1      10.382  12.375  18.242  0.00  0.00    +0.000 A 
ATOM      8  C   UNL     1      10.238  13.047  19.462  0.00  0.00    +0.000 A 
ATOM      9  C   UNL     1       9.696  12.394  20.570  0.00  0.00    +0.000 A 
ATOM     10  C   UNL     1       9.531  13.091  21.888  0.00  0.00    +0.000 C 
ATOM     11  C   UNL     1       9.295  11.057  20.451  0.00  0.00    +0.000 A 
ATOM     12  C   UNL     1       9.429  10.361  19.247  0.00  0.00    +0.000 A 
ATOM     13  C   UNL     1       9.975  11.031  18.142  0.00  0.00    +0.000 A 
ENDBRANCH   2  12
ENDBRANCH   1   3
BRANCH   1  14
ATOM     14  O   UNL     1       6.732   6.564  17.618  0.00  0.00    +0.000 OA
BRANCH  14  15
ATOM     15  C   UNL     1       6.657   5.244  17.330  0.00  0.00    +0.000 C 
ATOM     16  O   UNL     1       7.510   4.577  16.768  0.00  0.00    +0.000 OA
BRANCH  15  17
ATOM     17  C   UNL     1       5.355   4.691  17.777  0.00  0.00    +0.000 A 
ATOM     18  C   UNL     1       4.693   3.804  16.916  0.00  0.00    +0.000 A 
ATOM     19  C   UNL     1       3.456   3.266  17.275  0.00  0.00    +0.000 A 
ATOM     20  C   UNL     1       2.872   3.619  18.488  0.00  0.00    +0.000 A 
ATOM     21  C   UNL     1       3.536   4.489  19.360  0.00  0.00    +0.000 A 
ATOM     22  C   UNL     1       4.772   5.029  19.006  0.00  0.00    +0.000 A 
ATOM     23  O   UNL     1       3.023   4.868  20.574  0.00  0.00    +0.000 OA
ATOM     24  C   UNL     1       1.943   4.020  20.980  0.00  0.00    +0.000 C 
ATOM     25  C   UNL     1       0.987   3.761  19.827  0.00  0.00    +0.000 C 
ATOM     26  O   UNL     1       1.648   3.070  18.762  0.00  0.00    +0.000 OA
ENDBRANCH  15  17
ENDBRANCH  14  15
ENDBRANCH   1  14
TORSDOF 5
ENDMDL
MODEL 6
REMARK VINA RESULT:      -7.6      3.851      7.146
REMARK  Name = 
REMARK  7 active torsions:
REMARK  status: ('A' for Active; 'I' for Inactive)
REMARK    1  A    between atoms: C_1  and  C_2
REMARK    2  A    between atoms: C_4  and  C_5
REMARK    3  A    between atoms: C_7  and  N_8
REMARK    4  A    between atoms: C_9  and  C_11
REMARK    5  A    between atoms: C_11  and  O_12
REMARK    6  A    between atoms: O_12  and  C_13
REMARK    7  A    between atoms: C_13  and  C_15
REMARK                            x       y       z     vdW  Elec       q    Type
REMARK                         _______ _______ _______ _____ _____    ______ ____
ROOT
ATOM      1  C   UNL     1       7.914   6.954  17.976  0.00  0.00    +0.000 C 
ENDROOT
BRANCH   1   3
ATOM      2  N   UNL     1       9.016   8.932  18.909  0.00  0.00    +0.000 N 
ATOM      3  C   UNL     1       8.041   8.475  18.035  0.00  0.00    +0.000 C 
ATOM      4  O   UNL     1       7.309   9.165  17.327  0.00  0.00    +0.000 OA
ATOM      5  H   UNL     1       9.542   8.217  19.398  0.00  0.00    +0.000 HD
BRANCH   2  12
ATOM      6  C   UNL     1      10.722  13.256  17.218  0.00  0.00    +0.000 C 
ATOM      7  C   UNL     1      10.194  12.417  18.346  0.00  0.00    +0.000 A 
ATOM      8  C   UNL     1      10.051  12.967  19.626  0.00  0.00    +0.000 A 
ATOM      9  C   UNL     1       9.565  12.191  20.680  0.00  0.00    +0.000 A 
ATOM     10  C   UNL     1       9.403  12.756  22.059  0.00  0.00    +0.000 C 
ATOM     11  C   UNL     1       9.219  10.854  20.445  0.00  0.00    +0.000 A 
ATOM     12  C   UNL     1       9.352  10.279  19.179  0.00  0.00    +0.000 A 
ATOM     13  C   UNL     1       9.841  11.071  18.130  0.00  0.00    +0.000 A 
ENDBRANCH   2  12
ENDBRANCH   1   3
BRANCH   1  14
ATOM     14  O   UNL     1       6.577   6.500  18.196  0.00  0.00    +0.000 OA
BRANCH  14  15
ATOM     15  C   UNL     1       6.436   5.514  19.113  0.00  0.00    +0.000 C 
ATOM     16  O   UNL     1       7.201   5.265  20.030  0.00  0.00    +0.000 OA
BRANCH  15  17
ATOM     17  C   UNL     1       5.204   4.732  18.844  0.00  0.00    +0.000 A 
ATOM     18  C   UNL     1       5.086   4.112  17.592  0.00  0.00    +0.000 A 
ATOM     19  C   UNL     1       3.942   3.377  17.275  0.00  0.00    +0.000 A 
ATOM     20  C   UNL     1       2.909   3.269  18.201  0.00  0.00    +0.000 A 
ATOM     21  C   UNL     1       3.029   3.870  19.459  0.00  0.00    +0.000 A 
ATOM     22  C   UNL     1       4.170   4.605  19.781  0.00  0.00    +0.000 A 
ATOM     23  O   UNL     1       2.055   3.793  20.422  0.00  0.00    +0.000 OA
ATOM     24  C   UNL     1       1.101   2.766  20.129  0.00  0.00    +0.000 C 
ATOM     25  C   UNL     1       0.688   2.804  18.666  0.00  0.00    +0.000 C 
ATOM     26  O   UNL     1       1.810   2.554  17.813  0.00  0.00    +0.000 OA
ENDBRANCH  15  17
ENDBRANCH  14  15
ENDBRANCH   1  14
TORSDOF 5
ENDMDL
MODEL 7
REMARK VINA RESULT:      -7.5      5.552      8.627
REMARK  Name = 
REMARK  7 active torsions:
REMARK  status: ('A' for Active; 'I' for Inactive)
REMARK    1  A    between atoms: C_1  and  C_2
REMARK    2  A    between atoms: C_4  and  C_5
REMARK    3  A    between atoms: C_7  and  N_8
REMARK    4  A    between atoms: C_9  and  C_11
REMARK    5  A    between atoms: C_11  and  O_12
REMARK    6  A    between atoms: O_12  and  C_13
REMARK    7  A    between atoms: C_13  and  C_15
REMARK                            x       y       z     vdW  Elec       q    Type
REMARK                         _______ _______ _______ _____ _____    ______ ____
ROOT
ATOM      1  C   UNL     1       8.235   9.366  18.032  0.00  0.00    +0.000 C 
ENDROOT
BRANCH   1   3
ATOM      2  N   UNL     1       6.691   7.733  17.058  0.00  0.00    +0.000 N 
ATOM      3  C   UNL     1       7.734   7.925  17.951  0.00  0.00    +0.000 C 
ATOM      4  O   UNL     1       8.272   7.065  18.647  0.00  0.00    +0.000 OA
ATOM      5  H   UNL     1       6.386   8.555  16.551  0.00  0.00    +0.000 HD
BRANCH   2  12
ATOM      6  C   UNL     1       6.196   3.786  14.118  0.00  0.00    +0.000 C 
ATOM      7  C   UNL     1       5.775   4.567  15.330  0.00  0.00    +0.000 A 
ATOM      8  C   UNL     1       4.742   4.094  16.148  0.00  0.00    +0.000 A 
ATOM      9  C   UNL     1       4.343   4.818  17.274  0.00  0.00    +0.000 A 
ATOM     10  C   UNL     1       3.239   4.334  18.166  0.00  0.00    +0.000 C 
ATOM     11  C   UNL     1       4.989   6.022  17.579  0.00  0.00    +0.000 A 
ATOM     12  C   UNL     1       6.022   6.518  16.780  0.00  0.00    +0.000 A 
ATOM     13  C   UNL     1       6.411   5.780  15.653  0.00  0.00    +0.000 A 
ENDBRANCH   2  12
ENDBRANCH   1   3
BRANCH   1  14
ATOM     14  O   UNL     1       9.386   9.508  18.866  0.00  0.00    +0.000 OA
BRANCH  14  15
ATOM     15  C   UNL     1       9.399  10.600  19.665  0.00  0.00    +0.000 C 
ATOM     16  O   UNL     1       9.099  10.635  20.846  0.00  0.00    +0.000 OA
BRANCH  15  17
ATOM     17  C   UNL     1       9.819  11.797  18.895  0.00  0.00    +0.000 A 
ATOM     18  C   UNL     1      10.858  11.643  17.965  0.00  0.00    +0.000 A 
ATOM     19  C   UNL     1      11.308  12.737  17.224  0.00  0.00    +0.000 A 
ATOM     20  C   UNL     1      10.731  13.989  17.417  0.00  0.00    +0.000 A 
ATOM     21  C   UNL     1       9.682  14.146  18.330  0.00  0.00    +0.000 A 
ATOM     22  C   UNL     1       9.228  13.056  19.072  0.00  0.00    +0.000 A 
ATOM     23  O   UNL     1       9.062  15.347  18.559  0.00  0.00    +0.000 OA
ATOM     24  C   UNL     1       9.362  16.302  17.535  0.00  0.00    +0.000 C 
ATOM     25  C   UNL     1      10.844  16.292  17.195  0.00  0.00    +0.000 C 
ATOM     26  O   UNL     1      11.239  15.019  16.673  0.00  0.00    +0.000 OA
ENDBRANCH  15  17
ENDBRANCH  14  15
ENDBRANCH   1  14
TORSDOF 5
ENDMDL
MODEL 8
REMARK VINA RESULT:      -7.5      1.335      1.868
REMARK  Name = 
REMARK  7 active torsions:
REMARK  status: ('A' for Active; 'I' for Inactive)
REMARK    1  A    between atoms: C_1  and  C_2
REMARK    2  A    between atoms: C_4  and  C_5
REMARK    3  A    between atoms: C_7  and  N_8
REMARK    4  A    between atoms: C_9  and  C_11
REMARK    5  A    between atoms: C_11  and  O_12
REMARK    6  A    between atoms: O_12  and  C_13
REMARK    7  A    between atoms: C_13  and  C_15
REMARK                            x       y       z     vdW  Elec       q    Type
REMARK                         _______ _______ _______ _____ _____    ______ ____
ROOT
ATOM      1  C   UNL     1       2.300   3.194  21.342  0.00  0.00    +0.000 C 
ENDROOT
BRANCH   1   3
ATOM      2  N   UNL     1       2.234   5.618  20.999  0.00  0.00    +0.000 N 
ATOM      3  C   UNL     1       1.566   4.419  20.800  0.00  0.00    +0.000 C 
ATOM      4  O   UNL     1       0.482   4.267  20.239  0.00  0.00    +0.000 OA
ATOM      5  H   UNL     1       3.132   5.553  21.464  0.00  0.00    +0.000 HD
BRANCH   2  12
ATOM      6  C   UNL     1       2.188   9.196  17.585  0.00  0.00    +0.000 C 
ATOM      7  C   UNL     1       1.773   8.677  18.931  0.00  0.00    +0.000 A 
ATOM      8  C   UNL     1       0.981   9.465  19.776  0.00  0.00    +0.000 A 
ATOM      9  C   UNL     1       0.595   8.990  21.031  0.00  0.00    +0.000 A 
ATOM     10  C   UNL     1      -0.253   9.814  21.954  0.00  0.00    +0.000 C 
ATOM     11  C   UNL     1       1.006   7.715  21.438  0.00  0.00    +0.000 A 
ATOM     12  C   UNL     1       1.798   6.908  20.617  0.00  0.00    +0.000 A 
ATOM     13  C   UNL     1       2.177   7.399  19.359  0.00  0.00    +0.000 A 
ENDBRANCH   2  12
ENDBRANCH   1   3
BRANCH   1  14
ATOM     14  O   UNL     1       3.476   2.875  20.595  0.00  0.00    +0.000 OA
BRANCH  14  15
ATOM     15  C   UNL     1       3.283   2.620  19.280  0.00  0.00    +0.000 C 
ATOM     16  O   UNL     1       2.411   1.914  18.801  0.00  0.00    +0.000 OA
BRANCH  15  17
ATOM     17  C   UNL     1       4.311   3.312  18.464  0.00  0.00    +0.000 A 
ATOM     18  C   UNL     1       5.267   4.085  19.139  0.00  0.00    +0.000 A 
ATOM     19  C   UNL     1       6.248   4.774  18.423  0.00  0.00    +0.000 A 
ATOM     20  C   UNL     1       6.270   4.703  17.034  0.00  0.00    +0.000 A 
ATOM     21  C   UNL     1       5.330   3.919  16.355  0.00  0.00    +0.000 A 
ATOM     22  C   UNL     1       4.348   3.228  17.065  0.00  0.00    +0.000 A 
ATOM     23  O   UNL     1       5.303   3.795  14.990  0.00  0.00    +0.000 OA
ATOM     24  C   UNL     1       6.521   4.256  14.393  0.00  0.00    +0.000 C 
ATOM     25  C   UNL     1       6.965   5.575  15.003  0.00  0.00    +0.000 C 
ATOM     26  O   UNL     1       7.246   5.423  16.399  0.00  0.00    +0.000 OA
ENDBRANCH  15  17
ENDBRANCH  14  15
ENDBRANCH   1  14
TORSDOF 5
ENDMDL
MODEL 9
REMARK VINA RESULT:      -7.4      4.293      7.640
REMARK  Name = 
REMARK  7 active torsions:
REMARK  status: ('A' for Active; 'I' for Inactive)
REMARK    1  A    between atoms: C_1  and  C_2
REMARK    2  A    between atoms: C_4  and  C_5
REMARK    3  A    between atoms: C_7  and  N_8
REMARK    4  A    between atoms: C_9  and  C_11
REMARK    5  A    between atoms: C_11  and  O_12
REMARK    6  A    between atoms: O_12  and  C_13
REMARK    7  A    between atoms: C_13  and  C_15
REMARK                            x       y       z     vdW  Elec       q    Type
REMARK                         _______ _______ _______ _____ _____    ______ ____
ROOT
ATOM      1  C   UNL     1       8.035   7.798  18.025  0.00  0.00    +0.000 C 
ENDROOT
BRANCH   1   3
ATOM      2  N   UNL     1       9.224   9.484  19.345  0.00  0.00    +0.000 N 
ATOM      3  C   UNL     1       8.381   9.266  18.265  0.00  0.00    +0.000 C 
ATOM      4  O   UNL     1       7.918  10.121  17.512  0.00  0.00    +0.000 OA
ATOM      5  H   UNL     1       9.526   8.656  19.844  0.00  0.00    +0.000 HD
BRANCH   2  12
ATOM      6  C   UNL     1       8.879  13.148  22.649  0.00  0.00    +0.000 C 
ATOM      7  C   UNL     1       9.536  12.541  21.443  0.00  0.00    +0.000 A 
ATOM      8  C   UNL     1      10.590  13.207  20.806  0.00  0.00    +0.000 A 
ATOM      9  C   UNL     1      11.203  12.650  19.682  0.00  0.00    +0.000 A 
ATOM     10  C   UNL     1      12.333  13.344  18.981  0.00  0.00    +0.000 C 
ATOM     11  C   UNL     1      10.754  11.416  19.197  0.00  0.00    +0.000 A 
ATOM     12  C   UNL     1       9.704  10.730  19.811  0.00  0.00    +0.000 A 
ATOM     13  C   UNL     1       9.099  11.301  20.940  0.00  0.00    +0.000 A 
ENDBRANCH   2  12
ENDBRANCH   1   3
BRANCH   1  14
ATOM     14  O   UNL     1       7.345   7.585  16.792  0.00  0.00    +0.000 OA
BRANCH  14  15
ATOM     15  C   UNL     1       6.991   6.304  16.534  0.00  0.00    +0.000 C 
ATOM     16  O   UNL     1       7.423   5.602  15.635  0.00  0.00    +0.000 OA
BRANCH  15  17
ATOM     17  C   UNL     1       5.959   5.850  17.498  0.00  0.00    +0.000 A 
ATOM     18  C   UNL     1       6.185   4.641  18.173  0.00  0.00    +0.000 A 
ATOM     19  C   UNL     1       5.241   4.154  19.079  0.00  0.00    +0.000 A 
ATOM     20  C   UNL     1       4.066   4.864  19.305  0.00  0.00    +0.000 A 
ATOM     21  C   UNL     1       3.842   6.079  18.648  0.00  0.00    +0.000 A 
ATOM     22  C   UNL     1       4.782   6.571  17.743  0.00  0.00    +0.000 A 
ATOM     23  O   UNL     1       2.713   6.835  18.834  0.00  0.00    +0.000 OA
ATOM     24  C   UNL     1       1.989   6.426  20.000  0.00  0.00    +0.000 C 
ATOM     25  C   UNL     1       1.882   4.912  20.075  0.00  0.00    +0.000 C 
ATOM     26  O   UNL     1       3.177   4.313  20.188  0.00  0.00    +0.000 OA
ENDBRANCH  15  17
ENDBRANCH  14  15
ENDBRANCH   1  14
TORSDOF 5
ENDMDL
