MODEL 1
REMARK VINA RESULT:      -7.9      0.000      0.000
REMARK  Name = 
REMARK  4 active torsions:
REMARK  status: ('A' for Active; 'I' for Inactive)
REMARK    1  A    between atoms: C_1  and  C_2
REMARK    2  A    between atoms: C_2  and  C_3
REMARK    3  A    between atoms: N_9  and  C_10
REMARK    4  A    between atoms: C_10  and  C_11
REMARK                            x       y       z     vdW  Elec       q    Type
REMARK                         _______ _______ _______ _____ _____    ______ ____
ROOT
ATOM      1  C   UNL     1       6.359   4.437  14.834  0.00  0.00    +0.000 A 
ATOM      2  C   UNL     1       7.398   4.829  15.688  0.00  0.00    +0.000 A 
ATOM      3  C   UNL     1       7.221   4.806  17.076  0.00  0.00    +0.000 A 
ATOM      4  C   UNL     1       6.014   4.378  17.632  0.00  0.00    +0.000 A 
ATOM      5  N   UNL     1       5.890   4.316  19.028  0.00  0.00    +0.000 NA
ATOM      6  C   UNL     1       4.785   3.847  19.503  0.00  0.00    +0.000 A 
ATOM      7  N   UNL     1       3.697   3.421  18.769  0.00  0.00    +0.000 N 
ATOM      8  C   UNL     1       3.699   3.586  17.386  0.00  0.00    +0.000 A 
ATOM      9  O   UNL     1       2.713   3.427  16.670  0.00  0.00    +0.000 OA
ATOM     10  C   UNL     1       4.976   4.015  16.783  0.00  0.00    +0.000 A 
ATOM     11  C   UNL     1       5.138   4.039  15.392  0.00  0.00    +0.000 A 
ENDROOT
BRANCH   7  12
ATOM     12  C   UNL     1       2.443   2.962  19.468  0.00  0.00    +0.000 C 
ATOM     13  C   UNL     1       1.891   1.726  18.763  0.00  0.00    +0.000 C 
ATOM     14  C   UNL     1       2.541   2.849  21.026  0.00  0.00    +0.000 C 
ATOM     15  C   UNL     1       1.156   3.518  21.121  0.00  0.00    +0.000 C 
ATOM     16  C   UNL     1       1.400   4.099  19.722  0.00  0.00    +0.000 C 
ENDBRANCH   7  12
BRANCH   1  18
ATOM     17  C   UNL     1       5.573   3.429  12.685  0.00  0.00    +0.000 C 
ATOM     18  C   UNL     1       6.556   4.386  13.341  0.00  0.00    +0.000 C 
ENDBRANCH   1  18
TORSDOF 2
ENDMDL
MODEL 2
REMARK VINA RESULT:      -7.8      1.501      1.727
REMARK  Name = 
REMARK  4 active torsions:
REMARK  status: ('A' for Active; 'I' for Inactive)
REMARK    1  A    between atoms: C_1  and  C_2
REMARK    2  A    between atoms: C_2  and  C_3
REMARK    3  A    between atoms: N_9  and  C_10
REMARK    4  A    between atoms: C_10  and  C_11
REMARK                            x       y       z     vdW  Elec       q    Type
REMARK                         _______ _______ _______ _____ _____    ______ ____
ROOT
ATOM      1  C   UNL     1       5.853   4.930  15.262  0.00  0.00    +0.000 A 
ATOM      2  C   UNL     1       5.712   6.303  15.505  0.00  0.00    +0.000 A 
ATOM      3  C   UNL     1       4.818   6.762  16.479  0.00  0.00    +0.000 A 
ATOM      4  C   UNL     1       4.064   5.860  17.232  0.00  0.00    +0.000 A 
ATOM      5  N   UNL     1       3.217   6.352  18.237  0.00  0.00    +0.000 NA
ATOM      6  C   UNL     1       2.591   5.485  18.960  0.00  0.00    +0.000 A 
ATOM      7  N   UNL     1       2.654   4.113  18.826  0.00  0.00    +0.000 N 
ATOM      8  C   UNL     1       3.364   3.563  17.761  0.00  0.00    +0.000 A 
ATOM      9  O   UNL     1       3.318   2.377  17.439  0.00  0.00    +0.000 OA
ATOM     10  C   UNL     1       4.185   4.501  16.971  0.00  0.00    +0.000 A 
ATOM     11  C   UNL     1       5.071   4.029  15.996  0.00  0.00    +0.000 A 
ENDROOT
BRANCH   7  12
ATOM     12  C   UNL     1       1.808   3.225  19.703  0.00  0.00    +0.000 C 
ATOM     13  C   UNL     1       0.804   2.466  18.839  0.00  0.00    +0.000 C 
ATOM     14  C   UNL     1       2.593   2.348  20.734  0.00  0.00    +0.000 C 
ATOM     15  C   UNL     1       1.535   2.716  21.792  0.00  0.00    +0.000 C 
ATOM     16  C   UNL     1       1.196   3.951  20.945  0.00  0.00    +0.000 C 
ENDBRANCH   7  12
BRANCH   1  18
ATOM     17  C   UNL     1       6.183   3.741  13.087  0.00  0.00    +0.000 C 
ATOM     18  C   UNL     1       6.863   4.415  14.269  0.00  0.00    +0.000 C 
ENDBRANCH   1  18
TORSDOF 2
ENDMDL
MODEL 3
REMARK VINA RESULT:      -7.8      1.432      1.666
REMARK  Name = 
REMARK  4 active torsions:
REMARK  status: ('A' for Active; 'I' for Inactive)
REMARK    1  A    between atoms: C_1  and  C_2
REMARK    2  A    between atoms: C_2  and  C_3
REMARK    3  A    between atoms: N_9  and  C_10
REMARK    4  A    between atoms: C_10  and  C_11
REMARK                            x       y       z     vdW  Elec       q    Type
REMARK                         _______ _______ _______ _____ _____    ______ ____
ROOT
ATOM      1  C   UNL     1       5.722   4.575  14.837  0.00  0.00    +0.000 A 
ATOM      2  C   UNL     1       5.633   5.960  15.032  0.00  0.00    +0.000 A 
ATOM      3  C   UNL     1       5.022   6.476  16.181  0.00  0.00    +0.000 A 
ATOM      4  C   UNL     1       4.507   5.620  17.157  0.00  0.00    +0.000 A 
ATOM      5  N   UNL     1       3.951   6.171  18.321  0.00  0.00    +0.000 NA
ATOM      6  C   UNL     1       3.550   5.349  19.232  0.00  0.00    +0.000 A 
ATOM      7  N   UNL     1       3.593   3.971  19.162  0.00  0.00    +0.000 N 
ATOM      8  C   UNL     1       4.003   3.359  17.980  0.00  0.00    +0.000 A 
ATOM      9  O   UNL     1       3.888   2.157  17.749  0.00  0.00    +0.000 OA
ATOM     10  C   UNL     1       4.572   4.248  16.949  0.00  0.00    +0.000 A 
ATOM     11  C   UNL     1       5.174   3.719  15.801  0.00  0.00    +0.000 A 
ENDROOT
BRANCH   7  12
ATOM     12  C   UNL     1       3.022   3.137  20.280  0.00  0.00    +0.000 C 
ATOM     13  C   UNL     1       4.088   2.172  20.791  0.00  0.00    +0.000 C 
ATOM     14  C   UNL     1       2.257   3.930  21.392  0.00  0.00    +0.000 C 
ATOM     15  C   UNL     1       1.166   2.843  21.360  0.00  0.00    +0.000 C 
ATOM     16  C   UNL     1       1.642   2.482  19.947  0.00  0.00    +0.000 C 
ENDBRANCH   7  12
BRANCH   1  18
ATOM     17  C   UNL     1       5.457   3.493  12.598  0.00  0.00    +0.000 C 
ATOM     18  C   UNL     1       6.439   4.002  13.643  0.00  0.00    +0.000 C 
ENDBRANCH   1  18
TORSDOF 2
ENDMDL
MODEL 4
REMARK VINA RESULT:      -7.6      0.468      1.166
REMARK  Name = 
REMARK  4 active torsions:
REMARK  status: ('A' for Active; 'I' for Inactive)
REMARK    1  A    between atoms: C_1  and  C_2
REMARK    2  A    between atoms: C_2  and  C_3
REMARK    3  A    between atoms: N_9  and  C_10
REMARK    4  A    between atoms: C_10  and  C_11
REMARK                            x       y       z     vdW  Elec       q    Type
REMARK                         _______ _______ _______ _____ _____    ______ ____
ROOT
ATOM      1  C   UNL     1       6.416   4.472  14.854  0.00  0.00    +0.000 A 
ATOM      2  C   UNL     1       7.475   4.851  15.689  0.00  0.00    +0.000 A 
ATOM      3  C   UNL     1       7.320   4.839  17.080  0.00  0.00    +0.000 A 
ATOM      4  C   UNL     1       6.115   4.434  17.657  0.00  0.00    +0.000 A 
ATOM      5  N   UNL     1       6.012   4.381  19.055  0.00  0.00    +0.000 NA
ATOM      6  C   UNL     1       4.908   3.934  19.551  0.00  0.00    +0.000 A 
ATOM      7  N   UNL     1       3.802   3.522  18.837  0.00  0.00    +0.000 N 
ATOM      8  C   UNL     1       3.784   3.679  17.453  0.00  0.00    +0.000 A 
ATOM      9  O   UNL     1       2.784   3.533  16.754  0.00  0.00    +0.000 OA
ATOM     10  C   UNL     1       5.057   4.084  16.827  0.00  0.00    +0.000 A 
ATOM     11  C   UNL     1       5.197   4.098  15.434  0.00  0.00    +0.000 A 
ENDROOT
BRANCH   7  12
ATOM     12  C   UNL     1       2.551   3.087  19.559  0.00  0.00    +0.000 C 
ATOM     13  C   UNL     1       2.862   2.891  21.041  0.00  0.00    +0.000 C 
ATOM     14  C   UNL     1       1.269   3.931  19.256  0.00  0.00    +0.000 C 
ATOM     15  C   UNL     1       0.474   2.614  19.160  0.00  0.00    +0.000 C 
ATOM     16  C   UNL     1       1.801   1.897  18.877  0.00  0.00    +0.000 C 
ENDBRANCH   7  12
BRANCH   1  18
ATOM     17  C   UNL     1       5.616   3.422  12.730  0.00  0.00    +0.000 C 
ATOM     18  C   UNL     1       6.587   4.410  13.358  0.00  0.00    +0.000 C 
ENDBRANCH   1  18
TORSDOF 2
ENDMDL
MODEL 5
REMARK VINA RESULT:      -7.5      0.900      1.507
REMARK  Name = 
REMARK  4 active torsions:
REMARK  status: ('A' for Active; 'I' for Inactive)
REMARK    1  A    between atoms: C_1  and  C_2
REMARK    2  A    between atoms: C_2  and  C_3
REMARK    3  A    between atoms: N_9  and  C_10
REMARK    4  A    between atoms: C_10  and  C_11
REMARK                            x       y       z     vdW  Elec       q    Type
REMARK                         _______ _______ _______ _____ _____    ______ ____
ROOT
ATOM      1  C   UNL     1       5.969   4.206  14.927  0.00  0.00    +0.000 A 
ATOM      2  C   UNL     1       7.123   4.661  15.580  0.00  0.00    +0.000 A 
ATOM      3  C   UNL     1       7.081   5.000  16.937  0.00  0.00    +0.000 A 
ATOM      4  C   UNL     1       5.896   4.876  17.664  0.00  0.00    +0.000 A 
ATOM      5  N   UNL     1       5.903   5.173  19.036  0.00  0.00    +0.000 NA
ATOM      6  C   UNL     1       4.808   4.978  19.690  0.00  0.00    +0.000 A 
ATOM      7  N   UNL     1       3.614   4.526  19.164  0.00  0.00    +0.000 N 
ATOM      8  C   UNL     1       3.498   4.347  17.788  0.00  0.00    +0.000 A 
ATOM      9  O   UNL     1       2.435   4.143  17.205  0.00  0.00    +0.000 OA
ATOM     10  C   UNL     1       4.747   4.451  17.009  0.00  0.00    +0.000 A 
ATOM     11  C   UNL     1       4.773   4.114  15.650  0.00  0.00    +0.000 A 
ENDROOT
BRANCH   7  12
ATOM     12  C   UNL     1       2.394   4.414  20.042  0.00  0.00    +0.000 C 
ATOM     13  C   UNL     1       1.887   5.811  20.391  0.00  0.00    +0.000 C 
ATOM     14  C   UNL     1       1.296   3.415  19.547  0.00  0.00    +0.000 C 
ATOM     15  C   UNL     1       1.159   2.910  20.996  0.00  0.00    +0.000 C 
ATOM     16  C   UNL     1       2.570   3.451  21.261  0.00  0.00    +0.000 C 
ENDBRANCH   7  12
BRANCH   1  18
ATOM     17  C   UNL     1       7.164   4.424  12.741  0.00  0.00    +0.000 C 
ATOM     18  C   UNL     1       6.012   3.768  13.486  0.00  0.00    +0.000 C 
ENDBRANCH   1  18
TORSDOF 2
ENDMDL
MODEL 6
REMARK VINA RESULT:      -7.4      1.914      3.401
REMARK  Name = 
REMARK  4 active torsions:
REMARK  status: ('A' for Active; 'I' for Inactive)
REMARK    1  A    between atoms: C_1  and  C_2
REMARK    2  A    between atoms: C_2  and  C_3
REMARK    3  A    between atoms: N_9  and  C_10
REMARK    4  A    between atoms: C_10  and  C_11
REMARK                            x       y       z     vdW  Elec       q    Type
REMARK                         _______ _______ _______ _____ _____    ______ ____
ROOT
ATOM      1  C   UNL     1       5.773   3.461  12.475  0.00  0.00    +0.000 A 
ATOM      2  C   UNL     1       6.933   4.205  12.223  0.00  0.00    +0.000 A 
ATOM      3  C   UNL     1       7.521   4.967  13.239  0.00  0.00    +0.000 A 
ATOM      4  C   UNL     1       6.969   4.987  14.522  0.00  0.00    +0.000 A 
ATOM      5  N   UNL     1       7.615   5.718  15.530  0.00  0.00    +0.000 NA
ATOM      6  C   UNL     1       7.117   5.654  16.719  0.00  0.00    +0.000 A 
ATOM      7  N   UNL     1       5.989   4.952  17.094  0.00  0.00    +0.000 N 
ATOM      8  C   UNL     1       5.222   4.319  16.118  0.00  0.00    +0.000 A 
ATOM      9  O   UNL     1       4.107   3.843  16.317  0.00  0.00    +0.000 OA
ATOM     10  C   UNL     1       5.804   4.270  14.762  0.00  0.00    +0.000 A 
ATOM     11  C   UNL     1       5.202   3.509  13.753  0.00  0.00    +0.000 A 
ENDROOT
BRANCH   7  12
ATOM     12  C   UNL     1       5.485   5.028  18.512  0.00  0.00    +0.000 C 
ATOM     13  C   UNL     1       6.614   5.491  19.430  0.00  0.00    +0.000 C 
ATOM     14  C   UNL     1       4.124   5.775  18.706  0.00  0.00    +0.000 C 
ATOM     15  C   UNL     1       3.689   4.652  19.666  0.00  0.00    +0.000 C 
ATOM     16  C   UNL     1       4.728   3.746  18.991  0.00  0.00    +0.000 C 
ENDBRANCH   7  12
BRANCH   1  18
ATOM     17  C   UNL     1       3.816   3.107  10.958  0.00  0.00    +0.000 C 
ATOM     18  C   UNL     1       5.168   2.579  11.414  0.00  0.00    +0.000 C 
ENDBRANCH   1  18
TORSDOF 2
ENDMDL
MODEL 7
REMARK VINA RESULT:      -7.4      0.951      1.170
REMARK  Name = 
REMARK  4 active torsions:
REMARK  status: ('A' for Active; 'I' for Inactive)
REMARK    1  A    between atoms: C_1  and  C_2
REMARK    2  A    between atoms: C_2  and  C_3
REMARK    3  A    between atoms: N_9  and  C_10
REMARK    4  A    between atoms: C_10  and  C_11
REMARK                            x       y       z     vdW  Elec       q    Type
REMARK                         _______ _______ _______ _____ _____    ______ ____
ROOT
ATOM      1  C   UNL     1       6.064   4.179  14.365  0.00  0.00    +0.000 A 
ATOM      2  C   UNL     1       7.097   4.969  14.887  0.00  0.00    +0.000 A 
ATOM      3  C   UNL     1       7.070   5.376  16.226  0.00  0.00    +0.000 A 
ATOM      4  C   UNL     1       6.024   4.987  17.066  0.00  0.00    +0.000 A 
ATOM      5  N   UNL     1       6.057   5.367  18.416  0.00  0.00    +0.000 NA
ATOM      6  C   UNL     1       5.111   4.929  19.177  0.00  0.00    +0.000 A 
ATOM      7  N   UNL     1       4.049   4.139  18.785  0.00  0.00    +0.000 N 
ATOM      8  C   UNL     1       3.879   3.843  17.435  0.00  0.00    +0.000 A 
ATOM      9  O   UNL     1       2.871   3.323  16.963  0.00  0.00    +0.000 OA
ATOM     10  C   UNL     1       4.988   4.226  16.539  0.00  0.00    +0.000 A 
ATOM     11  C   UNL     1       4.999   3.818  15.200  0.00  0.00    +0.000 A 
ENDROOT
BRANCH   7  12
ATOM     12  C   UNL     1       2.978   3.762  19.777  0.00  0.00    +0.000 C 
ATOM     13  C   UNL     1       3.392   2.492  20.515  0.00  0.00    +0.000 C 
ATOM     14  C   UNL     1       2.465   4.924  20.691  0.00  0.00    +0.000 C 
ATOM     15  C   UNL     1       1.028   4.420  20.456  0.00  0.00    +0.000 C 
ATOM     16  C   UNL     1       1.534   3.737  19.178  0.00  0.00    +0.000 C 
ENDBRANCH   7  12
BRANCH   1  18
ATOM     17  C   UNL     1       7.261   4.301  12.173  0.00  0.00    +0.000 C 
ATOM     18  C   UNL     1       6.113   3.672  12.947  0.00  0.00    +0.000 C 
ENDBRANCH   1  18
TORSDOF 2
ENDMDL
MODEL 8
REMARK VINA RESULT:      -7.1      1.783      2.269
REMARK  Name = 
REMARK  4 active torsions:
REMARK  status: ('A' for Active; 'I' for Inactive)
REMARK    1  A    between atoms: C_1  and  C_2
REMARK    2  A    between atoms: C_2  and  C_3
REMARK    3  A    between atoms: N_9  and  C_10
REMARK    4  A    between atoms: C_10  and  C_11
REMARK                            x       y       z     vdW  Elec       q    Type
REMARK                         _______ _______ _______ _____ _____    ______ ____
ROOT
ATOM      1  C   UNL     1       5.551   4.566  15.204  0.00  0.00    +0.000 A 
ATOM      2  C   UNL     1       5.685   5.960  15.143  0.00  0.00    +0.000 A 
ATOM      3  C   UNL     1       5.024   6.777  16.067  0.00  0.00    +0.000 A 
ATOM      4  C   UNL     1       4.234   6.217  17.073  0.00  0.00    +0.000 A 
ATOM      5  N   UNL     1       3.630   7.062  18.015  0.00  0.00    +0.000 NA
ATOM      6  C   UNL     1       2.966   6.505  18.971  0.00  0.00    +0.000 A 
ATOM      7  N   UNL     1       2.771   5.150  19.146  0.00  0.00    +0.000 N 
ATOM      8  C   UNL     1       3.223   4.263  18.172  0.00  0.00    +0.000 A 
ATOM      9  O   UNL     1       2.928   3.071  18.132  0.00  0.00    +0.000 OA
ATOM     10  C   UNL     1       4.080   4.837  17.115  0.00  0.00    +0.000 A 
ATOM     11  C   UNL     1       4.731   4.008  16.193  0.00  0.00    +0.000 A 
ENDROOT
BRANCH   7  12
ATOM     12  C   UNL     1       1.909   4.647  20.276  0.00  0.00    +0.000 C 
ATOM     13  C   UNL     1       1.300   5.834  21.018  0.00  0.00    +0.000 C 
ATOM     14  C   UNL     1       0.902   3.509  19.903  0.00  0.00    +0.000 C 
ATOM     15  C   UNL     1       1.297   2.787  21.206  0.00  0.00    +0.000 C 
ATOM     16  C   UNL     1       2.607   3.585  21.187  0.00  0.00    +0.000 C 
ENDBRANCH   7  12
BRANCH   1  18
ATOM     17  C   UNL     1       5.657   3.621  12.892  0.00  0.00    +0.000 C 
ATOM     18  C   UNL     1       6.312   3.668  14.264  0.00  0.00    +0.000 C 
ENDBRANCH   1  18
TORSDOF 2
ENDMDL
MODEL 9
REMARK VINA RESULT:      -7.0      2.753      3.399
REMARK  Name = 
REMARK  4 active torsions:
REMARK  status: ('A' for Active; 'I' for Inactive)
REMARK    1  A    between atoms: C_1  and  C_2
REMARK    2  A    between atoms: C_2  and  C_3
REMARK    3  A    between atoms: N_9  and  C_10
REMARK    4  A    between atoms: C_10  and  C_11
REMARK                            x       y       z     vdW  Elec       q    Type
REMARK                         _______ _______ _______ _____ _____    ______ ____
ROOT
ATOM      1  C   UNL     1       6.621   6.731  17.853  0.00  0.00    +0.000 A 
ATOM      2  C   UNL     1       5.729   7.475  17.069  0.00  0.00    +0.000 A 
ATOM      3  C   UNL     1       4.377   7.122  17.004  0.00  0.00    +0.000 A 
ATOM      4  C   UNL     1       3.892   6.033  17.732  0.00  0.00    +0.000 A 
ATOM      5  N   UNL     1       2.520   5.739  17.687  0.00  0.00    +0.000 NA
ATOM      6  C   UNL     1       2.098   4.771  18.428  0.00  0.00    +0.000 A 
ATOM      7  N   UNL     1       2.871   3.974  19.247  0.00  0.00    +0.000 N 
ATOM      8  C   UNL     1       4.256   4.119  19.232  0.00  0.00    +0.000 A 
ATOM      9  O   UNL     1       5.039   3.335  19.765  0.00  0.00    +0.000 OA
ATOM     10  C   UNL     1       4.782   5.280  18.487  0.00  0.00    +0.000 A 
ATOM     11  C   UNL     1       6.138   5.619  18.555  0.00  0.00    +0.000 A 
ENDROOT
BRANCH   7  12
ATOM     12  C   UNL     1       2.245   2.830  20.003  0.00  0.00    +0.000 C 
ATOM     13  C   UNL     1       2.252   1.578  19.129  0.00  0.00    +0.000 C 
ATOM     14  C   UNL     1       2.763   2.622  21.465  0.00  0.00    +0.000 C 
ATOM     15  C   UNL     1       1.303   2.407  21.909  0.00  0.00    +0.000 C 
ATOM     16  C   UNL     1       0.865   3.174  20.654  0.00  0.00    +0.000 C 
ENDBRANCH   7  12
BRANCH   1  18
ATOM     17  C   UNL     1       8.217   8.652  17.962  0.00  0.00    +0.000 C 
ATOM     18  C   UNL     1       8.064   7.139  17.991  0.00  0.00    +0.000 C 
ENDBRANCH   1  18
TORSDOF 2
ENDMDL
