MODEL 1
REMARK VINA RESULT:      -7.5      0.000      0.000
REMARK  Name = 
REMARK  8 active torsions:
REMARK  status: ('A' for Active; 'I' for Inactive)
REMARK    1  A    between atoms: C_1  and  C_2
REMARK    2  A    between atoms: C_2  and  C_3
REMARK    3  A    between atoms: C_2  and  C_4
REMARK    4  A    between atoms: C_4  and  C_5
REMARK    5  A    between atoms: C_5  and  N_6
REMARK    6  A    between atoms: C_12  and  C_13
REMARK    7  A    between atoms: C_13  and  C_14
REMARK    8  A    between atoms: N_16  and  C_17
REMARK                            x       y       z     vdW  Elec       q    Type
REMARK                         _______ _______ _______ _____ _____    ______ ____
ROOT
ATOM      1  N   UNL     1       5.360   5.643  18.098  0.00  0.00    +0.000 NA
ATOM      2  C   UNL     1       5.081   4.193  18.106  0.00  0.00    +0.000 C 
ATOM      3  C   UNL     1       5.114   3.557  16.714  0.00  0.00    +0.000 C 
ATOM      4  N   UNL     1       6.330   3.868  16.006  0.00  0.00    +0.000 N 
ATOM      5  C   UNL     1       6.849   5.137  16.068  0.00  0.00    +0.000 C 
ATOM      6  O   UNL     1       7.512   5.543  15.120  0.00  0.00    +0.000 OA
ATOM      7  C   UNL     1       6.662   5.924  17.399  0.00  0.00    +0.000 C 
ATOM      8  H   UNL     1       6.508   3.413  15.119  0.00  0.00    +0.000 HD
ENDROOT
BRANCH   1   9
ATOM      9  C   UNL     1       4.218   6.471  17.706  0.00  0.00    +0.000 C 
BRANCH   9  10
ATOM     10  C   UNL     1       2.875   5.980  18.291  0.00  0.00    +0.000 C 
BRANCH  10  12
ATOM     11  C   UNL     1       1.934   7.814  19.804  0.00  0.00    +0.000 C 
ATOM     12  C   UNL     1       2.588   6.433  19.742  0.00  0.00    +0.000 C 
ATOM     13  C   UNL     1       1.687   5.411  20.441  0.00  0.00    +0.000 C 
ENDBRANCH  10  12
ENDBRANCH   9  10
ENDBRANCH   1   9
BRANCH   7  14
ATOM     14  C   UNL     1       6.910   7.421  17.131  0.00  0.00    +0.000 C 
BRANCH  14  15
ATOM     15  C   UNL     1       7.971   7.998  18.036  0.00  0.00    +0.000 C 
ATOM     16  O   UNL     1       8.576   7.298  18.845  0.00  0.00    +0.000 OA
ATOM     17  N   UNL     1       8.077   9.377  17.911  0.00  0.00    +0.000 N 
ATOM     18  H   UNL     1       7.350   9.850  17.391  0.00  0.00    +0.000 HD
BRANCH  17  19
ATOM     19  C   UNL     1       9.028  10.193  18.553  0.00  0.00    +0.000 A 
ATOM     20  C   UNL     1       9.065  10.362  19.941  0.00  0.00    +0.000 A 
ATOM     21  C   UNL     1       9.995  11.223  20.524  0.00  0.00    +0.000 A 
ATOM     22  C   UNL     1      10.892  11.907  19.717  0.00  0.00    +0.000 A 
ATOM     23  F   UNL     1      11.766  12.756  20.275  0.00  0.00    +0.000 F 
ATOM     24  C   UNL     1      10.896  11.722  18.338  0.00  0.00    +0.000 A 
ATOM     25  C   UNL     1       9.973  10.852  17.757  0.00  0.00    +0.000 A 
ENDBRANCH  17  19
ENDBRANCH  14  15
ENDBRANCH   7  14
TORSDOF 6
ENDMDL
MODEL 2
REMARK VINA RESULT:      -7.3      2.122      3.897
REMARK  Name = 
REMARK  8 active torsions:
REMARK  status: ('A' for Active; 'I' for Inactive)
REMARK    1  A    between atoms: C_1  and  C_2
REMARK    2  A    between atoms: C_2  and  C_3
REMARK    3  A    between atoms: C_2  and  C_4
REMARK    4  A    between atoms: C_4  and  C_5
REMARK    5  A    between atoms: C_5  and  N_6
REMARK    6  A    between atoms: C_12  and  C_13
REMARK    7  A    between atoms: C_13  and  C_14
REMARK    8  A    between atoms: N_16  and  C_17
REMARK                            x       y       z     vdW  Elec       q    Type
REMARK                         _______ _______ _______ _____ _____    ______ ____
ROOT
ATOM      1  N   UNL     1       5.704   5.829  16.834  0.00  0.00    +0.000 NA
ATOM      2  C   UNL     1       4.449   5.129  17.173  0.00  0.00    +0.000 C 
ATOM      3  C   UNL     1       4.634   4.005  18.196  0.00  0.00    +0.000 C 
ATOM      4  N   UNL     1       5.336   4.453  19.371  0.00  0.00    +0.000 N 
ATOM      5  C   UNL     1       6.414   5.293  19.242  0.00  0.00    +0.000 C 
ATOM      6  O   UNL     1       7.292   5.252  20.098  0.00  0.00    +0.000 OA
ATOM      7  C   UNL     1       6.382   6.329  18.080  0.00  0.00    +0.000 C 
ATOM      8  H   UNL     1       5.421   3.823  20.159  0.00  0.00    +0.000 HD
ENDROOT
BRANCH   1   9
ATOM      9  C   UNL     1       6.549   5.113  15.875  0.00  0.00    +0.000 C 
BRANCH   9  10
ATOM     10  C   UNL     1       5.754   4.467  14.720  0.00  0.00    +0.000 C 
BRANCH  10  12
ATOM     11  C   UNL     1       5.760   3.481  12.361  0.00  0.00    +0.000 C 
ATOM     12  C   UNL     1       6.612   3.963  13.535  0.00  0.00    +0.000 C 
ATOM     13  C   UNL     1       7.553   5.074  13.061  0.00  0.00    +0.000 C 
ENDBRANCH  10  12
ENDBRANCH   9  10
ENDBRANCH   1   9
BRANCH   7  14
ATOM     14  C   UNL     1       7.810   6.854  17.840  0.00  0.00    +0.000 C 
BRANCH  14  15
ATOM     15  C   UNL     1       7.893   8.358  17.934  0.00  0.00    +0.000 C 
ATOM     16  O   UNL     1       7.140   9.084  17.289  0.00  0.00    +0.000 OA
ATOM     17  N   UNL     1       8.956   8.779  18.720  0.00  0.00    +0.000 N 
ATOM     18  H   UNL     1       9.638   8.082  18.986  0.00  0.00    +0.000 HD
BRANCH  17  19
ATOM     19  C   UNL     1       9.247  10.112  19.070  0.00  0.00    +0.000 A 
ATOM     20  C   UNL     1       9.159  10.585  20.384  0.00  0.00    +0.000 A 
ATOM     21  C   UNL     1       9.407  11.929  20.669  0.00  0.00    +0.000 A 
ATOM     22  C   UNL     1       9.751  12.794  19.642  0.00  0.00    +0.000 A 
ATOM     23  F   UNL     1       9.960  14.089  19.912  0.00  0.00    +0.000 F 
ATOM     24  C   UNL     1       9.881  12.333  18.335  0.00  0.00    +0.000 A 
ATOM     25  C   UNL     1       9.644  10.988  18.052  0.00  0.00    +0.000 A 
ENDBRANCH  17  19
ENDBRANCH  14  15
ENDBRANCH   7  14
TORSDOF 6
ENDMDL
MODEL 3
REMARK VINA RESULT:      -7.2      4.773      6.360
REMARK  Name = 
REMARK  8 active torsions:
REMARK  status: ('A' for Active; 'I' for Inactive)
REMARK    1  A    between atoms: C_1  and  C_2
REMARK    2  A    between atoms: C_2  and  C_3
REMARK    3  A    between atoms: C_2  and  C_4
REMARK    4  A    between atoms: C_4  and  C_5
REMARK    5  A    between atoms: C_5  and  N_6
REMARK    6  A    between atoms: C_12  and  C_13
REMARK    7  A    between atoms: C_13  and  C_14
REMARK    8  A    between atoms: N_16  and  C_17
REMARK                            x       y       z     vdW  Elec       q    Type
REMARK                         _______ _______ _______ _____ _____    ______ ____
ROOT
ATOM      1  N   UNL     1       5.022   5.279  18.637  0.00  0.00    +0.000 NA
ATOM      2  C   UNL     1       6.484   5.091  18.731  0.00  0.00    +0.000 C 
ATOM      3  C   UNL     1       7.171   4.965  17.369  0.00  0.00    +0.000 C 
ATOM      4  N   UNL     1       6.823   6.048  16.485  0.00  0.00    +0.000 N 
ATOM      5  C   UNL     1       5.526   6.494  16.433  0.00  0.00    +0.000 C 
ATOM      6  O   UNL     1       5.122   6.992  15.387  0.00  0.00    +0.000 OA
ATOM      7  C   UNL     1       4.698   6.450  17.750  0.00  0.00    +0.000 C 
ATOM      8  H   UNL     1       7.302   6.126  15.597  0.00  0.00    +0.000 HD
ENDROOT
BRANCH   1   9
ATOM      9  C   UNL     1       4.273   4.045  18.387  0.00  0.00    +0.000 C 
BRANCH   9  10
ATOM     10  C   UNL     1       3.374   3.624  19.569  0.00  0.00    +0.000 C 
BRANCH  10  12
ATOM     11  C   UNL     1       1.174   2.489  18.929  0.00  0.00    +0.000 C 
ATOM     12  C   UNL     1       1.854   3.797  19.331  0.00  0.00    +0.000 C 
ATOM     13  C   UNL     1       1.188   4.353  20.592  0.00  0.00    +0.000 C 
ENDBRANCH  10  12
ENDBRANCH   9  10
ENDBRANCH   1   9
BRANCH   7  14
ATOM     14  C   UNL     1       3.202   6.568  17.403  0.00  0.00    +0.000 C 
BRANCH  14  15
ATOM     15  C   UNL     1       2.567   7.798  18.006  0.00  0.00    +0.000 C 
ATOM     16  O   UNL     1       2.517   8.861  17.393  0.00  0.00    +0.000 OA
ATOM     17  N   UNL     1       2.174   7.595  19.322  0.00  0.00    +0.000 N 
ATOM     18  H   UNL     1       2.499   6.753  19.776  0.00  0.00    +0.000 HD
BRANCH  17  19
ATOM     19  C   UNL     1       1.477   8.518  20.125  0.00  0.00    +0.000 A 
ATOM     20  C   UNL     1       0.815   9.632  19.597  0.00  0.00    +0.000 A 
ATOM     21  C   UNL     1       0.183  10.545  20.442  0.00  0.00    +0.000 A 
ATOM     22  C   UNL     1       0.206  10.337  21.813  0.00  0.00    +0.000 A 
ATOM     23  F   UNL     1      -0.376  11.230  22.625  0.00  0.00    +0.000 F 
ATOM     24  C   UNL     1       0.825   9.215  22.354  0.00  0.00    +0.000 A 
ATOM     25  C   UNL     1       1.447   8.297  21.508  0.00  0.00    +0.000 A 
ENDBRANCH  17  19
ENDBRANCH  14  15
ENDBRANCH   7  14
TORSDOF 6
ENDMDL
MODEL 4
REMARK VINA RESULT:      -7.2      5.601      7.539
REMARK  Name = 
REMARK  8 active torsions:
REMARK  status: ('A' for Active; 'I' for Inactive)
REMARK    1  A    between atoms: C_1  and  C_2
REMARK    2  A    between atoms: C_2  and  C_3
REMARK    3  A    between atoms: C_2  and  C_4
REMARK    4  A    between atoms: C_4  and  C_5
REMARK    5  A    between atoms: C_5  and  N_6
REMARK    6  A    between atoms: C_12  and  C_13
REMARK    7  A    between atoms: C_13  and  C_14
REMARK    8  A    between atoms: N_16  and  C_17
REMARK                            x       y       z     vdW  Elec       q    Type
REMARK                         _______ _______ _______ _____ _____    ______ ____
ROOT
ATOM      1  N   UNL     1       3.164   4.045  17.875  0.00  0.00    +0.000 NA
ATOM      2  C   UNL     1       2.402   2.848  17.463  0.00  0.00    +0.000 C 
ATOM      3  C   UNL     1       1.804   2.071  18.639  0.00  0.00    +0.000 C 
ATOM      4  N   UNL     1       1.040   2.920  19.517  0.00  0.00    +0.000 N 
ATOM      5  C   UNL     1       1.512   4.170  19.836  0.00  0.00    +0.000 C 
ATOM      6  O   UNL     1       1.192   4.655  20.916  0.00  0.00    +0.000 OA
ATOM      7  C   UNL     1       2.317   4.934  18.744  0.00  0.00    +0.000 C 
ATOM      8  H   UNL     1       0.511   2.496  20.268  0.00  0.00    +0.000 HD
ENDROOT
BRANCH   1   9
ATOM      9  C   UNL     1       4.516   3.758  18.357  0.00  0.00    +0.000 C 
BRANCH   9  10
ATOM     10  C   UNL     1       5.625   4.346  17.457  0.00  0.00    +0.000 C 
BRANCH  10  12
ATOM     11  C   UNL     1       5.243   6.252  15.795  0.00  0.00    +0.000 C 
ATOM     12  C   UNL     1       5.171   4.743  16.031  0.00  0.00    +0.000 C 
ATOM     13  C   UNL     1       6.028   4.021  14.989  0.00  0.00    +0.000 C 
ENDBRANCH  10  12
ENDBRANCH   9  10
ENDBRANCH   1   9
BRANCH   7  14
ATOM     14  C   UNL     1       3.104   6.076  19.414  0.00  0.00    +0.000 C 
BRANCH  14  15
ATOM     15  C   UNL     1       2.332   7.373  19.432  0.00  0.00    +0.000 C 
ATOM     16  O   UNL     1       2.294   8.111  18.450  0.00  0.00    +0.000 OA
ATOM     17  N   UNL     1       1.798   7.650  20.682  0.00  0.00    +0.000 N 
ATOM     18  H   UNL     1       2.115   7.082  21.456  0.00  0.00    +0.000 HD
BRANCH  17  19
ATOM     19  C   UNL     1       0.958   8.736  20.998  0.00  0.00    +0.000 A 
ATOM     20  C   UNL     1       0.447   9.604  20.027  0.00  0.00    +0.000 A 
ATOM     21  C   UNL     1      -0.338  10.695  20.398  0.00  0.00    +0.000 A 
ATOM     22  C   UNL     1      -0.618  10.912  21.739  0.00  0.00    +0.000 A 
ATOM     23  F   UNL     1      -1.348  11.977  22.096  0.00  0.00    +0.000 F 
ATOM     24  C   UNL     1      -0.152  10.038  22.715  0.00  0.00    +0.000 A 
ATOM     25  C   UNL     1       0.624   8.940  22.343  0.00  0.00    +0.000 A 
ENDBRANCH  17  19
ENDBRANCH  14  15
ENDBRANCH   7  14
TORSDOF 6
ENDMDL
MODEL 5
REMARK VINA RESULT:      -7.2      2.126      3.988
REMARK  Name = 
REMARK  8 active torsions:
REMARK  status: ('A' for Active; 'I' for Inactive)
REMARK    1  A    between atoms: C_1  and  C_2
REMARK    2  A    between atoms: C_2  and  C_3
REMARK    3  A    between atoms: C_2  and  C_4
REMARK    4  A    between atoms: C_4  and  C_5
REMARK    5  A    between atoms: C_5  and  N_6
REMARK    6  A    between atoms: C_12  and  C_13
REMARK    7  A    between atoms: C_13  and  C_14
REMARK    8  A    between atoms: N_16  and  C_17
REMARK                            x       y       z     vdW  Elec       q    Type
REMARK                         _______ _______ _______ _____ _____    ______ ____
ROOT
ATOM      1  N   UNL     1       5.768   5.782  16.779  0.00  0.00    +0.000 NA
ATOM      2  C   UNL     1       4.509   5.080  17.101  0.00  0.00    +0.000 C 
ATOM      3  C   UNL     1       4.674   3.988  18.161  0.00  0.00    +0.000 C 
ATOM      4  N   UNL     1       5.335   4.476  19.344  0.00  0.00    +0.000 N 
ATOM      5  C   UNL     1       6.408   5.323  19.223  0.00  0.00    +0.000 C 
ATOM      6  O   UNL     1       7.259   5.316  20.106  0.00  0.00    +0.000 OA
ATOM      7  C   UNL     1       6.402   6.325  18.031  0.00  0.00    +0.000 C 
ATOM      8  H   UNL     1       5.402   3.870  20.151  0.00  0.00    +0.000 HD
ENDROOT
BRANCH   1   9
ATOM      9  C   UNL     1       6.648   5.048  15.868  0.00  0.00    +0.000 C 
BRANCH   9  10
ATOM     10  C   UNL     1       5.890   4.098  14.916  0.00  0.00    +0.000 C 
BRANCH  10  12
ATOM     11  C   UNL     1       5.578   3.589  12.430  0.00  0.00    +0.000 C 
ATOM     12  C   UNL     1       6.581   3.847  13.554  0.00  0.00    +0.000 C 
ATOM     13  C   UNL     1       7.464   5.042  13.187  0.00  0.00    +0.000 C 
ENDBRANCH  10  12
ENDBRANCH   9  10
ENDBRANCH   1   9
BRANCH   7  14
ATOM     14  C   UNL     1       7.831   6.858  17.820  0.00  0.00    +0.000 C 
BRANCH  14  15
ATOM     15  C   UNL     1       7.902   8.363  17.899  0.00  0.00    +0.000 C 
ATOM     16  O   UNL     1       7.154   9.077  17.235  0.00  0.00    +0.000 OA
ATOM     17  N   UNL     1       8.950   8.800  18.697  0.00  0.00    +0.000 N 
ATOM     18  H   UNL     1       9.633   8.110  18.981  0.00  0.00    +0.000 HD
BRANCH  17  19
ATOM     19  C   UNL     1       9.225  10.138  19.038  0.00  0.00    +0.000 A 
ATOM     20  C   UNL     1       9.583  11.102  18.089  0.00  0.00    +0.000 A 
ATOM     21  C   UNL     1       9.896  12.403  18.485  0.00  0.00    +0.000 A 
ATOM     22  C   UNL     1       9.843  12.739  19.829  0.00  0.00    +0.000 A 
ATOM     23  F   UNL     1      10.172  13.980  20.211  0.00  0.00    +0.000 F 
ATOM     24  C   UNL     1       9.452  11.805  20.783  0.00  0.00    +0.000 A 
ATOM     25  C   UNL     1       9.127  10.508  20.385  0.00  0.00    +0.000 A 
ENDBRANCH  17  19
ENDBRANCH  14  15
ENDBRANCH   7  14
TORSDOF 6
ENDMDL
MODEL 6
REMARK VINA RESULT:      -7.2      4.747      6.088
REMARK  Name = 
REMARK  8 active torsions:
REMARK  status: ('A' for Active; 'I' for Inactive)
REMARK    1  A    between atoms: C_1  and  C_2
REMARK    2  A    between atoms: C_2  and  C_3
REMARK    3  A    between atoms: C_2  and  C_4
REMARK    4  A    between atoms: C_4  and  C_5
REMARK    5  A    between atoms: C_5  and  N_6
REMARK    6  A    between atoms: C_12  and  C_13
REMARK    7  A    between atoms: C_13  and  C_14
REMARK    8  A    between atoms: N_16  and  C_17
REMARK                            x       y       z     vdW  Elec       q    Type
REMARK                         _______ _______ _______ _____ _____    ______ ____
ROOT
ATOM      1  N   UNL     1       5.093   5.160  18.693  0.00  0.00    +0.000 NA
ATOM      2  C   UNL     1       6.561   5.002  18.724  0.00  0.00    +0.000 C 
ATOM      3  C   UNL     1       7.196   4.924  17.333  0.00  0.00    +0.000 C 
ATOM      4  N   UNL     1       6.790   6.020  16.490  0.00  0.00    +0.000 N 
ATOM      5  C   UNL     1       5.483   6.439  16.500  0.00  0.00    +0.000 C 
ATOM      6  O   UNL     1       5.027   6.952  15.484  0.00  0.00    +0.000 OA
ATOM      7  C   UNL     1       4.709   6.345  17.849  0.00  0.00    +0.000 C 
ATOM      8  H   UNL     1       7.231   6.129  15.586  0.00  0.00    +0.000 HD
ENDROOT
BRANCH   1   9
ATOM      9  C   UNL     1       4.361   3.917  18.442  0.00  0.00    +0.000 C 
BRANCH   9  10
ATOM     10  C   UNL     1       3.804   3.264  19.725  0.00  0.00    +0.000 C 
BRANCH  10  12
ATOM     11  C   UNL     1       1.342   3.814  19.313  0.00  0.00    +0.000 C 
ATOM     12  C   UNL     1       2.517   3.913  20.287  0.00  0.00    +0.000 C 
ATOM     13  C   UNL     1       2.136   3.256  21.616  0.00  0.00    +0.000 C 
ENDBRANCH  10  12
ENDBRANCH   9  10
ENDBRANCH   1   9
BRANCH   7  14
ATOM     14  C   UNL     1       3.199   6.439  17.564  0.00  0.00    +0.000 C 
BRANCH  14  15
ATOM     15  C   UNL     1       2.528   7.524  18.370  0.00  0.00    +0.000 C 
ATOM     16  O   UNL     1       2.361   7.413  19.582  0.00  0.00    +0.000 OA
ATOM     17  N   UNL     1       2.052   8.555  17.572  0.00  0.00    +0.000 N 
ATOM     18  H   UNL     1       2.040   8.398  16.574  0.00  0.00    +0.000 HD
BRANCH  17  19
ATOM     19  C   UNL     1       1.459   9.747  18.032  0.00  0.00    +0.000 A 
ATOM     20  C   UNL     1       0.094   9.849  18.324  0.00  0.00    +0.000 A 
ATOM     21  C   UNL     1      -0.454  11.067  18.726  0.00  0.00    +0.000 A 
ATOM     22  C   UNL     1       0.366  12.180  18.844  0.00  0.00    +0.000 A 
ATOM     23  F   UNL     1      -0.166  13.356  19.202  0.00  0.00    +0.000 F 
ATOM     24  C   UNL     1       1.732  12.089  18.595  0.00  0.00    +0.000 A 
ATOM     25  C   UNL     1       2.281  10.867  18.204  0.00  0.00    +0.000 A 
ENDBRANCH  17  19
ENDBRANCH  14  15
ENDBRANCH   7  14
TORSDOF 6
ENDMDL
MODEL 7
REMARK VINA RESULT:      -7.2      4.732      6.182
REMARK  Name = 
REMARK  8 active torsions:
REMARK  status: ('A' for Active; 'I' for Inactive)
REMARK    1  A    between atoms: C_1  and  C_2
REMARK    2  A    between atoms: C_2  and  C_3
REMARK    3  A    between atoms: C_2  and  C_4
REMARK    4  A    between atoms: C_4  and  C_5
REMARK    5  A    between atoms: C_5  and  N_6
REMARK    6  A    between atoms: C_12  and  C_13
REMARK    7  A    between atoms: C_13  and  C_14
REMARK    8  A    between atoms: N_16  and  C_17
REMARK                            x       y       z     vdW  Elec       q    Type
REMARK                         _______ _______ _______ _____ _____    ______ ____
ROOT
ATOM      1  N   UNL     1       5.063   5.311  18.844  0.00  0.00    +0.000 NA
ATOM      2  C   UNL     1       6.522   5.114  18.954  0.00  0.00    +0.000 C 
ATOM      3  C   UNL     1       7.216   4.921  17.604  0.00  0.00    +0.000 C 
ATOM      4  N   UNL     1       6.883   5.966  16.670  0.00  0.00    +0.000 N 
ATOM      5  C   UNL     1       5.591   6.421  16.590  0.00  0.00    +0.000 C 
ATOM      6  O   UNL     1       5.198   6.875  15.520  0.00  0.00    +0.000 OA
ATOM      7  C   UNL     1       4.755   6.444  17.903  0.00  0.00    +0.000 C 
ATOM      8  H   UNL     1       7.368   6.000  15.782  0.00  0.00    +0.000 HD
ENDROOT
BRANCH   1   9
ATOM      9  C   UNL     1       4.304   4.074  18.644  0.00  0.00    +0.000 C 
BRANCH   9  10
ATOM     10  C   UNL     1       3.450   3.675  19.867  0.00  0.00    +0.000 C 
BRANCH  10  12
ATOM     11  C   UNL     1       1.426   3.437  18.323  0.00  0.00    +0.000 C 
ATOM     12  C   UNL     1       1.926   3.882  19.698  0.00  0.00    +0.000 C 
ATOM     13  C   UNL     1       1.170   3.118  20.788  0.00  0.00    +0.000 C 
ENDBRANCH  10  12
ENDBRANCH   9  10
ENDBRANCH   1   9
BRANCH   7  14
ATOM     14  C   UNL     1       3.262   6.560  17.542  0.00  0.00    +0.000 C 
BRANCH  14  15
ATOM     15  C   UNL     1       2.556   7.624  18.348  0.00  0.00    +0.000 C 
ATOM     16  O   UNL     1       2.351   7.486  19.551  0.00  0.00    +0.000 OA
ATOM     17  N   UNL     1       2.098   8.667  17.556  0.00  0.00    +0.000 N 
ATOM     18  H   UNL     1       2.121   8.531  16.554  0.00  0.00    +0.000 HD
BRANCH  17  19
ATOM     19  C   UNL     1       1.481   9.845  18.019  0.00  0.00    +0.000 A 
ATOM     20  C   UNL     1       2.185  11.035  18.231  0.00  0.00    +0.000 A 
ATOM     21  C   UNL     1       1.536  12.160  18.741  0.00  0.00    +0.000 A 
ATOM     22  C   UNL     1       0.182  12.094  19.031  0.00  0.00    +0.000 A 
ATOM     23  F   UNL     1      -0.434  13.165  19.548  0.00  0.00    +0.000 F 
ATOM     24  C   UNL     1      -0.544  10.932  18.790  0.00  0.00    +0.000 A 
ATOM     25  C   UNL     1       0.103   9.811  18.269  0.00  0.00    +0.000 A 
ENDBRANCH  17  19
ENDBRANCH  14  15
ENDBRANCH   7  14
TORSDOF 6
ENDMDL
MODEL 8
REMARK VINA RESULT:      -7.1      4.706      6.137
REMARK  Name = 
REMARK  8 active torsions:
REMARK  status: ('A' for Active; 'I' for Inactive)
REMARK    1  A    between atoms: C_1  and  C_2
REMARK    2  A    between atoms: C_2  and  C_3
REMARK    3  A    between atoms: C_2  and  C_4
REMARK    4  A    between atoms: C_4  and  C_5
REMARK    5  A    between atoms: C_5  and  N_6
REMARK    6  A    between atoms: C_12  and  C_13
REMARK    7  A    between atoms: C_13  and  C_14
REMARK    8  A    between atoms: N_16  and  C_17
REMARK                            x       y       z     vdW  Elec       q    Type
REMARK                         _______ _______ _______ _____ _____    ______ ____
ROOT
ATOM      1  N   UNL     1       5.494   5.001  18.746  0.00  0.00    +0.000 NA
ATOM      2  C   UNL     1       6.923   5.297  18.971  0.00  0.00    +0.000 C 
ATOM      3  C   UNL     1       7.860   4.531  18.034  0.00  0.00    +0.000 C 
ATOM      4  N   UNL     1       7.488   4.687  16.651  0.00  0.00    +0.000 N 
ATOM      5  C   UNL     1       6.164   4.649  16.293  0.00  0.00    +0.000 C 
ATOM      6  O   UNL     1       5.874   4.259  15.167  0.00  0.00    +0.000 OA
ATOM      7  C   UNL     1       5.130   5.226  17.304  0.00  0.00    +0.000 C 
ATOM      8  H   UNL     1       8.099   4.313  15.936  0.00  0.00    +0.000 HD
ENDROOT
BRANCH   1   9
ATOM      9  C   UNL     1       5.041   3.742  19.343  0.00  0.00    +0.000 C 
BRANCH   9  10
ATOM     10  C   UNL     1       3.886   3.923  20.352  0.00  0.00    +0.000 C 
BRANCH  10  12
ATOM     11  C   UNL     1       1.458   3.220  20.742  0.00  0.00    +0.000 C 
ATOM     12  C   UNL     1       2.875   2.752  20.408  0.00  0.00    +0.000 C 
ATOM     13  C   UNL     1       2.865   2.006  19.071  0.00  0.00    +0.000 C 
ENDBRANCH  10  12
ENDBRANCH   9  10
ENDBRANCH   1   9
BRANCH   7  14
ATOM     14  C   UNL     1       3.727   4.712  16.932  0.00  0.00    +0.000 C 
BRANCH  14  15
ATOM     15  C   UNL     1       2.629   5.485  17.621  0.00  0.00    +0.000 C 
ATOM     16  O   UNL     1       1.488   5.038  17.710  0.00  0.00    +0.000 OA
ATOM     17  N   UNL     1       3.042   6.750  18.014  0.00  0.00    +0.000 N 
ATOM     18  H   UNL     1       3.930   7.076  17.658  0.00  0.00    +0.000 HD
BRANCH  17  19
ATOM     19  C   UNL     1       2.280   7.674  18.754  0.00  0.00    +0.000 A 
ATOM     20  C   UNL     1       2.011   7.513  20.118  0.00  0.00    +0.000 A 
ATOM     21  C   UNL     1       1.206   8.431  20.793  0.00  0.00    +0.000 A 
ATOM     22  C   UNL     1       0.678   9.512  20.105  0.00  0.00    +0.000 A 
ATOM     23  F   UNL     1      -0.118  10.377  20.748  0.00  0.00    +0.000 F 
ATOM     24  C   UNL     1       0.966   9.711  18.759  0.00  0.00    +0.000 A 
ATOM     25  C   UNL     1       1.780   8.799  18.086  0.00  0.00    +0.000 A 
ENDBRANCH  17  19
ENDBRANCH  14  15
ENDBRANCH   7  14
TORSDOF 6
ENDMDL
MODEL 9
REMARK VINA RESULT:      -7.1      4.768      6.353
REMARK  Name = 
REMARK  8 active torsions:
REMARK  status: ('A' for Active; 'I' for Inactive)
REMARK    1  A    between atoms: C_1  and  C_2
REMARK    2  A    between atoms: C_2  and  C_3
REMARK    3  A    between atoms: C_2  and  C_4
REMARK    4  A    between atoms: C_4  and  C_5
REMARK    5  A    between atoms: C_5  and  N_6
REMARK    6  A    between atoms: C_12  and  C_13
REMARK    7  A    between atoms: C_13  and  C_14
REMARK    8  A    between atoms: N_16  and  C_17
REMARK                            x       y       z     vdW  Elec       q    Type
REMARK                         _______ _______ _______ _____ _____    ______ ____
ROOT
ATOM      1  N   UNL     1       5.106   5.323  18.731  0.00  0.00    +0.000 NA
ATOM      2  C   UNL     1       6.576   5.207  18.812  0.00  0.00    +0.000 C 
ATOM      3  C   UNL     1       7.256   5.095  17.445  0.00  0.00    +0.000 C 
ATOM      4  N   UNL     1       6.847   6.148  16.550  0.00  0.00    +0.000 N 
ATOM      5  C   UNL     1       5.530   6.530  16.505  0.00  0.00    +0.000 C 
ATOM      6  O   UNL     1       5.092   6.993  15.457  0.00  0.00    +0.000 OA
ATOM      7  C   UNL     1       4.717   6.465  17.832  0.00  0.00    +0.000 C 
ATOM      8  H   UNL     1       7.313   6.236  15.656  0.00  0.00    +0.000 HD
ENDROOT
BRANCH   1   9
ATOM      9  C   UNL     1       4.415   4.052  18.505  0.00  0.00    +0.000 C 
BRANCH   9  10
ATOM     10  C   UNL     1       3.839   3.430  19.796  0.00  0.00    +0.000 C 
BRANCH  10  12
ATOM     11  C   UNL     1       1.370   3.910  19.332  0.00  0.00    +0.000 C 
ATOM     12  C   UNL     1       2.532   4.081  20.311  0.00  0.00    +0.000 C 
ATOM     13  C   UNL     1       2.150   3.484  21.668  0.00  0.00    +0.000 C 
ENDBRANCH  10  12
ENDBRANCH   9  10
ENDBRANCH   1   9
BRANCH   7  14
ATOM     14  C   UNL     1       3.214   6.507  17.499  0.00  0.00    +0.000 C 
BRANCH  14  15
ATOM     15  C   UNL     1       2.534   7.731  18.062  0.00  0.00    +0.000 C 
ATOM     16  O   UNL     1       2.411   8.758  17.401  0.00  0.00    +0.000 OA
ATOM     17  N   UNL     1       2.190   7.574  19.398  0.00  0.00    +0.000 N 
ATOM     18  H   UNL     1       2.572   6.772  19.882  0.00  0.00    +0.000 HD
BRANCH  17  19
ATOM     19  C   UNL     1       1.470   8.498  20.178  0.00  0.00    +0.000 A 
ATOM     20  C   UNL     1       1.295   8.349  21.558  0.00  0.00    +0.000 A 
ATOM     21  C   UNL     1       0.528   9.266  22.277  0.00  0.00    +0.000 A 
ATOM     22  C   UNL     1      -0.056  10.336  21.616  0.00  0.00    +0.000 A 
ATOM     23  F   UNL     1      -0.816  11.200  22.301  0.00  0.00    +0.000 F 
ATOM     24  C   UNL     1       0.139  10.523  20.251  0.00  0.00    +0.000 A 
ATOM     25  C   UNL     1       0.915   9.612  19.535  0.00  0.00    +0.000 A 
ENDBRANCH  17  19
ENDBRANCH  14  15
ENDBRANCH   7  14
TORSDOF 6
ENDMDL
