MODEL 1
REMARK VINA RESULT:      -7.0      0.000      0.000
REMARK  Name = 
REMARK  9 active torsions:
REMARK  status: ('A' for Active; 'I' for Inactive)
REMARK    1  A    between atoms: C_1  and  O_2
REMARK    2  A    between atoms: O_2  and  C_3
REMARK    3  A    between atoms: C_5  and  C_6
REMARK    4  A    between atoms: C_7  and  C_8
REMARK    5  A    between atoms: N_15  and  C_16
REMARK    6  A    between atoms: C_19  and  O_20
REMARK    7  A    between atoms: O_20  and  C_21
REMARK    8  A    between atoms: C_22  and  O_23
REMARK    9  A    between atoms: O_23  and  C_24
REMARK                            x       y       z     vdW  Elec       q    Type
REMARK                         _______ _______ _______ _____ _____    ______ ____
ROOT
ATOM      1  C   UNL     1       6.537   5.210  18.776  0.00  0.00    +0.000 A 
ATOM      2  C   UNL     1       5.437   4.333  18.811  0.00  0.00    +0.000 A 
ATOM      3  C   UNL     1       4.863   3.836  17.642  0.00  0.00    +0.000 A 
ATOM      4  C   UNL     1       5.325   4.328  16.421  0.00  0.00    +0.000 A 
ATOM      5  C   UNL     1       6.401   5.237  16.358  0.00  0.00    +0.000 A 
ATOM      6  C   UNL     1       7.037   5.671  17.541  0.00  0.00    +0.000 A 
ENDROOT
BRANCH   1   8
ATOM      7  C   UNL     1       8.426   5.265  20.227  0.00  0.00    +0.000 C 
ATOM      8  O   UNL     1       7.094   5.684  19.937  0.00  0.00    +0.000 OA
ENDBRANCH   1   8
BRANCH   3   9
ATOM      9  C   UNL     1       3.892   2.725  17.719  0.00  0.00    +0.000 C 
ATOM     10  C   UNL     1       2.650   2.721  18.237  0.00  0.00    +0.000 C 
BRANCH  10  11
ATOM     11  C   UNL     1       2.014   3.926  18.756  0.00  0.00    +0.000 A 
ATOM     12  C   UNL     1       1.618   4.010  20.091  0.00  0.00    +0.000 A 
ATOM     13  C   UNL     1       1.375   5.254  20.683  0.00  0.00    +0.000 A 
ATOM     14  C   UNL     1       1.609   6.398  19.904  0.00  0.00    +0.000 A 
ATOM     15  C   UNL     1       1.857   6.315  18.529  0.00  0.00    +0.000 A 
ATOM     16  C   UNL     1       1.990   7.629  18.033  0.00  0.00    +0.000 A 
ATOM     17  C   UNL     1       2.026   8.471  19.120  0.00  0.00    +0.000 A 
ATOM     18  N   UNL     1       1.679   7.735  20.225  0.00  0.00    +0.000 N 
ATOM     19  C   UNL     1       1.556   8.318  21.542  0.00  0.00    +0.000 C 
ATOM     20  C   UNL     1       1.998   5.057  17.933  0.00  0.00    +0.000 A 
ENDBRANCH  10  11
ENDBRANCH   3   9
BRANCH   5  21
ATOM     21  O   UNL     1       6.689   5.618  15.067  0.00  0.00    +0.000 OA
ATOM     22  C   UNL     1       6.658   4.620  14.055  0.00  0.00    +0.000 C 
ENDBRANCH   5  21
BRANCH   6  23
ATOM     23  O   UNL     1       8.062   6.580  17.408  0.00  0.00    +0.000 OA
ATOM     24  C   UNL     1       7.751   7.965  17.507  0.00  0.00    +0.000 C 
ENDBRANCH   6  23
TORSDOF 5
ENDMDL
MODEL 2
REMARK VINA RESULT:      -6.8      0.453      2.526
REMARK  Name = 
REMARK  9 active torsions:
REMARK  status: ('A' for Active; 'I' for Inactive)
REMARK    1  A    between atoms: C_1  and  O_2
REMARK    2  A    between atoms: O_2  and  C_3
REMARK    3  A    between atoms: C_5  and  C_6
REMARK    4  A    between atoms: C_7  and  C_8
REMARK    5  A    between atoms: N_15  and  C_16
REMARK    6  A    between atoms: C_19  and  O_20
REMARK    7  A    between atoms: O_20  and  C_21
REMARK    8  A    between atoms: C_22  and  O_23
REMARK    9  A    between atoms: O_23  and  C_24
REMARK                            x       y       z     vdW  Elec       q    Type
REMARK                         _______ _______ _______ _____ _____    ______ ____
ROOT
ATOM      1  C   UNL     1       5.851   5.045  16.196  0.00  0.00    +0.000 A 
ATOM      2  C   UNL     1       5.033   3.909  16.343  0.00  0.00    +0.000 A 
ATOM      3  C   UNL     1       4.726   3.389  17.599  0.00  0.00    +0.000 A 
ATOM      4  C   UNL     1       5.353   3.948  18.714  0.00  0.00    +0.000 A 
ATOM      5  C   UNL     1       6.206   5.063  18.592  0.00  0.00    +0.000 A 
ATOM      6  C   UNL     1       6.446   5.641  17.327  0.00  0.00    +0.000 A 
ENDROOT
BRANCH   1   8
ATOM      7  C   UNL     1       6.921   4.723  14.093  0.00  0.00    +0.000 C 
ATOM      8  O   UNL     1       6.137   5.548  14.952  0.00  0.00    +0.000 OA
ENDBRANCH   1   8
BRANCH   3   9
ATOM      9  C   UNL     1       3.665   2.369  17.729  0.00  0.00    +0.000 C 
ATOM     10  C   UNL     1       2.429   2.495  18.244  0.00  0.00    +0.000 C 
BRANCH  10  11
ATOM     11  C   UNL     1       1.897   3.772  18.704  0.00  0.00    +0.000 A 
ATOM     12  C   UNL     1       1.481   3.943  20.024  0.00  0.00    +0.000 A 
ATOM     13  C   UNL     1       1.343   5.225  20.565  0.00  0.00    +0.000 A 
ATOM     14  C   UNL     1       1.701   6.313  19.752  0.00  0.00    +0.000 A 
ATOM     15  C   UNL     1       1.971   6.155  18.388  0.00  0.00    +0.000 A 
ATOM     16  C   UNL     1       2.239   7.431  17.849  0.00  0.00    +0.000 A 
ATOM     17  C   UNL     1       2.329   8.306  18.905  0.00  0.00    +0.000 A 
ATOM     18  N   UNL     1       1.890   7.648  20.027  0.00  0.00    +0.000 N 
ATOM     19  C   UNL     1       1.793   8.289  21.318  0.00  0.00    +0.000 C 
ATOM     20  C   UNL     1       2.007   4.868  17.840  0.00  0.00    +0.000 A 
ENDBRANCH  10  11
ENDBRANCH   3   9
BRANCH   5  21
ATOM     21  O   UNL     1       6.741   5.447  19.800  0.00  0.00    +0.000 OA
ATOM     22  C   UNL     1       8.155   5.435  19.937  0.00  0.00    +0.000 C 
ENDBRANCH   5  21
BRANCH   6  23
ATOM     23  O   UNL     1       7.311   6.709  17.277  0.00  0.00    +0.000 OA
ATOM     24  C   UNL     1       6.782   8.015  17.474  0.00  0.00    +0.000 C 
ENDBRANCH   6  23
TORSDOF 5
ENDMDL
MODEL 3
REMARK VINA RESULT:      -6.7      1.235      3.409
REMARK  Name = 
REMARK  9 active torsions:
REMARK  status: ('A' for Active; 'I' for Inactive)
REMARK    1  A    between atoms: C_1  and  O_2
REMARK    2  A    between atoms: O_2  and  C_3
REMARK    3  A    between atoms: C_5  and  C_6
REMARK    4  A    between atoms: C_7  and  C_8
REMARK    5  A    between atoms: N_15  and  C_16
REMARK    6  A    between atoms: C_19  and  O_20
REMARK    7  A    between atoms: O_20  and  C_21
REMARK    8  A    between atoms: C_22  and  O_23
REMARK    9  A    between atoms: O_23  and  C_24
REMARK                            x       y       z     vdW  Elec       q    Type
REMARK                         _______ _______ _______ _____ _____    ______ ____
ROOT
ATOM      1  C   UNL     1       5.675   5.620  16.554  0.00  0.00    +0.000 A 
ATOM      2  C   UNL     1       4.499   4.954  16.949  0.00  0.00    +0.000 A 
ATOM      3  C   UNL     1       4.216   4.709  18.292  0.00  0.00    +0.000 A 
ATOM      4  C   UNL     1       5.190   5.028  19.238  0.00  0.00    +0.000 A 
ATOM      5  C   UNL     1       6.393   5.661  18.867  0.00  0.00    +0.000 A 
ATOM      6  C   UNL     1       6.639   5.987  17.515  0.00  0.00    +0.000 A 
ENDROOT
BRANCH   1   8
ATOM      7  C   UNL     1       6.502   4.784  14.483  0.00  0.00    +0.000 C 
ATOM      8  O   UNL     1       5.934   5.859  15.228  0.00  0.00    +0.000 OA
ENDBRANCH   1   8
BRANCH   3   9
ATOM      9  C   UNL     1       2.867   4.250  18.682  0.00  0.00    +0.000 C 
ATOM     10  C   UNL     1       1.863   4.951  19.239  0.00  0.00    +0.000 C 
BRANCH  10  11
ATOM     11  C   UNL     1       1.947   6.388  19.474  0.00  0.00    +0.000 A 
ATOM     12  C   UNL     1       2.152   7.277  18.419  0.00  0.00    +0.000 A 
ATOM     13  C   UNL     1       1.852   8.635  18.566  0.00  0.00    +0.000 A 
ATOM     14  C   UNL     1       1.281   9.045  19.781  0.00  0.00    +0.000 A 
ATOM     15  C   UNL     1       1.216   8.190  20.888  0.00  0.00    +0.000 A 
ATOM     16  C   UNL     1       0.646   8.912  21.959  0.00  0.00    +0.000 A 
ATOM     17  C   UNL     1       0.194  10.105  21.447  0.00  0.00    +0.000 A 
ATOM     18  N   UNL     1       0.683  10.222  20.170  0.00  0.00    +0.000 N 
ATOM     19  C   UNL     1       0.451  11.388  19.350  0.00  0.00    +0.000 C 
ATOM     20  C   UNL     1       1.615   6.857  20.750  0.00  0.00    +0.000 A 
ENDBRANCH  10  11
ENDBRANCH   3   9
BRANCH   5  21
ATOM     21  O   UNL     1       7.228   5.869  19.941  0.00  0.00    +0.000 OA
ATOM     22  C   UNL     1       8.465   5.169  19.968  0.00  0.00    +0.000 C 
ENDBRANCH   5  21
BRANCH   6  23
ATOM     23  O   UNL     1       7.845   6.578  17.220  0.00  0.00    +0.000 OA
ATOM     24  C   UNL     1       7.984   7.976  17.449  0.00  0.00    +0.000 C 
ENDBRANCH   6  23
TORSDOF 5
ENDMDL
MODEL 4
REMARK VINA RESULT:      -6.5      2.614      5.558
REMARK  Name = 
REMARK  9 active torsions:
REMARK  status: ('A' for Active; 'I' for Inactive)
REMARK    1  A    between atoms: C_1  and  O_2
REMARK    2  A    between atoms: O_2  and  C_3
REMARK    3  A    between atoms: C_5  and  C_6
REMARK    4  A    between atoms: C_7  and  C_8
REMARK    5  A    between atoms: N_15  and  C_16
REMARK    6  A    between atoms: C_19  and  O_20
REMARK    7  A    between atoms: O_20  and  C_21
REMARK    8  A    between atoms: C_22  and  O_23
REMARK    9  A    between atoms: O_23  and  C_24
REMARK                            x       y       z     vdW  Elec       q    Type
REMARK                         _______ _______ _______ _____ _____    ______ ____
ROOT
ATOM      1  C   UNL     1       2.315   5.272  20.183  0.00  0.00    +0.000 A 
ATOM      2  C   UNL     1       2.442   4.315  19.159  0.00  0.00    +0.000 A 
ATOM      3  C   UNL     1       2.768   4.682  17.855  0.00  0.00    +0.000 A 
ATOM      4  C   UNL     1       2.844   6.042  17.553  0.00  0.00    +0.000 A 
ATOM      5  C   UNL     1       2.684   7.024  18.551  0.00  0.00    +0.000 A 
ATOM      6  C   UNL     1       2.440   6.646  19.890  0.00  0.00    +0.000 A 
ENDROOT
BRANCH   1   8
ATOM      7  C   UNL     1       2.100   3.501  21.762  0.00  0.00    +0.000 C 
ATOM      8  O   UNL     1       2.000   4.892  21.464  0.00  0.00    +0.000 OA
ENDBRANCH   1   8
BRANCH   3   9
ATOM      9  C   UNL     1       3.148   3.642  16.876  0.00  0.00    +0.000 C 
ATOM     10  C   UNL     1       4.273   3.538  16.145  0.00  0.00    +0.000 C 
BRANCH  10  11
ATOM     11  C   UNL     1       5.391   4.464  16.292  0.00  0.00    +0.000 A 
ATOM     12  C   UNL     1       5.432   5.658  15.573  0.00  0.00    +0.000 A 
ATOM     13  C   UNL     1       6.268   6.703  15.979  0.00  0.00    +0.000 A 
ATOM     14  C   UNL     1       7.001   6.522  17.163  0.00  0.00    +0.000 A 
ATOM     15  C   UNL     1       7.078   5.277  17.798  0.00  0.00    +0.000 A 
ATOM     16  C   UNL     1       7.929   5.414  18.916  0.00  0.00    +0.000 A 
ATOM     17  C   UNL     1       8.192   6.755  19.064  0.00  0.00    +0.000 A 
ATOM     18  N   UNL     1       7.727   7.395  17.942  0.00  0.00    +0.000 N 
ATOM     19  C   UNL     1       7.889   8.815  17.732  0.00  0.00    +0.000 C 
ATOM     20  C   UNL     1       6.309   4.213  17.316  0.00  0.00    +0.000 A 
ENDBRANCH  10  11
ENDBRANCH   3   9
BRANCH   5  21
ATOM     21  O   UNL     1       2.771   8.301  18.048  0.00  0.00    +0.000 OA
ATOM     22  C   UNL     1       1.561   8.975  17.728  0.00  0.00    +0.000 C 
ENDBRANCH   5  21
BRANCH   6  23
ATOM     23  O   UNL     1       2.266   7.655  20.807  0.00  0.00    +0.000 OA
ATOM     24  C   UNL     1       0.937   8.047  21.134  0.00  0.00    +0.000 C 
ENDBRANCH   6  23
TORSDOF 5
ENDMDL
MODEL 5
REMARK VINA RESULT:      -6.5      2.708      6.034
REMARK  Name = 
REMARK  9 active torsions:
REMARK  status: ('A' for Active; 'I' for Inactive)
REMARK    1  A    between atoms: C_1  and  O_2
REMARK    2  A    between atoms: O_2  and  C_3
REMARK    3  A    between atoms: C_5  and  C_6
REMARK    4  A    between atoms: C_7  and  C_8
REMARK    5  A    between atoms: N_15  and  C_16
REMARK    6  A    between atoms: C_19  and  O_20
REMARK    7  A    between atoms: O_20  and  C_21
REMARK    8  A    between atoms: C_22  and  O_23
REMARK    9  A    between atoms: O_23  and  C_24
REMARK                            x       y       z     vdW  Elec       q    Type
REMARK                         _______ _______ _______ _____ _____    ______ ____
ROOT
ATOM      1  C   UNL     1       2.495   7.000  18.868  0.00  0.00    +0.000 A 
ATOM      2  C   UNL     1       2.966   6.067  17.925  0.00  0.00    +0.000 A 
ATOM      3  C   UNL     1       2.914   4.696  18.167  0.00  0.00    +0.000 A 
ATOM      4  C   UNL     1       2.499   4.266  19.428  0.00  0.00    +0.000 A 
ATOM      5  C   UNL     1       2.058   5.180  20.406  0.00  0.00    +0.000 A 
ATOM      6  C   UNL     1       2.029   6.564  20.126  0.00  0.00    +0.000 A 
ENDROOT
BRANCH   1   8
ATOM      7  C   UNL     1       1.505   8.884  17.798  0.00  0.00    +0.000 C 
ATOM      8  O   UNL     1       2.547   8.347  18.610  0.00  0.00    +0.000 OA
ENDBRANCH   1   8
BRANCH   3   9
ATOM      9  C   UNL     1       3.169   3.748  17.063  0.00  0.00    +0.000 C 
ATOM     10  C   UNL     1       4.216   3.692  16.220  0.00  0.00    +0.000 C 
BRANCH  10  11
ATOM     11  C   UNL     1       5.370   4.575  16.345  0.00  0.00    +0.000 A 
ATOM     12  C   UNL     1       5.460   5.748  15.596  0.00  0.00    +0.000 A 
ATOM     13  C   UNL     1       6.338   6.768  15.977  0.00  0.00    +0.000 A 
ATOM     14  C   UNL     1       7.063   6.588  17.166  0.00  0.00    +0.000 A 
ATOM     15  C   UNL     1       7.089   5.357  17.833  0.00  0.00    +0.000 A 
ATOM     16  C   UNL     1       7.945   5.486  18.947  0.00  0.00    +0.000 A 
ATOM     17  C   UNL     1       8.262   6.819  19.062  0.00  0.00    +0.000 A 
ATOM     18  N   UNL     1       7.824   7.449  17.924  0.00  0.00    +0.000 N 
ATOM     19  C   UNL     1       8.043   8.856  17.678  0.00  0.00    +0.000 C 
ATOM     20  C   UNL     1       6.278   4.313  17.376  0.00  0.00    +0.000 A 
ENDBRANCH  10  11
ENDBRANCH   3   9
BRANCH   5  21
ATOM     21  O   UNL     1       1.714   4.560  21.585  0.00  0.00    +0.000 OA
ATOM     22  C   UNL     1       2.099   3.204  21.762  0.00  0.00    +0.000 C 
ENDBRANCH   5  21
BRANCH   6  23
ATOM     23  O   UNL     1       1.615   7.402  21.134  0.00  0.00    +0.000 OA
ATOM     24  C   UNL     1       0.257   7.827  21.141  0.00  0.00    +0.000 C 
ENDBRANCH   6  23
TORSDOF 5
ENDMDL
MODEL 6
REMARK VINA RESULT:      -6.4      1.217      3.291
REMARK  Name = 
REMARK  9 active torsions:
REMARK  status: ('A' for Active; 'I' for Inactive)
REMARK    1  A    between atoms: C_1  and  O_2
REMARK    2  A    between atoms: O_2  and  C_3
REMARK    3  A    between atoms: C_5  and  C_6
REMARK    4  A    between atoms: C_7  and  C_8
REMARK    5  A    between atoms: N_15  and  C_16
REMARK    6  A    between atoms: C_19  and  O_20
REMARK    7  A    between atoms: O_20  and  C_21
REMARK    8  A    between atoms: C_22  and  O_23
REMARK    9  A    between atoms: O_23  and  C_24
REMARK                            x       y       z     vdW  Elec       q    Type
REMARK                         _______ _______ _______ _____ _____    ______ ____
ROOT
ATOM      1  C   UNL     1       5.241   4.558  15.924  0.00  0.00    +0.000 A 
ATOM      2  C   UNL     1       4.115   3.994  16.554  0.00  0.00    +0.000 A 
ATOM      3  C   UNL     1       4.084   3.771  17.930  0.00  0.00    +0.000 A 
ATOM      4  C   UNL     1       5.250   4.004  18.660  0.00  0.00    +0.000 A 
ATOM      5  C   UNL     1       6.405   4.533  18.049  0.00  0.00    +0.000 A 
ATOM      6  C   UNL     1       6.404   4.839  16.670  0.00  0.00    +0.000 A 
ENDROOT
BRANCH   1   8
ATOM      7  C   UNL     1       5.879   3.782  13.765  0.00  0.00    +0.000 C 
ATOM      8  O   UNL     1       5.251   4.777  14.570  0.00  0.00    +0.000 OA
ENDBRANCH   1   8
BRANCH   3   9
ATOM      9  C   UNL     1       2.806   3.429  18.586  0.00  0.00    +0.000 C 
ATOM     10  C   UNL     1       1.951   4.232  19.245  0.00  0.00    +0.000 C 
BRANCH  10  11
ATOM     11  C   UNL     1       2.142   5.675  19.334  0.00  0.00    +0.000 A 
ATOM     12  C   UNL     1       2.367   6.441  18.190  0.00  0.00    +0.000 A 
ATOM     13  C   UNL     1       2.167   7.825  18.212  0.00  0.00    +0.000 A 
ATOM     14  C   UNL     1       1.674   8.390  19.399  0.00  0.00    +0.000 A 
ATOM     15  C   UNL     1       1.593   7.653  20.586  0.00  0.00    +0.000 A 
ATOM     16  C   UNL     1       1.117   8.514  21.598  0.00  0.00    +0.000 A 
ATOM     17  C   UNL     1       0.727   9.682  20.987  0.00  0.00    +0.000 A 
ATOM     18  N   UNL     1       1.174   9.639  19.689  0.00  0.00    +0.000 N 
ATOM     19  C   UNL     1       0.991  10.735  18.766  0.00  0.00    +0.000 C 
ATOM     20  C   UNL     1       1.894   6.287  20.567  0.00  0.00    +0.000 A 
ENDBRANCH  10  11
ENDBRANCH   3   9
BRANCH   5  21
ATOM     21  O   UNL     1       7.451   4.666  18.932  0.00  0.00    +0.000 OA
ATOM     22  C   UNL     1       7.501   5.840  19.733  0.00  0.00    +0.000 C 
ENDBRANCH   5  21
BRANCH   6  23
ATOM     23  O   UNL     1       7.573   5.326  16.133  0.00  0.00    +0.000 OA
ATOM     24  C   UNL     1       7.817   6.726  16.208  0.00  0.00    +0.000 C 
ENDBRANCH   6  23
TORSDOF 5
ENDMDL
MODEL 7
REMARK VINA RESULT:      -6.3      2.528      4.843
REMARK  Name = 
REMARK  9 active torsions:
REMARK  status: ('A' for Active; 'I' for Inactive)
REMARK    1  A    between atoms: C_1  and  O_2
REMARK    2  A    between atoms: O_2  and  C_3
REMARK    3  A    between atoms: C_5  and  C_6
REMARK    4  A    between atoms: C_7  and  C_8
REMARK    5  A    between atoms: N_15  and  C_16
REMARK    6  A    between atoms: C_19  and  O_20
REMARK    7  A    between atoms: O_20  and  C_21
REMARK    8  A    between atoms: C_22  and  O_23
REMARK    9  A    between atoms: O_23  and  C_24
REMARK                            x       y       z     vdW  Elec       q    Type
REMARK                         _______ _______ _______ _____ _____    ______ ____
ROOT
ATOM      1  C   UNL     1       2.411   4.325  18.502  0.00  0.00    +0.000 A 
ATOM      2  C   UNL     1       2.332   5.670  18.093  0.00  0.00    +0.000 A 
ATOM      3  C   UNL     1       3.465   6.478  18.022  0.00  0.00    +0.000 A 
ATOM      4  C   UNL     1       4.673   5.959  18.488  0.00  0.00    +0.000 A 
ATOM      5  C   UNL     1       4.774   4.627  18.939  0.00  0.00    +0.000 A 
ATOM      6  C   UNL     1       3.641   3.784  18.928  0.00  0.00    +0.000 A 
ENDROOT
BRANCH   1   8
ATOM      7  C   UNL     1       0.680   3.383  19.841  0.00  0.00    +0.000 C 
ATOM      8  O   UNL     1       1.285   3.542  18.559  0.00  0.00    +0.000 OA
ENDBRANCH   1   8
BRANCH   3   9
ATOM      9  C   UNL     1       3.387   7.788  17.345  0.00  0.00    +0.000 C 
ATOM     10  C   UNL     1       2.558   8.820  17.590  0.00  0.00    +0.000 C 
BRANCH  10  11
ATOM     11  C   UNL     1       1.609   8.815  18.697  0.00  0.00    +0.000 A 
ATOM     12  C   UNL     1       1.856   8.074  19.852  0.00  0.00    +0.000 A 
ATOM     13  C   UNL     1       1.173   8.359  21.039  0.00  0.00    +0.000 A 
ATOM     14  C   UNL     1       0.291   9.451  21.032  0.00  0.00    +0.000 A 
ATOM     15  C   UNL     1      -0.072  10.096  19.844  0.00  0.00    +0.000 A 
ATOM     16  C   UNL     1      -1.007  11.103  20.167  0.00  0.00    +0.000 A 
ATOM     17  C   UNL     1      -1.048  11.193  21.538  0.00  0.00    +0.000 A 
ATOM     18  N   UNL     1      -0.356  10.121  22.045  0.00  0.00    +0.000 N 
ATOM     19  C   UNL     1      -0.245   9.866  23.463  0.00  0.00    +0.000 C 
ATOM     20  C   UNL     1       0.551   9.729  18.646  0.00  0.00    +0.000 A 
ENDBRANCH  10  11
ENDBRANCH   3   9
BRANCH   5  21
ATOM     21  O   UNL     1       6.041   4.317  19.378  0.00  0.00    +0.000 OA
ATOM     22  C   UNL     1       7.075   5.265  19.150  0.00  0.00    +0.000 C 
ENDBRANCH   5  21
BRANCH   6  23
ATOM     23  O   UNL     1       3.804   2.506  19.408  0.00  0.00    +0.000 OA
ATOM     24  C   UNL     1       3.860   1.436  18.471  0.00  0.00    +0.000 C 
ENDBRANCH   6  23
TORSDOF 5
ENDMDL
MODEL 8
REMARK VINA RESULT:      -6.3      2.995      5.887
REMARK  Name = 
REMARK  9 active torsions:
REMARK  status: ('A' for Active; 'I' for Inactive)
REMARK    1  A    between atoms: C_1  and  O_2
REMARK    2  A    between atoms: O_2  and  C_3
REMARK    3  A    between atoms: C_5  and  C_6
REMARK    4  A    between atoms: C_7  and  C_8
REMARK    5  A    between atoms: N_15  and  C_16
REMARK    6  A    between atoms: C_19  and  O_20
REMARK    7  A    between atoms: O_20  and  C_21
REMARK    8  A    between atoms: C_22  and  O_23
REMARK    9  A    between atoms: O_23  and  C_24
REMARK                            x       y       z     vdW  Elec       q    Type
REMARK                         _______ _______ _______ _____ _____    ______ ____
ROOT
ATOM      1  C   UNL     1       2.309   6.820  19.819  0.00  0.00    +0.000 A 
ATOM      2  C   UNL     1       3.059   6.621  18.644  0.00  0.00    +0.000 A 
ATOM      3  C   UNL     1       3.170   7.614  17.673  0.00  0.00    +0.000 A 
ATOM      4  C   UNL     1       2.413   8.775  17.829  0.00  0.00    +0.000 A 
ATOM      5  C   UNL     1       1.623   8.985  18.977  0.00  0.00    +0.000 A 
ATOM      6  C   UNL     1       1.581   8.014  20.001  0.00  0.00    +0.000 A 
ENDROOT
BRANCH   1   8
ATOM      7  C   UNL     1       1.260   4.804  20.530  0.00  0.00    +0.000 C 
ATOM      8  O   UNL     1       2.216   5.834  20.768  0.00  0.00    +0.000 OA
ENDBRANCH   1   8
BRANCH   3   9
ATOM      9  C   UNL     1       4.167   7.471  16.592  0.00  0.00    +0.000 C 
ATOM     10  C   UNL     1       5.005   6.448  16.343  0.00  0.00    +0.000 C 
BRANCH  10  11
ATOM     11  C   UNL     1       4.982   5.211  17.115  0.00  0.00    +0.000 A 
ATOM     12  C   UNL     1       5.673   5.106  18.322  0.00  0.00    +0.000 A 
ATOM     13  C   UNL     1       5.353   4.098  19.238  0.00  0.00    +0.000 A 
ATOM     14  C   UNL     1       4.278   3.252  18.922  0.00  0.00    +0.000 A 
ATOM     15  C   UNL     1       3.686   3.258  17.653  0.00  0.00    +0.000 A 
ATOM     16  C   UNL     1       2.684   2.265  17.639  0.00  0.00    +0.000 A 
ATOM     17  C   UNL     1       2.540   1.815  18.930  0.00  0.00    +0.000 A 
ATOM     18  N   UNL     1       3.579   2.329  19.666  0.00  0.00    +0.000 N 
ATOM     19  C   UNL     1       3.776   2.013  21.062  0.00  0.00    +0.000 C 
ATOM     20  C   UNL     1       4.089   4.212  16.712  0.00  0.00    +0.000 A 
ENDBRANCH  10  11
ENDBRANCH   3   9
BRANCH   5  21
ATOM     21  O   UNL     1       0.937  10.178  18.930  0.00  0.00    +0.000 OA
ATOM     22  C   UNL     1      -0.335  10.190  18.296  0.00  0.00    +0.000 C 
ENDBRANCH   5  21
BRANCH   6  23
ATOM     23  O   UNL     1       0.768   8.271  21.080  0.00  0.00    +0.000 OA
ATOM     24  C   UNL     1       1.297   9.038  22.155  0.00  0.00    +0.000 C 
ENDBRANCH   6  23
TORSDOF 5
ENDMDL
MODEL 9
REMARK VINA RESULT:      -6.3      4.794      7.568
REMARK  Name = 
REMARK  9 active torsions:
REMARK  status: ('A' for Active; 'I' for Inactive)
REMARK    1  A    between atoms: C_1  and  O_2
REMARK    2  A    between atoms: O_2  and  C_3
REMARK    3  A    between atoms: C_5  and  C_6
REMARK    4  A    between atoms: C_7  and  C_8
REMARK    5  A    between atoms: N_15  and  C_16
REMARK    6  A    between atoms: C_19  and  O_20
REMARK    7  A    between atoms: O_20  and  C_21
REMARK    8  A    between atoms: C_22  and  O_23
REMARK    9  A    between atoms: O_23  and  C_24
REMARK                            x       y       z     vdW  Elec       q    Type
REMARK                         _______ _______ _______ _____ _____    ______ ____
ROOT
ATOM      1  C   UNL     1      -0.044  10.775  20.430  0.00  0.00    +0.000 A 
ATOM      2  C   UNL     1       1.096  10.160  19.876  0.00  0.00    +0.000 A 
ATOM      3  C   UNL     1       1.101   9.677  18.569  0.00  0.00    +0.000 A 
ATOM      4  C   UNL     1      -0.096   9.701  17.854  0.00  0.00    +0.000 A 
ATOM      5  C   UNL     1      -1.263  10.276  18.396  0.00  0.00    +0.000 A 
ATOM      6  C   UNL     1      -1.242  10.844  19.689  0.00  0.00    +0.000 A 
ENDROOT
BRANCH   1   8
ATOM      7  C   UNL     1      -0.405  10.335  22.742  0.00  0.00    +0.000 C 
ATOM      8  O   UNL     1      -0.029  11.251  21.716  0.00  0.00    +0.000 OA
ENDBRANCH   1   8
BRANCH   3   9
ATOM      9  C   UNL     1       2.379   9.282  17.941  0.00  0.00    +0.000 C 
ATOM     10  C   UNL     1       2.942   8.062  17.863  0.00  0.00    +0.000 C 
BRANCH  10  11
ATOM     11  C   UNL     1       2.278   6.860  18.352  0.00  0.00    +0.000 A 
ATOM     12  C   UNL     1       1.761   5.916  17.465  0.00  0.00    +0.000 A 
ATOM     13  C   UNL     1       1.482   4.615  17.896  0.00  0.00    +0.000 A 
ATOM     14  C   UNL     1       1.804   4.289  19.223  0.00  0.00    +0.000 A 
ATOM     15  C   UNL     1       2.179   5.268  20.151  0.00  0.00    +0.000 A 
ATOM     16  C   UNL     1       2.378   4.631  21.395  0.00  0.00    +0.000 A 
ATOM     17  C   UNL     1       2.323   3.276  21.170  0.00  0.00    +0.000 A 
ATOM     18  N   UNL     1       1.864   3.087  19.890  0.00  0.00    +0.000 N 
ATOM     19  C   UNL     1       1.627   1.774  19.334  0.00  0.00    +0.000 C 
ATOM     20  C   UNL     1       2.357   6.587  19.722  0.00  0.00    +0.000 A 
ENDBRANCH  10  11
ENDBRANCH   3   9
BRANCH   5  21
ATOM     21  O   UNL     1      -2.339  10.180  17.545  0.00  0.00    +0.000 OA
ATOM     22  C   UNL     1      -2.353  11.012  16.392  0.00  0.00    +0.000 C 
ENDBRANCH   5  21
BRANCH   6  23
ATOM     23  O   UNL     1      -2.422  11.362  20.168  0.00  0.00    +0.000 OA
ATOM     24  C   UNL     1      -2.643  12.762  20.042  0.00  0.00    +0.000 C 
ENDBRANCH   6  23
TORSDOF 5
ENDMDL
