MODEL 1
REMARK VINA RESULT:      -7.7      0.000      0.000
REMARK  Name = 
REMARK  9 active torsions:
REMARK  status: ('A' for Active; 'I' for Inactive)
REMARK    1  A    between atoms: C_1  and  C_2
REMARK    2  A    between atoms: C_2  and  N_3
REMARK    3  A    between atoms: N_3  and  C_4
REMARK    4  A    between atoms: N_3  and  C_6
REMARK    5  A    between atoms: C_4  and  C_5
REMARK    6  A    between atoms: C_9  and  C_10
REMARK    7  A    between atoms: N_11  and  N_12
REMARK    8  A    between atoms: N_15  and  C_16
REMARK    9  A    between atoms: C_16  and  C_17
REMARK                            x       y       z     vdW  Elec       q    Type
REMARK                         _______ _______ _______ _____ _____    ______ ____
ROOT
ATOM      1  C   UNL     1       7.984   8.818  18.225  0.00  0.00    +0.000 C 
ATOM      2  N   UNL     1       7.944   8.145  17.116  0.00  0.00    +0.000 NA
ENDROOT
BRANCH   1   6
ATOM      3  C   UNL     1       9.946  12.585  18.692  0.00  0.00    +0.000 A 
ATOM      4  C   UNL     1      10.327  11.466  19.447  0.00  0.00    +0.000 A 
ATOM      5  C   UNL     1       9.708  10.228  19.292  0.00  0.00    +0.000 A 
ATOM      6  C   UNL     1       8.695  10.090  18.356  0.00  0.00    +0.000 A 
ATOM      7  C   UNL     1       8.301  11.167  17.566  0.00  0.00    +0.000 A 
ATOM      8  C   UNL     1       8.929  12.403  17.739  0.00  0.00    +0.000 A 
BRANCH   3   9
ATOM      9  N   UNL     1      10.558  13.815  18.890  0.00  0.00    +0.000 N 
BRANCH   9  11
ATOM     10  C   UNL     1      12.333  13.594  17.160  0.00  0.00    +0.000 C 
ATOM     11  C   UNL     1      11.987  13.962  18.593  0.00  0.00    +0.000 C 
ENDBRANCH   9  11
BRANCH   9  12
ATOM     12  C   UNL     1       9.783  14.972  19.344  0.00  0.00    +0.000 C 
ATOM     13  C   UNL     1       9.673  16.023  18.246  0.00  0.00    +0.000 C 
ENDBRANCH   9  12
ENDBRANCH   3   9
ENDBRANCH   1   6
BRANCH   2  14
ATOM     14  N   UNL     1       7.303   6.975  17.279  0.00  0.00    +0.000 N 
ATOM     15  C   UNL     1       5.849   6.923  17.085  0.00  0.00    +0.000 C 
ATOM     16  C   UNL     1       5.426   5.479  16.723  0.00  0.00    +0.000 C 
ATOM     17  N   UNL     1       5.908   4.419  17.651  0.00  0.00    +0.000 NA
ATOM     18  C   UNL     1       7.358   4.629  17.877  0.00  0.00    +0.000 C 
ATOM     19  C   UNL     1       7.714   6.052  18.346  0.00  0.00    +0.000 C 
BRANCH  17  20
ATOM     20  C   UNL     1       5.131   4.453  18.903  0.00  0.00    +0.000 C 
BRANCH  20  21
ATOM     21  C   UNL     1       3.749   3.844  18.809  0.00  0.00    +0.000 A 
ATOM     22  C   UNL     1       2.663   4.455  19.455  0.00  0.00    +0.000 A 
ATOM     23  C   UNL     1       1.378   3.922  19.342  0.00  0.00    +0.000 A 
ATOM     24  C   UNL     1       1.162   2.777  18.580  0.00  0.00    +0.000 A 
ATOM     25  C   UNL     1       2.235   2.154  17.940  0.00  0.00    +0.000 A 
ATOM     26  C   UNL     1       3.522   2.682  18.059  0.00  0.00    +0.000 A 
ENDBRANCH  20  21
ENDBRANCH  17  20
ENDBRANCH   2  14
TORSDOF 7
ENDMDL
MODEL 2
REMARK VINA RESULT:      -7.7      0.665      1.228
REMARK  Name = 
REMARK  9 active torsions:
REMARK  status: ('A' for Active; 'I' for Inactive)
REMARK    1  A    between atoms: C_1  and  C_2
REMARK    2  A    between atoms: C_2  and  N_3
REMARK    3  A    between atoms: N_3  and  C_4
REMARK    4  A    between atoms: N_3  and  C_6
REMARK    5  A    between atoms: C_4  and  C_5
REMARK    6  A    between atoms: C_9  and  C_10
REMARK    7  A    between atoms: N_11  and  N_12
REMARK    8  A    between atoms: N_15  and  C_16
REMARK    9  A    between atoms: C_16  and  C_17
REMARK                            x       y       z     vdW  Elec       q    Type
REMARK                         _______ _______ _______ _____ _____    ______ ____
ROOT
ATOM      1  C   UNL     1       8.295   8.947  18.447  0.00  0.00    +0.000 C 
ATOM      2  N   UNL     1       7.908   8.489  17.296  0.00  0.00    +0.000 NA
ENDROOT
BRANCH   1   6
ATOM      3  C   UNL     1      10.172  12.753  18.953  0.00  0.00    +0.000 A 
ATOM      4  C   UNL     1      10.429  11.690  19.832  0.00  0.00    +0.000 A 
ATOM      5  C   UNL     1       9.838  10.439  19.668  0.00  0.00    +0.000 A 
ATOM      6  C   UNL     1       8.981  10.231  18.600  0.00  0.00    +0.000 A 
ATOM      7  C   UNL     1       8.715  11.249  17.687  0.00  0.00    +0.000 A 
ATOM      8  C   UNL     1       9.313  12.499  17.870  0.00  0.00    +0.000 A 
BRANCH   3   9
ATOM      9  N   UNL     1      10.749  13.997  19.159  0.00  0.00    +0.000 N 
BRANCH   9  11
ATOM     10  C   UNL     1      12.108  15.207  17.461  0.00  0.00    +0.000 C 
ATOM     11  C   UNL     1      12.099  14.256  18.647  0.00  0.00    +0.000 C 
ENDBRANCH   9  11
BRANCH   9  12
ATOM     12  C   UNL     1      10.007  15.063  19.837  0.00  0.00    +0.000 C 
ATOM     13  C   UNL     1      10.541  15.292  21.247  0.00  0.00    +0.000 C 
ENDBRANCH   9  12
ENDBRANCH   3   9
ENDBRANCH   1   6
BRANCH   2  14
ATOM     14  N   UNL     1       7.383   7.257  17.415  0.00  0.00    +0.000 N 
ATOM     15  C   UNL     1       5.959   7.056  17.121  0.00  0.00    +0.000 C 
ATOM     16  C   UNL     1       5.713   5.578  16.731  0.00  0.00    +0.000 C 
ATOM     17  N   UNL     1       6.239   4.567  17.689  0.00  0.00    +0.000 NA
ATOM     18  C   UNL     1       7.641   4.925  18.013  0.00  0.00    +0.000 C 
ATOM     19  C   UNL     1       7.814   6.373  18.507  0.00  0.00    +0.000 C 
BRANCH  17  20
ATOM     20  C   UNL     1       5.380   4.511  18.884  0.00  0.00    +0.000 C 
BRANCH  20  21
ATOM     21  C   UNL     1       3.976   4.003  18.634  0.00  0.00    +0.000 A 
ATOM     22  C   UNL     1       3.767   2.675  18.231  0.00  0.00    +0.000 A 
ATOM     23  C   UNL     1       2.475   2.187  18.036  0.00  0.00    +0.000 A 
ATOM     24  C   UNL     1       1.377   3.016  18.246  0.00  0.00    +0.000 A 
ATOM     25  C   UNL     1       1.571   4.341  18.639  0.00  0.00    +0.000 A 
ATOM     26  C   UNL     1       2.863   4.834  18.826  0.00  0.00    +0.000 A 
ENDBRANCH  20  21
ENDBRANCH  17  20
ENDBRANCH   2  14
TORSDOF 7
ENDMDL
MODEL 3
REMARK VINA RESULT:      -7.5      0.627      1.577
REMARK  Name = 
REMARK  9 active torsions:
REMARK  status: ('A' for Active; 'I' for Inactive)
REMARK    1  A    between atoms: C_1  and  C_2
REMARK    2  A    between atoms: C_2  and  N_3
REMARK    3  A    between atoms: N_3  and  C_4
REMARK    4  A    between atoms: N_3  and  C_6
REMARK    5  A    between atoms: C_4  and  C_5
REMARK    6  A    between atoms: C_9  and  C_10
REMARK    7  A    between atoms: N_11  and  N_12
REMARK    8  A    between atoms: N_15  and  C_16
REMARK    9  A    between atoms: C_16  and  C_17
REMARK                            x       y       z     vdW  Elec       q    Type
REMARK                         _______ _______ _______ _____ _____    ______ ____
ROOT
ATOM      1  C   UNL     1       8.171   8.941  18.474  0.00  0.00    +0.000 C 
ATOM      2  N   UNL     1       7.934   8.404  17.316  0.00  0.00    +0.000 NA
ENDROOT
BRANCH   1   6
ATOM      3  C   UNL     1      10.196  12.668  18.989  0.00  0.00    +0.000 A 
ATOM      4  C   UNL     1      10.383  11.606  19.886  0.00  0.00    +0.000 A 
ATOM      5  C   UNL     1       9.744  10.380  19.721  0.00  0.00    +0.000 A 
ATOM      6  C   UNL     1       8.908  10.195  18.631  0.00  0.00    +0.000 A 
ATOM      7  C   UNL     1       8.711  11.213  17.699  0.00  0.00    +0.000 A 
ATOM      8  C   UNL     1       9.357  12.438  17.885  0.00  0.00    +0.000 A 
BRANCH   3   9
ATOM      9  N   UNL     1      10.821  13.889  19.197  0.00  0.00    +0.000 N 
BRANCH   9  11
ATOM     10  C   UNL     1       9.014  15.323  20.130  0.00  0.00    +0.000 C 
ATOM     11  C   UNL     1      10.399  14.729  20.323  0.00  0.00    +0.000 C 
ENDBRANCH   9  11
BRANCH   9  12
ATOM     12  C   UNL     1      11.924  14.322  18.335  0.00  0.00    +0.000 C 
ATOM     13  C   UNL     1      11.454  15.359  17.322  0.00  0.00    +0.000 C 
ENDBRANCH   9  12
ENDBRANCH   3   9
ENDBRANCH   1   6
BRANCH   2  14
ATOM     14  N   UNL     1       7.319   7.216  17.446  0.00  0.00    +0.000 N 
ATOM     15  C   UNL     1       5.878   7.126  17.186  0.00  0.00    +0.000 C 
ATOM     16  C   UNL     1       5.510   5.672  16.801  0.00  0.00    +0.000 C 
ATOM     17  N   UNL     1       5.979   4.622  17.747  0.00  0.00    +0.000 NA
ATOM     18  C   UNL     1       7.411   4.870  18.039  0.00  0.00    +0.000 C 
ATOM     19  C   UNL     1       7.706   6.300  18.528  0.00  0.00    +0.000 C 
BRANCH  17  20
ATOM     20  C   UNL     1       5.146   4.630  18.962  0.00  0.00    +0.000 C 
BRANCH  20  21
ATOM     21  C   UNL     1       3.782   3.992  18.802  0.00  0.00    +0.000 A 
ATOM     22  C   UNL     1       3.612   2.898  17.939  0.00  0.00    +0.000 A 
ATOM     23  C   UNL     1       2.367   2.279  17.815  0.00  0.00    +0.000 A 
ATOM     24  C   UNL     1       1.281   2.742  18.553  0.00  0.00    +0.000 A 
ATOM     25  C   UNL     1       1.435   3.835  19.407  0.00  0.00    +0.000 A 
ATOM     26  C   UNL     1       2.677   4.460  19.527  0.00  0.00    +0.000 A 
ENDBRANCH  20  21
ENDBRANCH  17  20
ENDBRANCH   2  14
TORSDOF 7
ENDMDL
MODEL 4
REMARK VINA RESULT:      -7.4      0.784      1.237
REMARK  Name = 
REMARK  9 active torsions:
REMARK  status: ('A' for Active; 'I' for Inactive)
REMARK    1  A    between atoms: C_1  and  C_2
REMARK    2  A    between atoms: C_2  and  N_3
REMARK    3  A    between atoms: N_3  and  C_4
REMARK    4  A    between atoms: N_3  and  C_6
REMARK    5  A    between atoms: C_4  and  C_5
REMARK    6  A    between atoms: C_9  and  C_10
REMARK    7  A    between atoms: N_11  and  N_12
REMARK    8  A    between atoms: N_15  and  C_16
REMARK    9  A    between atoms: C_16  and  C_17
REMARK                            x       y       z     vdW  Elec       q    Type
REMARK                         _______ _______ _______ _____ _____    ______ ____
ROOT
ATOM      1  C   UNL     1       8.251   8.891  18.507  0.00  0.00    +0.000 C 
ATOM      2  N   UNL     1       7.758   8.471  17.382  0.00  0.00    +0.000 NA
ENDROOT
BRANCH   1   6
ATOM      3  C   UNL     1      10.073  12.731  18.946  0.00  0.00    +0.000 A 
ATOM      4  C   UNL     1      10.180  11.754  19.947  0.00  0.00    +0.000 A 
ATOM      5  C   UNL     1       9.607  10.492  19.809  0.00  0.00    +0.000 A 
ATOM      6  C   UNL     1       8.921  10.184  18.645  0.00  0.00    +0.000 A 
ATOM      7  C   UNL     1       8.810  11.114  17.614  0.00  0.00    +0.000 A 
ATOM      8  C   UNL     1       9.386  12.377  17.772  0.00  0.00    +0.000 A 
BRANCH   3   9
ATOM      9  N   UNL     1      10.626  13.991  19.124  0.00  0.00    +0.000 N 
BRANCH   9  11
ATOM     10  C   UNL     1       9.063  15.758  18.335  0.00  0.00    +0.000 C 
ATOM     11  C   UNL     1      10.381  15.032  18.121  0.00  0.00    +0.000 C 
ENDBRANCH   9  11
BRANCH   9  12
ATOM     12  C   UNL     1      11.409  14.301  20.323  0.00  0.00    +0.000 C 
ATOM     13  C   UNL     1      10.554  15.005  21.370  0.00  0.00    +0.000 C 
ENDBRANCH   9  12
ENDBRANCH   3   9
ENDBRANCH   1   6
BRANCH   2  14
ATOM     14  N   UNL     1       7.276   7.221  17.499  0.00  0.00    +0.000 N 
ATOM     15  C   UNL     1       5.854   6.977  17.227  0.00  0.00    +0.000 C 
ATOM     16  C   UNL     1       5.650   5.495  16.828  0.00  0.00    +0.000 C 
ATOM     17  N   UNL     1       6.225   4.494  17.768  0.00  0.00    +0.000 NA
ATOM     18  C   UNL     1       7.619   4.895  18.073  0.00  0.00    +0.000 C 
ATOM     19  C   UNL     1       7.753   6.343  18.576  0.00  0.00    +0.000 C 
BRANCH  17  20
ATOM     20  C   UNL     1       5.388   4.400  18.977  0.00  0.00    +0.000 C 
BRANCH  20  21
ATOM     21  C   UNL     1       3.977   3.905  18.737  0.00  0.00    +0.000 A 
ATOM     22  C   UNL     1       2.880   4.639  19.214  0.00  0.00    +0.000 A 
ATOM     23  C   UNL     1       1.576   4.211  18.963  0.00  0.00    +0.000 A 
ATOM     24  C   UNL     1       1.352   3.049  18.229  0.00  0.00    +0.000 A 
ATOM     25  C   UNL     1       2.434   2.305  17.756  0.00  0.00    +0.000 A 
ATOM     26  C   UNL     1       3.740   2.728  18.013  0.00  0.00    +0.000 A 
ENDBRANCH  20  21
ENDBRANCH  17  20
ENDBRANCH   2  14
TORSDOF 7
ENDMDL
MODEL 5
REMARK VINA RESULT:      -7.4      0.961      1.888
REMARK  Name = 
REMARK  9 active torsions:
REMARK  status: ('A' for Active; 'I' for Inactive)
REMARK    1  A    between atoms: C_1  and  C_2
REMARK    2  A    between atoms: C_2  and  N_3
REMARK    3  A    between atoms: N_3  and  C_4
REMARK    4  A    between atoms: N_3  and  C_6
REMARK    5  A    between atoms: C_4  and  C_5
REMARK    6  A    between atoms: C_9  and  C_10
REMARK    7  A    between atoms: N_11  and  N_12
REMARK    8  A    between atoms: N_15  and  C_16
REMARK    9  A    between atoms: C_16  and  C_17
REMARK                            x       y       z     vdW  Elec       q    Type
REMARK                         _______ _______ _______ _____ _____    ______ ____
ROOT
ATOM      1  C   UNL     1       7.842   8.503  17.904  0.00  0.00    +0.000 C 
ATOM      2  N   UNL     1       8.146   7.375  18.469  0.00  0.00    +0.000 NA
ENDROOT
BRANCH   1   6
ATOM      3  C   UNL     1       9.849  12.148  18.879  0.00  0.00    +0.000 A 
ATOM      4  C   UNL     1       8.947  12.076  17.808  0.00  0.00    +0.000 A 
ATOM      5  C   UNL     1       8.272  10.900  17.490  0.00  0.00    +0.000 A 
ATOM      6  C   UNL     1       8.486   9.768  18.261  0.00  0.00    +0.000 A 
ATOM      7  C   UNL     1       9.354   9.799  19.351  0.00  0.00    +0.000 A 
ATOM      8  C   UNL     1      10.026  10.986  19.651  0.00  0.00    +0.000 A 
BRANCH   3   9
ATOM      9  N   UNL     1      10.532  13.325  19.153  0.00  0.00    +0.000 N 
BRANCH   9  11
ATOM     10  C   UNL     1      10.208  14.852  21.090  0.00  0.00    +0.000 C 
ATOM     11  C   UNL     1       9.793  14.478  19.677  0.00  0.00    +0.000 C 
ENDBRANCH   9  11
BRANCH   9  12
ATOM     12  C   UNL     1      11.983  13.407  18.969  0.00  0.00    +0.000 C 
ATOM     13  C   UNL     1      12.332  13.871  17.560  0.00  0.00    +0.000 C 
ENDBRANCH   9  12
ENDBRANCH   3   9
ENDBRANCH   1   6
BRANCH   2  14
ATOM     14  N   UNL     1       7.356   6.381  18.029  0.00  0.00    +0.000 N 
ATOM     15  C   UNL     1       6.918   6.385  16.628  0.00  0.00    +0.000 C 
ATOM     16  C   UNL     1       6.570   4.941  16.191  0.00  0.00    +0.000 C 
ATOM     17  N   UNL     1       5.618   4.216  17.076  0.00  0.00    +0.000 NA
ATOM     18  C   UNL     1       6.081   4.372  18.476  0.00  0.00    +0.000 C 
ATOM     19  C   UNL     1       6.303   5.837  18.897  0.00  0.00    +0.000 C 
BRANCH  17  20
ATOM     20  C   UNL     1       4.251   4.727  16.873  0.00  0.00    +0.000 C 
BRANCH  20  21
ATOM     21  C   UNL     1       3.194   4.074  17.738  0.00  0.00    +0.000 A 
ATOM     22  C   UNL     1       2.466   4.840  18.662  0.00  0.00    +0.000 A 
ATOM     23  C   UNL     1       1.462   4.254  19.435  0.00  0.00    +0.000 A 
ATOM     24  C   UNL     1       1.171   2.900  19.291  0.00  0.00    +0.000 A 
ATOM     25  C   UNL     1       1.894   2.126  18.382  0.00  0.00    +0.000 A 
ATOM     26  C   UNL     1       2.903   2.708  17.614  0.00  0.00    +0.000 A 
ENDBRANCH  20  21
ENDBRANCH  17  20
ENDBRANCH   2  14
TORSDOF 7
ENDMDL
MODEL 6
REMARK VINA RESULT:      -7.4      0.955      1.707
REMARK  Name = 
REMARK  9 active torsions:
REMARK  status: ('A' for Active; 'I' for Inactive)
REMARK    1  A    between atoms: C_1  and  C_2
REMARK    2  A    between atoms: C_2  and  N_3
REMARK    3  A    between atoms: N_3  and  C_4
REMARK    4  A    between atoms: N_3  and  C_6
REMARK    5  A    between atoms: C_4  and  C_5
REMARK    6  A    between atoms: C_9  and  C_10
REMARK    7  A    between atoms: N_11  and  N_12
REMARK    8  A    between atoms: N_15  and  C_16
REMARK    9  A    between atoms: C_16  and  C_17
REMARK                            x       y       z     vdW  Elec       q    Type
REMARK                         _______ _______ _______ _____ _____    ______ ____
ROOT
ATOM      1  C   UNL     1       7.981   8.504  18.297  0.00  0.00    +0.000 C 
ATOM      2  N   UNL     1       7.500   8.102  17.160  0.00  0.00    +0.000 NA
ENDROOT
BRANCH   1   6
ATOM      3  C   UNL     1      10.043  12.223  18.719  0.00  0.00    +0.000 A 
ATOM      4  C   UNL     1       9.071  12.036  17.725  0.00  0.00    +0.000 A 
ATOM      5  C   UNL     1       8.379  10.836  17.587  0.00  0.00    +0.000 A 
ATOM      6  C   UNL     1       8.645   9.797  18.465  0.00  0.00    +0.000 A 
ATOM      7  C   UNL     1       9.584   9.945  19.484  0.00  0.00    +0.000 A 
ATOM      8  C   UNL     1      10.273  11.155  19.604  0.00  0.00    +0.000 A 
BRANCH   3   9
ATOM      9  N   UNL     1      10.740  13.419  18.812  0.00  0.00    +0.000 N 
BRANCH   9  11
ATOM     10  C   UNL     1      12.333  13.560  16.906  0.00  0.00    +0.000 C 
ATOM     11  C   UNL     1      12.150  13.461  18.412  0.00  0.00    +0.000 C 
ENDBRANCH   9  11
BRANCH   9  12
ATOM     12  C   UNL     1      10.070  14.643  19.258  0.00  0.00    +0.000 C 
ATOM     13  C   UNL     1      10.922  15.397  20.273  0.00  0.00    +0.000 C 
ENDBRANCH   9  12
ENDBRANCH   3   9
ENDBRANCH   1   6
BRANCH   2  14
ATOM     14  N   UNL     1       7.021   6.850  17.250  0.00  0.00    +0.000 N 
ATOM     15  C   UNL     1       7.142   5.955  16.093  0.00  0.00    +0.000 C 
ATOM     16  C   UNL     1       7.109   4.482  16.571  0.00  0.00    +0.000 C 
ATOM     17  N   UNL     1       5.961   4.119  17.446  0.00  0.00    +0.000 NA
ATOM     18  C   UNL     1       5.849   5.146  18.510  0.00  0.00    +0.000 C 
ATOM     19  C   UNL     1       5.770   6.588  17.975  0.00  0.00    +0.000 C 
BRANCH  17  20
ATOM     20  C   UNL     1       4.731   4.004  16.643  0.00  0.00    +0.000 C 
BRANCH  20  21
ATOM     21  C   UNL     1       3.520   3.508  17.403  0.00  0.00    +0.000 A 
ATOM     22  C   UNL     1       3.520   2.224  17.972  0.00  0.00    +0.000 A 
ATOM     23  C   UNL     1       2.424   1.773  18.707  0.00  0.00    +0.000 A 
ATOM     24  C   UNL     1       1.317   2.599  18.887  0.00  0.00    +0.000 A 
ATOM     25  C   UNL     1       1.300   3.873  18.319  0.00  0.00    +0.000 A 
ATOM     26  C   UNL     1       2.393   4.323  17.576  0.00  0.00    +0.000 A 
ENDBRANCH  20  21
ENDBRANCH  17  20
ENDBRANCH   2  14
TORSDOF 7
ENDMDL
MODEL 7
REMARK VINA RESULT:      -7.4      0.910      1.847
REMARK  Name = 
REMARK  9 active torsions:
REMARK  status: ('A' for Active; 'I' for Inactive)
REMARK    1  A    between atoms: C_1  and  C_2
REMARK    2  A    between atoms: C_2  and  N_3
REMARK    3  A    between atoms: N_3  and  C_4
REMARK    4  A    between atoms: N_3  and  C_6
REMARK    5  A    between atoms: C_4  and  C_5
REMARK    6  A    between atoms: C_9  and  C_10
REMARK    7  A    between atoms: N_11  and  N_12
REMARK    8  A    between atoms: N_15  and  C_16
REMARK    9  A    between atoms: C_16  and  C_17
REMARK                            x       y       z     vdW  Elec       q    Type
REMARK                         _______ _______ _______ _____ _____    ______ ____
ROOT
ATOM      1  C   UNL     1       7.798   8.464  17.894  0.00  0.00    +0.000 C 
ATOM      2  N   UNL     1       8.120   7.329  18.435  0.00  0.00    +0.000 NA
ENDROOT
BRANCH   1   6
ATOM      3  C   UNL     1       9.658  12.175  18.907  0.00  0.00    +0.000 A 
ATOM      4  C   UNL     1       9.919  11.005  19.636  0.00  0.00    +0.000 A 
ATOM      5  C   UNL     1       9.334   9.786  19.306  0.00  0.00    +0.000 A 
ATOM      6  C   UNL     1       8.478   9.718  18.218  0.00  0.00    +0.000 A 
ATOM      7  C   UNL     1       8.209  10.849  17.449  0.00  0.00    +0.000 A 
ATOM      8  C   UNL     1       8.801  12.066  17.798  0.00  0.00    +0.000 A 
BRANCH   3   9
ATOM      9  N   UNL     1      10.231  13.383  19.279  0.00  0.00    +0.000 N 
BRANCH   9  11
ATOM     10  C   UNL     1       9.525  15.748  18.956  0.00  0.00    +0.000 C 
ATOM     11  C   UNL     1       9.369  14.468  19.761  0.00  0.00    +0.000 C 
ENDBRANCH   9  11
BRANCH   9  12
ATOM     12  C   UNL     1      11.683  13.567  19.239  0.00  0.00    +0.000 C 
ATOM     13  C   UNL     1      12.212  13.454  17.814  0.00  0.00    +0.000 C 
ENDBRANCH   9  12
ENDBRANCH   3   9
ENDBRANCH   1   6
BRANCH   2  14
ATOM     14  N   UNL     1       7.291   6.348  18.037  0.00  0.00    +0.000 N 
ATOM     15  C   UNL     1       6.812   6.336  16.650  0.00  0.00    +0.000 C 
ATOM     16  C   UNL     1       6.413   4.894  16.252  0.00  0.00    +0.000 C 
ATOM     17  N   UNL     1       5.470   4.211  17.179  0.00  0.00    +0.000 NA
ATOM     18  C   UNL     1       5.978   4.382  18.562  0.00  0.00    +0.000 C 
ATOM     19  C   UNL     1       6.250   5.848  18.946  0.00  0.00    +0.000 C 
BRANCH  17  20
ATOM     20  C   UNL     1       4.112   4.755  17.006  0.00  0.00    +0.000 C 
BRANCH  20  21
ATOM     21  C   UNL     1       3.053   4.106  17.872  0.00  0.00    +0.000 A 
ATOM     22  C   UNL     1       2.733   2.750  17.699  0.00  0.00    +0.000 A 
ATOM     23  C   UNL     1       1.787   2.133  18.518  0.00  0.00    +0.000 A 
ATOM     24  C   UNL     1       1.153   2.861  19.522  0.00  0.00    +0.000 A 
ATOM     25  C   UNL     1       1.455   4.212  19.699  0.00  0.00    +0.000 A 
ATOM     26  C   UNL     1       2.396   4.832  18.875  0.00  0.00    +0.000 A 
ENDBRANCH  20  21
ENDBRANCH  17  20
ENDBRANCH   2  14
TORSDOF 7
ENDMDL
MODEL 8
REMARK VINA RESULT:      -7.4      0.991      1.525
REMARK  Name = 
REMARK  9 active torsions:
REMARK  status: ('A' for Active; 'I' for Inactive)
REMARK    1  A    between atoms: C_1  and  C_2
REMARK    2  A    between atoms: C_2  and  N_3
REMARK    3  A    between atoms: N_3  and  C_4
REMARK    4  A    between atoms: N_3  and  C_6
REMARK    5  A    between atoms: C_4  and  C_5
REMARK    6  A    between atoms: C_9  and  C_10
REMARK    7  A    between atoms: N_11  and  N_12
REMARK    8  A    between atoms: N_15  and  C_16
REMARK    9  A    between atoms: C_16  and  C_17
REMARK                            x       y       z     vdW  Elec       q    Type
REMARK                         _______ _______ _______ _____ _____    ______ ____
ROOT
ATOM      1  C   UNL     1       7.900   8.582  18.186  0.00  0.00    +0.000 C 
ATOM      2  N   UNL     1       7.801   7.974  17.043  0.00  0.00    +0.000 NA
ENDROOT
BRANCH   1   6
ATOM      3  C   UNL     1       9.762  12.390  18.723  0.00  0.00    +0.000 A 
ATOM      4  C   UNL     1      10.130  11.282  19.500  0.00  0.00    +0.000 A 
ATOM      5  C   UNL     1       9.545  10.031  19.324  0.00  0.00    +0.000 A 
ATOM      6  C   UNL     1       8.579   9.868  18.343  0.00  0.00    +0.000 A 
ATOM      7  C   UNL     1       8.199  10.935  17.530  0.00  0.00    +0.000 A 
ATOM      8  C   UNL     1       8.793  12.184  17.725  0.00  0.00    +0.000 A 
BRANCH   3   9
ATOM      9  N   UNL     1      10.339  13.633  18.943  0.00  0.00    +0.000 N 
BRANCH   9  11
ATOM     10  C   UNL     1      11.359  15.062  17.180  0.00  0.00    +0.000 C 
ATOM     11  C   UNL     1      11.573  13.987  18.233  0.00  0.00    +0.000 C 
ENDBRANCH   9  11
BRANCH   9  12
ATOM     12  C   UNL     1       9.705  14.605  19.836  0.00  0.00    +0.000 C 
ATOM     13  C   UNL     1      10.377  14.614  21.204  0.00  0.00    +0.000 C 
ENDBRANCH   9  12
ENDBRANCH   3   9
ENDBRANCH   1   6
BRANCH   2  14
ATOM     14  N   UNL     1       7.211   6.774  17.180  0.00  0.00    +0.000 N 
ATOM     15  C   UNL     1       7.243   5.830  16.057  0.00  0.00    +0.000 C 
ATOM     16  C   UNL     1       7.079   4.385  16.589  0.00  0.00    +0.000 C 
ATOM     17  N   UNL     1       5.909   4.160  17.481  0.00  0.00    +0.000 NA
ATOM     18  C   UNL     1       5.897   5.231  18.506  0.00  0.00    +0.000 C 
ATOM     19  C   UNL     1       5.946   6.653  17.919  0.00  0.00    +0.000 C 
BRANCH  17  20
ATOM     20  C   UNL     1       4.668   4.127  16.686  0.00  0.00    +0.000 C 
BRANCH  20  21
ATOM     21  C   UNL     1       3.462   3.572  17.412  0.00  0.00    +0.000 A 
ATOM     22  C   UNL     1       3.487   2.266  17.926  0.00  0.00    +0.000 A 
ATOM     23  C   UNL     1       2.395   1.760  18.631  0.00  0.00    +0.000 A 
ATOM     24  C   UNL     1       1.268   2.553  18.836  0.00  0.00    +0.000 A 
ATOM     25  C   UNL     1       1.227   3.849  18.322  0.00  0.00    +0.000 A 
ATOM     26  C   UNL     1       2.316   4.355  17.610  0.00  0.00    +0.000 A 
ENDBRANCH  20  21
ENDBRANCH  17  20
ENDBRANCH   2  14
TORSDOF 7
ENDMDL
MODEL 9
REMARK VINA RESULT:      -7.4      0.947      1.247
REMARK  Name = 
REMARK  9 active torsions:
REMARK  status: ('A' for Active; 'I' for Inactive)
REMARK    1  A    between atoms: C_1  and  C_2
REMARK    2  A    between atoms: C_2  and  N_3
REMARK    3  A    between atoms: N_3  and  C_4
REMARK    4  A    between atoms: N_3  and  C_6
REMARK    5  A    between atoms: C_4  and  C_5
REMARK    6  A    between atoms: C_9  and  C_10
REMARK    7  A    between atoms: N_11  and  N_12
REMARK    8  A    between atoms: N_15  and  C_16
REMARK    9  A    between atoms: C_16  and  C_17
REMARK                            x       y       z     vdW  Elec       q    Type
REMARK                         _______ _______ _______ _____ _____    ______ ____
ROOT
ATOM      1  C   UNL     1       8.091   8.553  18.324  0.00  0.00    +0.000 C 
ATOM      2  N   UNL     1       7.393   8.178  17.295  0.00  0.00    +0.000 NA
ENDROOT
BRANCH   1   6
ATOM      3  C   UNL     1       9.872  12.423  18.657  0.00  0.00    +0.000 A 
ATOM      4  C   UNL     1      10.345  11.335  19.406  0.00  0.00    +0.000 A 
ATOM      5  C   UNL     1       9.786  10.064  19.294  0.00  0.00    +0.000 A 
ATOM      6  C   UNL     1       8.740   9.861  18.407  0.00  0.00    +0.000 A 
ATOM      7  C   UNL     1       8.254  10.906  17.624  0.00  0.00    +0.000 A 
ATOM      8  C   UNL     1       8.823  12.176  17.754  0.00  0.00    +0.000 A 
BRANCH   3   9
ATOM      9  N   UNL     1      10.427  13.685  18.813  0.00  0.00    +0.000 N 
BRANCH   9  11
ATOM     10  C   UNL     1      11.732  13.571  16.697  0.00  0.00    +0.000 C 
ATOM     11  C   UNL     1      11.701  13.995  18.156  0.00  0.00    +0.000 C 
ENDBRANCH   9  11
BRANCH   9  12
ATOM     12  C   UNL     1       9.731  14.718  19.583  0.00  0.00    +0.000 C 
ATOM     13  C   UNL     1      10.232  14.760  21.022  0.00  0.00    +0.000 C 
ENDBRANCH   9  12
ENDBRANCH   3   9
ENDBRANCH   1   6
BRANCH   2  14
ATOM     14  N   UNL     1       6.978   6.907  17.426  0.00  0.00    +0.000 N 
ATOM     15  C   UNL     1       7.280   5.944  16.360  0.00  0.00    +0.000 C 
ATOM     16  C   UNL     1       7.274   4.509  16.942  0.00  0.00    +0.000 C 
ATOM     17  N   UNL     1       6.056   4.134  17.711  0.00  0.00    +0.000 NA
ATOM     18  C   UNL     1       5.767   5.223  18.675  0.00  0.00    +0.000 C 
ATOM     19  C   UNL     1       5.669   6.616  18.028  0.00  0.00    +0.000 C 
BRANCH  17  20
ATOM     20  C   UNL     1       4.934   3.885  16.789  0.00  0.00    +0.000 C 
BRANCH  20  21
ATOM     21  C   UNL     1       3.637   3.485  17.459  0.00  0.00    +0.000 A 
ATOM     22  C   UNL     1       2.567   4.391  17.525  0.00  0.00    +0.000 A 
ATOM     23  C   UNL     1       1.355   4.016  18.106  0.00  0.00    +0.000 A 
ATOM     24  C   UNL     1       1.196   2.734  18.623  0.00  0.00    +0.000 A 
ATOM     25  C   UNL     1       2.255   1.826  18.572  0.00  0.00    +0.000 A 
ATOM     26  C   UNL     1       3.471   2.201  17.998  0.00  0.00    +0.000 A 
ENDBRANCH  20  21
ENDBRANCH  17  20
ENDBRANCH   2  14
TORSDOF 7
ENDMDL
