MODEL 1
REMARK VINA RESULT:      -8.5      0.000      0.000
REMARK  Name = 
REMARK  10 active torsions:
REMARK  status: ('A' for Active; 'I' for Inactive)
REMARK    1  A    between atoms: C_1  and  O_2
REMARK    2  A    between atoms: O_2  and  C_3
REMARK    3  A    between atoms: C_5  and  O_6
REMARK    4  A    between atoms: O_6  and  C_7
REMARK    5  A    between atoms: C_11  and  C_12
REMARK    6  A    between atoms: C_12  and  O_13
REMARK    7  A    between atoms: C_12  and  C_14
REMARK    8  A    between atoms: C_17  and  O_18
REMARK    9  A    between atoms: O_18  and  C_19
REMARK   10  A    between atoms: C_19  and  C_20
REMARK                            x       y       z     vdW  Elec       q    Type
REMARK                         _______ _______ _______ _____ _____    ______ ____
ROOT
ATOM      1  C   UNL     1       2.737   3.589  17.485  0.00  0.00    +0.000 C 
ENDROOT
BRANCH   1   8
ATOM      2  C   UNL     1       6.037   4.673  14.572  0.00  0.00    +0.000 A 
ATOM      3  C   UNL     1       6.950   5.440  15.300  0.00  0.00    +0.000 A 
ATOM      4  C   UNL     1       6.969   5.449  16.710  0.00  0.00    +0.000 A 
ATOM      5  C   UNL     1       6.031   4.662  17.367  0.00  0.00    +0.000 A 
ATOM      6  C   UNL     1       5.111   3.914  16.640  0.00  0.00    +0.000 A 
ATOM      7  C   UNL     1       5.096   3.912  15.250  0.00  0.00    +0.000 A 
ATOM      8  C   UNL     1       4.217   3.148  17.545  0.00  0.00    +0.000 C 
ATOM      9  O   UNL     1       4.764   3.454  18.840  0.00  0.00    +0.000 OA
ATOM     10  C   UNL     1       5.744   4.402  18.788  0.00  0.00    +0.000 C 
ATOM     11  O   UNL     1       6.247   4.893  19.780  0.00  0.00    +0.000 OA
BRANCH   2  13
ATOM     12  C   UNL     1       5.902   3.318  12.645  0.00  0.00    +0.000 C 
ATOM     13  O   UNL     1       5.959   4.624  13.208  0.00  0.00    +0.000 OA
ENDBRANCH   2  13
BRANCH   4  14
ATOM     14  O   UNL     1       7.958   6.262  17.175  0.00  0.00    +0.000 OA
ATOM     15  C   UNL     1       7.651   7.563  17.634  0.00  0.00    +0.000 C 
ENDBRANCH   4  14
ENDBRANCH   1   8
BRANCH   1  16
ATOM     16  C   UNL     1       2.431   4.711  18.457  0.00  0.00    +0.000 A 
ATOM     17  C   UNL     1       2.617   6.029  18.038  0.00  0.00    +0.000 A 
ATOM     18  C   UNL     1       2.373   7.091  18.907  0.00  0.00    +0.000 A 
ATOM     19  C   UNL     1       1.939   6.863  20.215  0.00  0.00    +0.000 A 
ATOM     20  C   UNL     1       1.737   5.548  20.640  0.00  0.00    +0.000 A 
ATOM     21  C   UNL     1       1.979   4.479  19.768  0.00  0.00    +0.000 A 
BRANCH  19  22
ATOM     22  O   UNL     1       1.698   7.857  21.138  0.00  0.00    +0.000 OA
BRANCH  22  23
ATOM     23  C   UNL     1       1.215   9.077  20.566  0.00  0.00    +0.000 C 
BRANCH  23  24
ATOM     24  C   UNL     1      -0.308   9.224  20.708  0.00  0.00    +0.000 C 
ATOM     25  C   UNL     1      -0.810   8.842  22.106  0.00  0.00    +0.000 C 
ATOM     26  C   UNL     1      -0.409   9.852  23.179  0.00  0.00    +0.000 C 
ATOM     27  C   UNL     1      -0.855  11.266  22.816  0.00  0.00    +0.000 C 
ATOM     28  C   UNL     1      -0.361  11.684  21.434  0.00  0.00    +0.000 C 
ATOM     29  C   UNL     1      -0.737  10.662  20.359  0.00  0.00    +0.000 C 
ENDBRANCH  23  24
ENDBRANCH  22  23
ENDBRANCH  19  22
ENDBRANCH   1  16
BRANCH   1  30
ATOM     30  O   UNL     1       1.842   2.508  17.753  0.00  0.00    +0.000 OA
ATOM     31  H   UNL     1       1.985   1.824  17.080  0.00  0.00    +0.000 HD
ENDBRANCH   1  30
TORSDOF 8
ENDMDL
MODEL 2
REMARK VINA RESULT:      -8.4      0.964      1.781
REMARK  Name = 
REMARK  10 active torsions:
REMARK  status: ('A' for Active; 'I' for Inactive)
REMARK    1  A    between atoms: C_1  and  O_2
REMARK    2  A    between atoms: O_2  and  C_3
REMARK    3  A    between atoms: C_5  and  O_6
REMARK    4  A    between atoms: O_6  and  C_7
REMARK    5  A    between atoms: C_11  and  C_12
REMARK    6  A    between atoms: C_12  and  O_13
REMARK    7  A    between atoms: C_12  and  C_14
REMARK    8  A    between atoms: C_17  and  O_18
REMARK    9  A    between atoms: O_18  and  C_19
REMARK   10  A    between atoms: C_19  and  C_20
REMARK                            x       y       z     vdW  Elec       q    Type
REMARK                         _______ _______ _______ _____ _____    ______ ____
ROOT
ATOM      1  C   UNL     1       2.511   3.752  17.904  0.00  0.00    +0.000 C 
ENDROOT
BRANCH   1   8
ATOM      2  C   UNL     1       5.659   4.286  14.685  0.00  0.00    +0.000 A 
ATOM      3  C   UNL     1       6.648   5.094  15.251  0.00  0.00    +0.000 A 
ATOM      4  C   UNL     1       6.758   5.283  16.644  0.00  0.00    +0.000 A 
ATOM      5  C   UNL     1       5.833   4.635  17.453  0.00  0.00    +0.000 A 
ATOM      6  C   UNL     1       4.837   3.847  16.886  0.00  0.00    +0.000 A 
ATOM      7  C   UNL     1       4.732   3.667  15.512  0.00  0.00    +0.000 A 
ATOM      8  C   UNL     1       3.972   3.250  17.935  0.00  0.00    +0.000 C 
ATOM      9  O   UNL     1       4.614   3.692  19.144  0.00  0.00    +0.000 OA
ATOM     10  C   UNL     1       5.628   4.575  18.911  0.00  0.00    +0.000 C 
ATOM     11  O   UNL     1       6.214   5.164  19.798  0.00  0.00    +0.000 OA
BRANCH   2  13
ATOM     12  C   UNL     1       6.681   3.786  12.619  0.00  0.00    +0.000 C 
ATOM     13  O   UNL     1       5.490   4.067  13.347  0.00  0.00    +0.000 OA
ENDBRANCH   2  13
BRANCH   4  14
ATOM     14  O   UNL     1       7.809   6.099  16.940  0.00  0.00    +0.000 OA
ATOM     15  C   UNL     1       7.580   7.389  17.470  0.00  0.00    +0.000 C 
ENDBRANCH   4  14
ENDBRANCH   1   8
BRANCH   1  16
ATOM     16  C   UNL     1       2.326   5.031  18.697  0.00  0.00    +0.000 A 
ATOM     17  C   UNL     1       1.899   4.941  20.022  0.00  0.00    +0.000 A 
ATOM     18  C   UNL     1       1.691   6.092  20.780  0.00  0.00    +0.000 A 
ATOM     19  C   UNL     1       1.903   7.360  20.234  0.00  0.00    +0.000 A 
ATOM     20  C   UNL     1       2.344   7.461  18.913  0.00  0.00    +0.000 A 
ATOM     21  C   UNL     1       2.556   6.306  18.149  0.00  0.00    +0.000 A 
BRANCH  19  22
ATOM     22  O   UNL     1       1.699   8.541  20.912  0.00  0.00    +0.000 OA
BRANCH  22  23
ATOM     23  C   UNL     1       0.463   9.189  20.593  0.00  0.00    +0.000 C 
BRANCH  23  24
ATOM     24  C   UNL     1       0.671  10.454  19.744  0.00  0.00    +0.000 C 
ATOM     25  C   UNL     1       0.105  10.312  18.326  0.00  0.00    +0.000 C 
ATOM     26  C   UNL     1      -1.422  10.294  18.294  0.00  0.00    +0.000 C 
ATOM     27  C   UNL     1      -2.013  11.518  18.988  0.00  0.00    +0.000 C 
ATOM     28  C   UNL     1      -1.481  11.683  20.408  0.00  0.00    +0.000 C 
ATOM     29  C   UNL     1       0.049  11.675  20.450  0.00  0.00    +0.000 C 
ENDBRANCH  23  24
ENDBRANCH  22  23
ENDBRANCH  19  22
ENDBRANCH   1  16
BRANCH   1  30
ATOM     30  O   UNL     1       1.596   2.777  18.406  0.00  0.00    +0.000 OA
ATOM     31  H   UNL     1       1.469   2.942  19.354  0.00  0.00    +0.000 HD
ENDBRANCH   1  30
TORSDOF 8
ENDMDL
MODEL 3
REMARK VINA RESULT:      -8.3      0.740      1.127
REMARK  Name = 
REMARK  10 active torsions:
REMARK  status: ('A' for Active; 'I' for Inactive)
REMARK    1  A    between atoms: C_1  and  O_2
REMARK    2  A    between atoms: O_2  and  C_3
REMARK    3  A    between atoms: C_5  and  O_6
REMARK    4  A    between atoms: O_6  and  C_7
REMARK    5  A    between atoms: C_11  and  C_12
REMARK    6  A    between atoms: C_12  and  O_13
REMARK    7  A    between atoms: C_12  and  C_14
REMARK    8  A    between atoms: C_17  and  O_18
REMARK    9  A    between atoms: O_18  and  C_19
REMARK   10  A    between atoms: C_19  and  C_20
REMARK                            x       y       z     vdW  Elec       q    Type
REMARK                         _______ _______ _______ _____ _____    ______ ____
ROOT
ATOM      1  C   UNL     1       3.013   3.364  18.439  0.00  0.00    +0.000 C 
ENDROOT
BRANCH   1   8
ATOM      2  C   UNL     1       5.572   4.356  14.830  0.00  0.00    +0.000 A 
ATOM      3  C   UNL     1       6.490   5.314  15.267  0.00  0.00    +0.000 A 
ATOM      4  C   UNL     1       6.758   5.530  16.635  0.00  0.00    +0.000 A 
ATOM      5  C   UNL     1       6.064   4.752  17.553  0.00  0.00    +0.000 A 
ATOM      6  C   UNL     1       5.136   3.813  17.116  0.00  0.00    +0.000 A 
ATOM      7  C   UNL     1       4.874   3.606  15.767  0.00  0.00    +0.000 A 
ATOM      8  C   UNL     1       4.526   3.096  18.265  0.00  0.00    +0.000 C 
ATOM      9  O   UNL     1       5.249   3.644  19.382  0.00  0.00    +0.000 OA
ATOM     10  C   UNL     1       6.071   4.673  19.024  0.00  0.00    +0.000 C 
ATOM     11  O   UNL     1       6.673   5.354  19.831  0.00  0.00    +0.000 OA
BRANCH   2  13
ATOM     12  C   UNL     1       6.321   3.579  12.732  0.00  0.00    +0.000 C 
ATOM     13  O   UNL     1       5.260   4.101  13.524  0.00  0.00    +0.000 OA
ENDBRANCH   2  13
BRANCH   4  14
ATOM     14  O   UNL     1       7.698   6.503  16.795  0.00  0.00    +0.000 OA
ATOM     15  C   UNL     1       7.358   7.724  17.422  0.00  0.00    +0.000 C 
ENDBRANCH   4  14
ENDBRANCH   1   8
BRANCH   1  16
ATOM     16  C   UNL     1       2.723   4.805  18.806  0.00  0.00    +0.000 A 
ATOM     17  C   UNL     1       2.390   5.106  20.127  0.00  0.00    +0.000 A 
ATOM     18  C   UNL     1       2.090   6.414  20.503  0.00  0.00    +0.000 A 
ATOM     19  C   UNL     1       2.114   7.453  19.570  0.00  0.00    +0.000 A 
ATOM     20  C   UNL     1       2.460   7.165  18.248  0.00  0.00    +0.000 A 
ATOM     21  C   UNL     1       2.764   5.852  17.867  0.00  0.00    +0.000 A 
BRANCH  19  22
ATOM     22  O   UNL     1       1.809   8.764  19.860  0.00  0.00    +0.000 OA
BRANCH  22  23
ATOM     23  C   UNL     1       1.280   8.962  21.175  0.00  0.00    +0.000 C 
BRANCH  23  24
ATOM     24  C   UNL     1      -0.255   9.016  21.183  0.00  0.00    +0.000 C 
ATOM     25  C   UNL     1      -0.835   9.137  22.598  0.00  0.00    +0.000 C 
ATOM     26  C   UNL     1      -0.581  10.505  23.229  0.00  0.00    +0.000 C 
ATOM     27  C   UNL     1      -1.090  11.637  22.341  0.00  0.00    +0.000 C 
ATOM     28  C   UNL     1      -0.524  11.554  20.927  0.00  0.00    +0.000 C 
ATOM     29  C   UNL     1      -0.751  10.177  20.300  0.00  0.00    +0.000 C 
ENDBRANCH  23  24
ENDBRANCH  22  23
ENDBRANCH  19  22
ENDBRANCH   1  16
BRANCH   1  30
ATOM     30  O   UNL     1       2.429   2.521  19.434  0.00  0.00    +0.000 OA
ATOM     31  H   UNL     1       1.484   2.732  19.490  0.00  0.00    +0.000 HD
ENDBRANCH   1  30
TORSDOF 8
ENDMDL
MODEL 4
REMARK VINA RESULT:      -8.3      1.091      1.594
REMARK  Name = 
REMARK  10 active torsions:
REMARK  status: ('A' for Active; 'I' for Inactive)
REMARK    1  A    between atoms: C_1  and  O_2
REMARK    2  A    between atoms: O_2  and  C_3
REMARK    3  A    between atoms: C_5  and  O_6
REMARK    4  A    between atoms: O_6  and  C_7
REMARK    5  A    between atoms: C_11  and  C_12
REMARK    6  A    between atoms: C_12  and  O_13
REMARK    7  A    between atoms: C_12  and  C_14
REMARK    8  A    between atoms: C_17  and  O_18
REMARK    9  A    between atoms: O_18  and  C_19
REMARK   10  A    between atoms: C_19  and  C_20
REMARK                            x       y       z     vdW  Elec       q    Type
REMARK                         _______ _______ _______ _____ _____    ______ ____
ROOT
ATOM      1  C   UNL     1       1.806   3.534  17.686  0.00  0.00    +0.000 C 
ENDROOT
BRANCH   1   8
ATOM      2  C   UNL     1       5.723   5.040  15.970  0.00  0.00    +0.000 A 
ATOM      3  C   UNL     1       6.598   5.143  17.054  0.00  0.00    +0.000 A 
ATOM      4  C   UNL     1       6.355   4.491  18.281  0.00  0.00    +0.000 A 
ATOM      5  C   UNL     1       5.195   3.733  18.385  0.00  0.00    +0.000 A 
ATOM      6  C   UNL     1       4.316   3.648  17.310  0.00  0.00    +0.000 A 
ATOM      7  C   UNL     1       4.559   4.295  16.105  0.00  0.00    +0.000 A 
ATOM      8  C   UNL     1       3.156   2.783  17.642  0.00  0.00    +0.000 C 
ATOM      9  O   UNL     1       3.495   2.314  18.960  0.00  0.00    +0.000 OA
ATOM     10  C   UNL     1       4.611   2.918  19.463  0.00  0.00    +0.000 C 
ATOM     11  O   UNL     1       4.994   2.759  20.606  0.00  0.00    +0.000 OA
BRANCH   2  13
ATOM     12  C   UNL     1       6.814   5.017  13.879  0.00  0.00    +0.000 C 
ATOM     13  O   UNL     1       5.892   5.650  14.760  0.00  0.00    +0.000 OA
ENDBRANCH   2  13
BRANCH   4  14
ATOM     14  O   UNL     1       7.361   4.738  19.166  0.00  0.00    +0.000 OA
ATOM     15  C   UNL     1       8.059   5.967  19.125  0.00  0.00    +0.000 C 
ENDBRANCH   4  14
ENDBRANCH   1   8
BRANCH   1  16
ATOM     16  C   UNL     1       1.868   4.780  18.548  0.00  0.00    +0.000 A 
ATOM     17  C   UNL     1       1.502   4.683  19.891  0.00  0.00    +0.000 A 
ATOM     18  C   UNL     1       1.520   5.808  20.714  0.00  0.00    +0.000 A 
ATOM     19  C   UNL     1       1.902   7.056  20.216  0.00  0.00    +0.000 A 
ATOM     20  C   UNL     1       2.284   7.161  18.877  0.00  0.00    +0.000 A 
ATOM     21  C   UNL     1       2.269   6.031  18.048  0.00  0.00    +0.000 A 
BRANCH  19  22
ATOM     22  O   UNL     1       1.924   8.215  20.959  0.00  0.00    +0.000 OA
BRANCH  22  23
ATOM     23  C   UNL     1       1.277   9.324  20.328  0.00  0.00    +0.000 C 
BRANCH  23  24
ATOM     24  C   UNL     1      -0.243   9.319  20.556  0.00  0.00    +0.000 C 
ATOM     25  C   UNL     1      -0.630   8.784  21.941  0.00  0.00    +0.000 C 
ATOM     26  C   UNL     1      -0.258   9.741  23.073  0.00  0.00    +0.000 C 
ATOM     27  C   UNL     1      -0.846  11.132  22.850  0.00  0.00    +0.000 C 
ATOM     28  C   UNL     1      -0.471  11.700  21.485  0.00  0.00    +0.000 C 
ATOM     29  C   UNL     1      -0.816  10.734  20.349  0.00  0.00    +0.000 C 
ENDBRANCH  23  24
ENDBRANCH  22  23
ENDBRANCH  19  22
ENDBRANCH   1  16
BRANCH   1  30
ATOM     30  O   UNL     1       0.745   2.708  18.169  0.00  0.00    +0.000 OA
ATOM     31  H   UNL     1       0.170   2.486  17.420  0.00  0.00    +0.000 HD
ENDBRANCH   1  30
TORSDOF 8
ENDMDL
MODEL 5
REMARK VINA RESULT:      -8.3      0.762      1.488
REMARK  Name = 
REMARK  10 active torsions:
REMARK  status: ('A' for Active; 'I' for Inactive)
REMARK    1  A    between atoms: C_1  and  O_2
REMARK    2  A    between atoms: O_2  and  C_3
REMARK    3  A    between atoms: C_5  and  O_6
REMARK    4  A    between atoms: O_6  and  C_7
REMARK    5  A    between atoms: C_11  and  C_12
REMARK    6  A    between atoms: C_12  and  O_13
REMARK    7  A    between atoms: C_12  and  C_14
REMARK    8  A    between atoms: C_17  and  O_18
REMARK    9  A    between atoms: O_18  and  C_19
REMARK   10  A    between atoms: C_19  and  C_20
REMARK                            x       y       z     vdW  Elec       q    Type
REMARK                         _______ _______ _______ _____ _____    ______ ____
ROOT
ATOM      1  C   UNL     1       2.636   3.691  17.808  0.00  0.00    +0.000 C 
ENDROOT
BRANCH   1   8
ATOM      2  C   UNL     1       5.856   4.275  14.672  0.00  0.00    +0.000 A 
ATOM      3  C   UNL     1       6.806   5.118  15.254  0.00  0.00    +0.000 A 
ATOM      4  C   UNL     1       6.871   5.328  16.648  0.00  0.00    +0.000 A 
ATOM      5  C   UNL     1       5.943   4.663  17.439  0.00  0.00    +0.000 A 
ATOM      6  C   UNL     1       4.986   3.840  16.854  0.00  0.00    +0.000 A 
ATOM      7  C   UNL     1       4.925   3.640  15.481  0.00  0.00    +0.000 A 
ATOM      8  C   UNL     1       4.109   3.231  17.886  0.00  0.00    +0.000 C 
ATOM      9  O   UNL     1       4.704   3.706  19.108  0.00  0.00    +0.000 OA
ATOM     10  C   UNL     1       5.699   4.615  18.891  0.00  0.00    +0.000 C 
ATOM     11  O   UNL     1       6.242   5.231  19.786  0.00  0.00    +0.000 OA
BRANCH   2  13
ATOM     12  C   UNL     1       6.942   4.100  12.585  0.00  0.00    +0.000 C 
ATOM     13  O   UNL     1       5.732   4.035  13.333  0.00  0.00    +0.000 OA
ENDBRANCH   2  13
BRANCH   4  14
ATOM     14  O   UNL     1       7.890   6.177  16.961  0.00  0.00    +0.000 OA
ATOM     15  C   UNL     1       7.610   7.449  17.510  0.00  0.00    +0.000 C 
ENDBRANCH   4  14
ENDBRANCH   1   8
BRANCH   1  16
ATOM     16  C   UNL     1       2.378   4.937  18.633  0.00  0.00    +0.000 A 
ATOM     17  C   UNL     1       1.927   4.790  19.945  0.00  0.00    +0.000 A 
ATOM     18  C   UNL     1       1.653   5.909  20.730  0.00  0.00    +0.000 A 
ATOM     19  C   UNL     1       1.821   7.200  20.224  0.00  0.00    +0.000 A 
ATOM     20  C   UNL     1       2.285   7.357  18.916  0.00  0.00    +0.000 A 
ATOM     21  C   UNL     1       2.563   6.235  18.126  0.00  0.00    +0.000 A 
BRANCH  19  22
ATOM     22  O   UNL     1       1.551   8.351  20.929  0.00  0.00    +0.000 OA
BRANCH  22  23
ATOM     23  C   UNL     1       1.122   9.446  20.114  0.00  0.00    +0.000 C 
BRANCH  23  24
ATOM     24  C   UNL     1      -0.349   9.815  20.360  0.00  0.00    +0.000 C 
ATOM     25  C   UNL     1      -0.515  10.901  21.431  0.00  0.00    +0.000 C 
ATOM     26  C   UNL     1      -0.037  12.275  20.963  0.00  0.00    +0.000 C 
ATOM     27  C   UNL     1      -0.717  12.694  19.662  0.00  0.00    +0.000 C 
ATOM     28  C   UNL     1      -0.562  11.640  18.570  0.00  0.00    +0.000 C 
ATOM     29  C   UNL     1      -1.014  10.257  19.042  0.00  0.00    +0.000 C 
ENDBRANCH  23  24
ENDBRANCH  22  23
ENDBRANCH  19  22
ENDBRANCH   1  16
BRANCH   1  30
ATOM     30  O   UNL     1       1.731   2.673  18.240  0.00  0.00    +0.000 OA
ATOM     31  H   UNL     1       2.189   2.118  18.890  0.00  0.00    +0.000 HD
ENDBRANCH   1  30
TORSDOF 8
ENDMDL
MODEL 6
REMARK VINA RESULT:      -8.2      2.802      9.093
REMARK  Name = 
REMARK  10 active torsions:
REMARK  status: ('A' for Active; 'I' for Inactive)
REMARK    1  A    between atoms: C_1  and  O_2
REMARK    2  A    between atoms: O_2  and  C_3
REMARK    3  A    between atoms: C_5  and  O_6
REMARK    4  A    between atoms: O_6  and  C_7
REMARK    5  A    between atoms: C_11  and  C_12
REMARK    6  A    between atoms: C_12  and  O_13
REMARK    7  A    between atoms: C_12  and  C_14
REMARK    8  A    between atoms: C_17  and  O_18
REMARK    9  A    between atoms: O_18  and  C_19
REMARK   10  A    between atoms: C_19  and  C_20
REMARK                            x       y       z     vdW  Elec       q    Type
REMARK                         _______ _______ _______ _____ _____    ______ ____
ROOT
ATOM      1  C   UNL     1       0.882   9.065  21.058  0.00  0.00    +0.000 C 
ENDROOT
BRANCH   1   8
ATOM      2  C   UNL     1      -2.231  10.620  18.152  0.00  0.00    +0.000 A 
ATOM      3  C   UNL     1      -2.879  11.666  18.813  0.00  0.00    +0.000 A 
ATOM      4  C   UNL     1      -2.326  12.297  19.947  0.00  0.00    +0.000 A 
ATOM      5  C   UNL     1      -1.096  11.835  20.400  0.00  0.00    +0.000 A 
ATOM      6  C   UNL     1      -0.462  10.780  19.751  0.00  0.00    +0.000 A 
ATOM      7  C   UNL     1      -1.014  10.161  18.636  0.00  0.00    +0.000 A 
ATOM      8  C   UNL     1       0.835  10.463  20.399  0.00  0.00    +0.000 C 
ATOM      9  O   UNL     1       0.925  11.481  21.412  0.00  0.00    +0.000 OA
ATOM     10  C   UNL     1      -0.213  12.227  21.511  0.00  0.00    +0.000 C 
ATOM     11  O   UNL     1      -0.392  13.053  22.385  0.00  0.00    +0.000 OA
BRANCH   2  13
ATOM     12  C   UNL     1      -2.716  10.709  15.845  0.00  0.00    +0.000 C 
ATOM     13  O   UNL     1      -2.713   9.961  17.056  0.00  0.00    +0.000 OA
ENDBRANCH   2  13
BRANCH   4  14
ATOM     14  O   UNL     1      -3.143  13.291  20.393  0.00  0.00    +0.000 OA
ATOM     15  C   UNL     1      -3.949  13.089  21.537  0.00  0.00    +0.000 C 
ENDBRANCH   4  14
ENDBRANCH   1   8
BRANCH   1  16
ATOM     16  C   UNL     1       1.550   8.034  20.170  0.00  0.00    +0.000 A 
ATOM     17  C   UNL     1       1.650   6.719  20.628  0.00  0.00    +0.000 A 
ATOM     18  C   UNL     1       2.278   5.744  19.856  0.00  0.00    +0.000 A 
ATOM     19  C   UNL     1       2.824   6.058  18.609  0.00  0.00    +0.000 A 
ATOM     20  C   UNL     1       2.717   7.367  18.134  0.00  0.00    +0.000 A 
ATOM     21  C   UNL     1       2.084   8.349  18.908  0.00  0.00    +0.000 A 
BRANCH  19  22
ATOM     22  O   UNL     1       3.478   5.156  17.799  0.00  0.00    +0.000 OA
BRANCH  22  23
ATOM     23  C   UNL     1       4.760   4.753  18.293  0.00  0.00    +0.000 C 
BRANCH  23  24
ATOM     24  C   UNL     1       5.845   4.802  17.206  0.00  0.00    +0.000 C 
ATOM     25  C   UNL     1       5.797   6.094  16.382  0.00  0.00    +0.000 C 
ATOM     26  C   UNL     1       6.247   7.321  17.173  0.00  0.00    +0.000 C 
ATOM     27  C   UNL     1       7.633   7.121  17.779  0.00  0.00    +0.000 C 
ATOM     28  C   UNL     1       7.714   5.849  18.617  0.00  0.00    +0.000 C 
ATOM     29  C   UNL     1       7.238   4.621  17.838  0.00  0.00    +0.000 C 
ENDBRANCH  23  24
ENDBRANCH  22  23
ENDBRANCH  19  22
ENDBRANCH   1  16
BRANCH   1  30
ATOM     30  O   UNL     1      -0.420   8.587  21.399  0.00  0.00    +0.000 OA
ATOM     31  H   UNL     1      -0.835   8.241  20.593  0.00  0.00    +0.000 HD
ENDBRANCH   1  30
TORSDOF 8
ENDMDL
MODEL 7
REMARK VINA RESULT:      -8.2      0.964      1.682
REMARK  Name = 
REMARK  10 active torsions:
REMARK  status: ('A' for Active; 'I' for Inactive)
REMARK    1  A    between atoms: C_1  and  O_2
REMARK    2  A    between atoms: O_2  and  C_3
REMARK    3  A    between atoms: C_5  and  O_6
REMARK    4  A    between atoms: O_6  and  C_7
REMARK    5  A    between atoms: C_11  and  C_12
REMARK    6  A    between atoms: C_12  and  O_13
REMARK    7  A    between atoms: C_12  and  C_14
REMARK    8  A    between atoms: C_17  and  O_18
REMARK    9  A    between atoms: O_18  and  C_19
REMARK   10  A    between atoms: C_19  and  C_20
REMARK                            x       y       z     vdW  Elec       q    Type
REMARK                         _______ _______ _______ _____ _____    ______ ____
ROOT
ATOM      1  C   UNL     1       2.585   3.637  17.898  0.00  0.00    +0.000 C 
ENDROOT
BRANCH   1   8
ATOM      2  C   UNL     1       5.653   4.277  14.622  0.00  0.00    +0.000 A 
ATOM      3  C   UNL     1       6.605   5.147  15.158  0.00  0.00    +0.000 A 
ATOM      4  C   UNL     1       6.725   5.368  16.546  0.00  0.00    +0.000 A 
ATOM      5  C   UNL     1       5.848   4.687  17.381  0.00  0.00    +0.000 A 
ATOM      6  C   UNL     1       4.888   3.837  16.843  0.00  0.00    +0.000 A 
ATOM      7  C   UNL     1       4.773   3.625  15.474  0.00  0.00    +0.000 A 
ATOM      8  C   UNL     1       4.072   3.214  17.916  0.00  0.00    +0.000 C 
ATOM      9  O   UNL     1       4.706   3.713  19.107  0.00  0.00    +0.000 OA
ATOM     10  C   UNL     1       5.667   4.644  18.841  0.00  0.00    +0.000 C 
ATOM     11  O   UNL     1       6.234   5.281  19.709  0.00  0.00    +0.000 OA
BRANCH   2  13
ATOM     12  C   UNL     1       6.671   3.798  12.549  0.00  0.00    +0.000 C 
ATOM     13  O   UNL     1       5.478   4.023  13.291  0.00  0.00    +0.000 OA
ENDBRANCH   2  13
BRANCH   4  14
ATOM     14  O   UNL     1       7.735   6.245  16.809  0.00  0.00    +0.000 OA
ATOM     15  C   UNL     1       7.447   7.517  17.356  0.00  0.00    +0.000 C 
ENDBRANCH   4  14
ENDBRANCH   1   8
BRANCH   1  16
ATOM     16  C   UNL     1       2.331   4.879  18.729  0.00  0.00    +0.000 A 
ATOM     17  C   UNL     1       2.576   6.129  18.159  0.00  0.00    +0.000 A 
ATOM     18  C   UNL     1       2.380   7.296  18.896  0.00  0.00    +0.000 A 
ATOM     19  C   UNL     1       1.938   7.244  20.220  0.00  0.00    +0.000 A 
ATOM     20  C   UNL     1       1.677   5.998  20.796  0.00  0.00    +0.000 A 
ATOM     21  C   UNL     1       1.870   4.824  20.057  0.00  0.00    +0.000 A 
BRANCH  19  22
ATOM     22  O   UNL     1       1.743   8.349  21.017  0.00  0.00    +0.000 OA
BRANCH  22  23
ATOM     23  C   UNL     1       0.472   8.982  20.835  0.00  0.00    +0.000 C 
BRANCH  23  24
ATOM     24  C   UNL     1       0.608  10.427  20.330  0.00  0.00    +0.000 C 
ATOM     25  C   UNL     1       1.152  10.504  18.898  0.00  0.00    +0.000 C 
ATOM     26  C   UNL     1       0.147  10.018  17.854  0.00  0.00    +0.000 C 
ATOM     27  C   UNL     1      -1.182  10.760  17.965  0.00  0.00    +0.000 C 
ATOM     28  C   UNL     1      -1.758  10.694  19.376  0.00  0.00    +0.000 C 
ATOM     29  C   UNL     1      -0.747  11.154  20.429  0.00  0.00    +0.000 C 
ENDBRANCH  23  24
ENDBRANCH  22  23
ENDBRANCH  19  22
ENDBRANCH   1  16
BRANCH   1  30
ATOM     30  O   UNL     1       1.724   2.599  18.369  0.00  0.00    +0.000 OA
ATOM     31  H   UNL     1       1.104   2.987  19.006  0.00  0.00    +0.000 HD
ENDBRANCH   1  30
TORSDOF 8
ENDMDL
MODEL 8
REMARK VINA RESULT:      -8.1      3.122      7.707
REMARK  Name = 
REMARK  10 active torsions:
REMARK  status: ('A' for Active; 'I' for Inactive)
REMARK    1  A    between atoms: C_1  and  O_2
REMARK    2  A    between atoms: O_2  and  C_3
REMARK    3  A    between atoms: C_5  and  O_6
REMARK    4  A    between atoms: O_6  and  C_7
REMARK    5  A    between atoms: C_11  and  C_12
REMARK    6  A    between atoms: C_12  and  O_13
REMARK    7  A    between atoms: C_12  and  C_14
REMARK    8  A    between atoms: C_17  and  O_18
REMARK    9  A    between atoms: O_18  and  C_19
REMARK   10  A    between atoms: C_19  and  C_20
REMARK                            x       y       z     vdW  Elec       q    Type
REMARK                         _______ _______ _______ _____ _____    ______ ____
ROOT
ATOM      1  C   UNL     1       6.121   4.751  17.887  0.00  0.00    +0.000 C 
ENDROOT
BRANCH   1   8
ATOM      2  C   UNL     1       2.326   6.364  19.771  0.00  0.00    +0.000 A 
ATOM      3  C   UNL     1       1.454   5.276  19.860  0.00  0.00    +0.000 A 
ATOM      4  C   UNL     1       1.903   3.943  19.763  0.00  0.00    +0.000 A 
ATOM      5  C   UNL     1       3.263   3.738  19.567  0.00  0.00    +0.000 A 
ATOM      6  C   UNL     1       4.126   4.823  19.459  0.00  0.00    +0.000 A 
ATOM      7  C   UNL     1       3.677   6.135  19.552  0.00  0.00    +0.000 A 
ATOM      8  C   UNL     1       5.526   4.369  19.262  0.00  0.00    +0.000 C 
ATOM      9  O   UNL     1       5.396   2.939  19.356  0.00  0.00    +0.000 OA
ATOM     10  C   UNL     1       4.096   2.531  19.430  0.00  0.00    +0.000 C 
ATOM     11  O   UNL     1       3.763   1.363  19.388  0.00  0.00    +0.000 OA
BRANCH   2  13
ATOM     12  C   UNL     1       1.330   8.067  21.064  0.00  0.00    +0.000 C 
ATOM     13  O   UNL     1       1.958   7.677  19.848  0.00  0.00    +0.000 OA
ENDBRANCH   2  13
BRANCH   4  14
ATOM     14  O   UNL     1       0.863   3.072  19.896  0.00  0.00    +0.000 OA
ATOM     15  C   UNL     1       0.490   2.240  18.816  0.00  0.00    +0.000 C 
ENDBRANCH   4  14
ENDBRANCH   1   8
BRANCH   1  16
ATOM     16  C   UNL     1       6.809   6.101  17.914  0.00  0.00    +0.000 A 
ATOM     17  C   UNL     1       7.881   6.290  18.787  0.00  0.00    +0.000 A 
ATOM     18  C   UNL     1       8.526   7.523  18.863  0.00  0.00    +0.000 A 
ATOM     19  C   UNL     1       8.116   8.598  18.071  0.00  0.00    +0.000 A 
ATOM     20  C   UNL     1       7.053   8.416  17.184  0.00  0.00    +0.000 A 
ATOM     21  C   UNL     1       6.404   7.177  17.104  0.00  0.00    +0.000 A 
BRANCH  19  22
ATOM     22  O   UNL     1       8.688   9.850  18.106  0.00  0.00    +0.000 OA
BRANCH  22  23
ATOM     23  C   UNL     1       9.341  10.158  19.342  0.00  0.00    +0.000 C 
BRANCH  23  24
ATOM     24  C   UNL     1       9.451  11.672  19.580  0.00  0.00    +0.000 C 
ATOM     25  C   UNL     1      10.602  12.039  20.526  0.00  0.00    +0.000 C 
ATOM     26  C   UNL     1      11.978  11.831  19.897  0.00  0.00    +0.000 C 
ATOM     27  C   UNL     1      12.111  12.581  18.574  0.00  0.00    +0.000 C 
ATOM     28  C   UNL     1      10.988  12.231  17.602  0.00  0.00    +0.000 C 
ATOM     29  C   UNL     1       9.607  12.411  18.236  0.00  0.00    +0.000 C 
ENDBRANCH  23  24
ENDBRANCH  22  23
ENDBRANCH  19  22
ENDBRANCH   1  16
BRANCH   1  30
ATOM     30  O   UNL     1       5.129   4.774  16.859  0.00  0.00    +0.000 OA
ATOM     31  H   UNL     1       4.256   4.768  17.282  0.00  0.00    +0.000 HD
ENDBRANCH   1  30
TORSDOF 8
ENDMDL
MODEL 9
REMARK VINA RESULT:      -8.1      1.343      2.064
REMARK  Name = 
REMARK  10 active torsions:
REMARK  status: ('A' for Active; 'I' for Inactive)
REMARK    1  A    between atoms: C_1  and  O_2
REMARK    2  A    between atoms: O_2  and  C_3
REMARK    3  A    between atoms: C_5  and  O_6
REMARK    4  A    between atoms: O_6  and  C_7
REMARK    5  A    between atoms: C_11  and  C_12
REMARK    6  A    between atoms: C_12  and  O_13
REMARK    7  A    between atoms: C_12  and  C_14
REMARK    8  A    between atoms: C_17  and  O_18
REMARK    9  A    between atoms: O_18  and  C_19
REMARK   10  A    between atoms: C_19  and  C_20
REMARK                            x       y       z     vdW  Elec       q    Type
REMARK                         _______ _______ _______ _____ _____    ______ ____
ROOT
ATOM      1  C   UNL     1       1.910   3.528  17.669  0.00  0.00    +0.000 C 
ENDROOT
BRANCH   1   8
ATOM      2  C   UNL     1       5.839   4.971  15.925  0.00  0.00    +0.000 A 
ATOM      3  C   UNL     1       6.702   5.127  17.012  0.00  0.00    +0.000 A 
ATOM      4  C   UNL     1       6.450   4.530  18.264  0.00  0.00    +0.000 A 
ATOM      5  C   UNL     1       5.292   3.772  18.391  0.00  0.00    +0.000 A 
ATOM      6  C   UNL     1       4.424   3.635  17.313  0.00  0.00    +0.000 A 
ATOM      7  C   UNL     1       4.677   4.228  16.082  0.00  0.00    +0.000 A 
ATOM      8  C   UNL     1       3.264   2.781  17.672  0.00  0.00    +0.000 C 
ATOM      9  O   UNL     1       3.591   2.374  19.013  0.00  0.00    +0.000 OA
ATOM     10  C   UNL     1       4.700   3.005  19.499  0.00  0.00    +0.000 C 
ATOM     11  O   UNL     1       5.073   2.899  20.651  0.00  0.00    +0.000 OA
BRANCH   2  13
ATOM     12  C   UNL     1       7.063   4.957  13.909  0.00  0.00    +0.000 C 
ATOM     13  O   UNL     1       6.018   5.526  14.690  0.00  0.00    +0.000 OA
ENDBRANCH   2  13
BRANCH   4  14
ATOM     14  O   UNL     1       7.446   4.820  19.147  0.00  0.00    +0.000 OA
ATOM     15  C   UNL     1       8.037   6.105  19.155  0.00  0.00    +0.000 C 
ENDBRANCH   4  14
ENDBRANCH   1   8
BRANCH   1  16
ATOM     16  C   UNL     1       1.950   4.793  18.503  0.00  0.00    +0.000 A 
ATOM     17  C   UNL     1       1.527   4.733  19.832  0.00  0.00    +0.000 A 
ATOM     18  C   UNL     1       1.522   5.877  20.628  0.00  0.00    +0.000 A 
ATOM     19  C   UNL     1       1.937   7.109  20.117  0.00  0.00    +0.000 A 
ATOM     20  C   UNL     1       2.375   7.178  18.792  0.00  0.00    +0.000 A 
ATOM     21  C   UNL     1       2.383   6.029  17.991  0.00  0.00    +0.000 A 
BRANCH  19  22
ATOM     22  O   UNL     1       1.940   8.285  20.833  0.00  0.00    +0.000 OA
BRANCH  22  23
ATOM     23  C   UNL     1       0.729   9.039  20.720  0.00  0.00    +0.000 C 
BRANCH  23  24
ATOM     24  C   UNL     1       0.915  10.320  19.893  0.00  0.00    +0.000 C 
ATOM     25  C   UNL     1       0.198  10.259  18.539  0.00  0.00    +0.000 C 
ATOM     26  C   UNL     1      -1.323  10.321  18.668  0.00  0.00    +0.000 C 
ATOM     27  C   UNL     1      -1.771  11.547  19.458  0.00  0.00    +0.000 C 
ATOM     28  C   UNL     1      -1.085  11.634  20.818  0.00  0.00    +0.000 C 
ATOM     29  C   UNL     1       0.438  11.545  20.697  0.00  0.00    +0.000 C 
ENDBRANCH  23  24
ENDBRANCH  22  23
ENDBRANCH  19  22
ENDBRANCH   1  16
BRANCH   1  30
ATOM     30  O   UNL     1       0.842   2.709  18.147  0.00  0.00    +0.000 OA
ATOM     31  H   UNL     1       1.130   1.784  18.106  0.00  0.00    +0.000 HD
ENDBRANCH   1  30
TORSDOF 8
ENDMDL
