MODEL 1
REMARK VINA RESULT:      -7.7      0.000      0.000
REMARK  Name = 
REMARK  5 active torsions:
REMARK  status: ('A' for Active; 'I' for Inactive)
REMARK    1  A    between atoms: C_2  and  C_3
REMARK    2  A    between atoms: C_3  and  C_4
REMARK    3  A    between atoms: C_4  and  N_5
REMARK    4  A    between atoms: N_10  and  C_11
REMARK    5  A    between atoms: C_11  and  C_12
REMARK                            x       y       z     vdW  Elec       q    Type
REMARK                         _______ _______ _______ _____ _____    ______ ____
ROOT
ATOM      1  O   UNL     1       5.357   3.797  19.432  0.00  0.00    +0.000 OA
ATOM      2  C   UNL     1       5.495   4.955  19.114  0.00  0.00    +0.000 C 
ATOM      3  N   UNL     1       4.475   5.869  19.030  0.00  0.00    +0.000 N 
ATOM      4  H   UNL     1       4.786   6.815  18.819  0.00  0.00    +0.000 HD
ENDROOT
BRANCH   3   5
ATOM      5  C   UNL     1       3.012   5.698  19.346  0.00  0.00    +0.000 C 
ATOM      6  C   UNL     1       2.428   4.638  18.308  0.00  0.00    +0.000 C 
ATOM      7  C   UNL     1       1.567   4.052  19.433  0.00  0.00    +0.000 C 
ATOM      8  C   UNL     1       2.576   4.638  20.442  0.00  0.00    +0.000 C 
BRANCH   5   9
ATOM      9  C   UNL     1       2.253   7.113  19.491  0.00  0.00    +0.000 A 
ATOM     10  C   UNL     1       2.166   7.972  18.376  0.00  0.00    +0.000 A 
ATOM     11  C   UNL     1       1.544   9.218  18.435  0.00  0.00    +0.000 A 
ATOM     12  C   UNL     1       0.986   9.655  19.630  0.00  0.00    +0.000 A 
ATOM     13  C   UNL     1       1.050   8.836  20.750  0.00  0.00    +0.000 A 
ATOM     14 BR   UNL     1       0.296   9.422  22.383  0.00  0.00    +0.000 Br
ATOM     15  C   UNL     1       1.669   7.584  20.685  0.00  0.00    +0.000 A 
ENDBRANCH   5   9
ENDBRANCH   3   5
BRANCH   2  16
ATOM     16  C   UNL     1       6.885   5.523  18.835  0.00  0.00    +0.000 C 
BRANCH  16  17
ATOM     17  C   UNL     1       6.928   6.468  17.639  0.00  0.00    +0.000 C 
BRANCH  17  18
ATOM     18  N   UNL     1       6.636   5.750  16.409  0.00  0.00    +0.000 N 
ATOM     19  C   UNL     1       5.520   5.822  15.638  0.00  0.00    +0.000 A 
ATOM     20  N   UNL     1       5.601   4.945  14.663  0.00  0.00    +0.000 NA
ATOM     21  C   UNL     1       6.806   4.346  14.888  0.00  0.00    +0.000 A 
ATOM     22  N   UNL     1       7.478   4.803  15.948  0.00  0.00    +0.000 NA
ENDBRANCH  17  18
ENDBRANCH  16  17
ENDBRANCH   2  16
TORSDOF 5
ENDMDL
MODEL 2
REMARK VINA RESULT:      -7.5      1.640      2.193
REMARK  Name = 
REMARK  5 active torsions:
REMARK  status: ('A' for Active; 'I' for Inactive)
REMARK    1  A    between atoms: C_2  and  C_3
REMARK    2  A    between atoms: C_3  and  C_4
REMARK    3  A    between atoms: C_4  and  N_5
REMARK    4  A    between atoms: N_10  and  C_11
REMARK    5  A    between atoms: C_11  and  C_12
REMARK                            x       y       z     vdW  Elec       q    Type
REMARK                         _______ _______ _______ _____ _____    ______ ____
ROOT
ATOM      1  O   UNL     1       5.690   5.231  19.699  0.00  0.00    +0.000 OA
ATOM      2  C   UNL     1       5.657   4.714  18.607  0.00  0.00    +0.000 C 
ATOM      3  N   UNL     1       4.544   4.132  18.052  0.00  0.00    +0.000 N 
ATOM      4  H   UNL     1       4.681   3.812  17.095  0.00  0.00    +0.000 HD
ENDROOT
BRANCH   3   5
ATOM      5  C   UNL     1       3.144   4.038  18.598  0.00  0.00    +0.000 C 
ATOM      6  C   UNL     1       2.258   3.300  17.495  0.00  0.00    +0.000 C 
ATOM      7  C   UNL     1       1.521   2.564  18.621  0.00  0.00    +0.000 C 
ATOM      8  C   UNL     1       2.753   2.807  19.518  0.00  0.00    +0.000 C 
BRANCH   5   9
ATOM      9  C   UNL     1       2.619   5.452  19.168  0.00  0.00    +0.000 A 
ATOM     10  C   UNL     1       2.178   5.540  20.505  0.00  0.00    +0.000 A 
ATOM     11  C   UNL     1       1.691   6.724  21.058  0.00  0.00    +0.000 A 
ATOM     12  C   UNL     1       1.622   7.873  20.279  0.00  0.00    +0.000 A 
ATOM     13  C   UNL     1       2.049   7.825  18.957  0.00  0.00    +0.000 A 
ATOM     14 BR   UNL     1       1.956   9.381  17.886  0.00  0.00    +0.000 Br
ATOM     15  C   UNL     1       2.542   6.637  18.409  0.00  0.00    +0.000 A 
ENDBRANCH   5   9
ENDBRANCH   3   5
BRANCH   2  16
ATOM     16  C   UNL     1       6.886   4.730  17.701  0.00  0.00    +0.000 C 
BRANCH  16  17
ATOM     17  C   UNL     1       6.836   5.808  16.625  0.00  0.00    +0.000 C 
BRANCH  17  18
ATOM     18  N   UNL     1       6.728   5.208  15.305  0.00  0.00    +0.000 N 
ATOM     19  C   UNL     1       5.825   4.292  14.867  0.00  0.00    +0.000 A 
ATOM     20  N   UNL     1       6.124   3.929  13.641  0.00  0.00    +0.000 NA
ATOM     21  C   UNL     1       7.243   4.662  13.367  0.00  0.00    +0.000 A 
ATOM     22  N   UNL     1       7.654   5.460  14.356  0.00  0.00    +0.000 NA
ENDBRANCH  17  18
ENDBRANCH  16  17
ENDBRANCH   2  16
TORSDOF 5
ENDMDL
MODEL 3
REMARK VINA RESULT:      -7.4      1.988      2.736
REMARK  Name = 
REMARK  5 active torsions:
REMARK  status: ('A' for Active; 'I' for Inactive)
REMARK    1  A    between atoms: C_2  and  C_3
REMARK    2  A    between atoms: C_3  and  C_4
REMARK    3  A    between atoms: C_4  and  N_5
REMARK    4  A    between atoms: N_10  and  C_11
REMARK    5  A    between atoms: C_11  and  C_12
REMARK                            x       y       z     vdW  Elec       q    Type
REMARK                         _______ _______ _______ _____ _____    ______ ____
ROOT
ATOM      1  O   UNL     1       6.606   4.671  19.357  0.00  0.00    +0.000 OA
ATOM      2  C   UNL     1       6.369   4.427  18.197  0.00  0.00    +0.000 C 
ATOM      3  N   UNL     1       5.186   3.906  17.735  0.00  0.00    +0.000 N 
ATOM      4  H   UNL     1       5.136   3.834  16.721  0.00  0.00    +0.000 HD
ENDROOT
BRANCH   3   5
ATOM      5  C   UNL     1       3.929   3.573  18.495  0.00  0.00    +0.000 C 
ATOM      6  C   UNL     1       3.084   2.569  17.589  0.00  0.00    +0.000 C 
ATOM      7  C   UNL     1       2.689   1.802  18.856  0.00  0.00    +0.000 C 
ATOM      8  C   UNL     1       3.948   2.377  19.537  0.00  0.00    +0.000 C 
BRANCH   5   9
ATOM      9  C   UNL     1       3.190   4.893  19.053  0.00  0.00    +0.000 A 
ATOM     10  C   UNL     1       2.610   4.872  20.338  0.00  0.00    +0.000 A 
ATOM     11  C   UNL     1       1.937   5.969  20.876  0.00  0.00    +0.000 A 
ATOM     12  C   UNL     1       1.814   7.136  20.132  0.00  0.00    +0.000 A 
ATOM     13  C   UNL     1       2.375   7.195  18.861  0.00  0.00    +0.000 A 
ATOM     14 BR   UNL     1       2.212   8.777  17.839  0.00  0.00    +0.000 Br
ATOM     15  C   UNL     1       3.054   6.095  18.329  0.00  0.00    +0.000 A 
ENDBRANCH   5   9
ENDBRANCH   3   5
BRANCH   2  16
ATOM     16  C   UNL     1       7.389   4.756  17.109  0.00  0.00    +0.000 C 
BRANCH  16  17
ATOM     17  C   UNL     1       6.837   5.655  16.009  0.00  0.00    +0.000 C 
BRANCH  17  18
ATOM     18  N   UNL     1       6.690   4.912  14.768  0.00  0.00    +0.000 N 
ATOM     19  C   UNL     1       7.496   4.932  13.674  0.00  0.00    +0.000 A 
ATOM     20  N   UNL     1       6.967   4.196  12.723  0.00  0.00    +0.000 NA
ATOM     21  C   UNL     1       5.813   3.742  13.292  0.00  0.00    +0.000 A 
ATOM     22  N   UNL     1       5.597   4.154  14.544  0.00  0.00    +0.000 NA
ENDBRANCH  17  18
ENDBRANCH  16  17
ENDBRANCH   2  16
TORSDOF 5
ENDMDL
MODEL 4
REMARK VINA RESULT:      -7.3      1.319      2.141
REMARK  Name = 
REMARK  5 active torsions:
REMARK  status: ('A' for Active; 'I' for Inactive)
REMARK    1  A    between atoms: C_2  and  C_3
REMARK    2  A    between atoms: C_3  and  C_4
REMARK    3  A    between atoms: C_4  and  N_5
REMARK    4  A    between atoms: N_10  and  C_11
REMARK    5  A    between atoms: C_11  and  C_12
REMARK                            x       y       z     vdW  Elec       q    Type
REMARK                         _______ _______ _______ _____ _____    ______ ____
ROOT
ATOM      1  O   UNL     1       4.498   3.329  17.573  0.00  0.00    +0.000 OA
ATOM      2  C   UNL     1       4.425   4.407  17.030  0.00  0.00    +0.000 C 
ATOM      3  N   UNL     1       3.614   5.434  17.441  0.00  0.00    +0.000 N 
ATOM      4  H   UNL     1       3.736   6.294  16.909  0.00  0.00    +0.000 HD
ENDROOT
BRANCH   3   5
ATOM      5  C   UNL     1       2.698   5.508  18.634  0.00  0.00    +0.000 C 
ATOM      6  C   UNL     1       1.604   4.360  18.459  0.00  0.00    +0.000 C 
ATOM      7  C   UNL     1       1.677   4.099  19.968  0.00  0.00    +0.000 C 
ATOM      8  C   UNL     1       3.087   4.725  19.958  0.00  0.00    +0.000 C 
BRANCH   5   9
ATOM      9  C   UNL     1       2.180   7.010  18.911  0.00  0.00    +0.000 A 
ATOM     10  C   UNL     1       2.164   7.944  17.855  0.00  0.00    +0.000 A 
ATOM     11  C   UNL     1       1.750   9.264  18.027  0.00  0.00    +0.000 A 
ATOM     12  C   UNL     1       1.341   9.702  19.280  0.00  0.00    +0.000 A 
ATOM     13  C   UNL     1       1.342   8.810  20.346  0.00  0.00    +0.000 A 
ATOM     14 BR   UNL     1       0.790   9.394  22.058  0.00  0.00    +0.000 Br
ATOM     15  C   UNL     1       1.752   7.484  20.167  0.00  0.00    +0.000 A 
ENDBRANCH   5   9
ENDBRANCH   3   5
BRANCH   2  16
ATOM     16  C   UNL     1       5.318   4.738  15.836  0.00  0.00    +0.000 C 
BRANCH  16  17
ATOM     17  C   UNL     1       6.801   4.513  16.103  0.00  0.00    +0.000 C 
BRANCH  17  18
ATOM     18  N   UNL     1       7.232   5.272  17.266  0.00  0.00    +0.000 N 
ATOM     19  C   UNL     1       7.396   6.616  17.381  0.00  0.00    +0.000 A 
ATOM     20  N   UNL     1       7.893   6.900  18.564  0.00  0.00    +0.000 NA
ATOM     21  C   UNL     1       8.021   5.672  19.146  0.00  0.00    +0.000 A 
ATOM     22  N   UNL     1       7.631   4.642  18.390  0.00  0.00    +0.000 NA
ENDBRANCH  17  18
ENDBRANCH  16  17
ENDBRANCH   2  16
TORSDOF 5
ENDMDL
MODEL 5
REMARK VINA RESULT:      -7.3      4.047      5.579
REMARK  Name = 
REMARK  5 active torsions:
REMARK  status: ('A' for Active; 'I' for Inactive)
REMARK    1  A    between atoms: C_2  and  C_3
REMARK    2  A    between atoms: C_3  and  C_4
REMARK    3  A    between atoms: C_4  and  N_5
REMARK    4  A    between atoms: N_10  and  C_11
REMARK    5  A    between atoms: C_11  and  C_12
REMARK                            x       y       z     vdW  Elec       q    Type
REMARK                         _______ _______ _______ _____ _____    ______ ____
ROOT
ATOM      1  O   UNL     1       8.044   6.708  18.664  0.00  0.00    +0.000 OA
ATOM      2  C   UNL     1       7.655   7.462  17.802  0.00  0.00    +0.000 C 
ATOM      3  N   UNL     1       6.718   7.144  16.851  0.00  0.00    +0.000 N 
ATOM      4  H   UNL     1       6.458   7.925  16.252  0.00  0.00    +0.000 HD
ENDROOT
BRANCH   3   5
ATOM      5  C   UNL     1       5.935   5.870  16.672  0.00  0.00    +0.000 C 
ATOM      6  C   UNL     1       5.702   5.677  15.106  0.00  0.00    +0.000 C 
ATOM      7  C   UNL     1       5.922   4.171  15.286  0.00  0.00    +0.000 C 
ATOM      8  C   UNL     1       6.713   4.491  16.571  0.00  0.00    +0.000 C 
BRANCH   5   9
ATOM      9  C   UNL     1       4.649   5.806  17.642  0.00  0.00    +0.000 A 
ATOM     10  C   UNL     1       3.767   6.905  17.697  0.00  0.00    +0.000 A 
ATOM     11  C   UNL     1       2.648   6.927  18.529  0.00  0.00    +0.000 A 
ATOM     12  C   UNL     1       2.375   5.840  19.350  0.00  0.00    +0.000 A 
ATOM     13  C   UNL     1       3.221   4.737  19.322  0.00  0.00    +0.000 A 
ATOM     14 BR   UNL     1       2.862   3.253  20.436  0.00  0.00    +0.000 Br
ATOM     15  C   UNL     1       4.339   4.717  18.481  0.00  0.00    +0.000 A 
ENDBRANCH   5   9
ENDBRANCH   3   5
BRANCH   2  16
ATOM     16  C   UNL     1       8.151   8.906  17.751  0.00  0.00    +0.000 C 
BRANCH  16  17
ATOM     17  C   UNL     1       8.905   9.336  19.003  0.00  0.00    +0.000 C 
BRANCH  17  18
ATOM     18  N   UNL     1       9.327  10.723  18.895  0.00  0.00    +0.000 N 
ATOM     19  C   UNL     1       9.922  11.342  17.841  0.00  0.00    +0.000 A 
ATOM     20  N   UNL     1      10.234  12.574  18.174  0.00  0.00    +0.000 NA
ATOM     21  C   UNL     1       9.806  12.662  19.467  0.00  0.00    +0.000 A 
ATOM     22  N   UNL     1       9.245  11.553  19.955  0.00  0.00    +0.000 NA
ENDBRANCH  17  18
ENDBRANCH  16  17
ENDBRANCH   2  16
TORSDOF 5
ENDMDL
MODEL 6
REMARK VINA RESULT:      -7.3      3.297      6.381
REMARK  Name = 
REMARK  5 active torsions:
REMARK  status: ('A' for Active; 'I' for Inactive)
REMARK    1  A    between atoms: C_2  and  C_3
REMARK    2  A    between atoms: C_3  and  C_4
REMARK    3  A    between atoms: C_4  and  N_5
REMARK    4  A    between atoms: N_10  and  C_11
REMARK    5  A    between atoms: C_11  and  C_12
REMARK                            x       y       z     vdW  Elec       q    Type
REMARK                         _______ _______ _______ _____ _____    ______ ____
ROOT
ATOM      1  O   UNL     1       4.244   2.729  17.700  0.00  0.00    +0.000 OA
ATOM      2  C   UNL     1       3.609   3.694  17.344  0.00  0.00    +0.000 C 
ATOM      3  N   UNL     1       4.119   4.737  16.611  0.00  0.00    +0.000 N 
ATOM      4  H   UNL     1       3.423   5.427  16.338  0.00  0.00    +0.000 HD
ENDROOT
BRANCH   3   5
ATOM      5  C   UNL     1       5.503   4.918  16.044  0.00  0.00    +0.000 C 
ATOM      6  C   UNL     1       5.937   3.520  15.409  0.00  0.00    +0.000 C 
ATOM      7  C   UNL     1       6.605   4.283  14.259  0.00  0.00    +0.000 C 
ATOM      8  C   UNL     1       5.668   5.468  14.566  0.00  0.00    +0.000 C 
BRANCH   5   9
ATOM      9  C   UNL     1       6.505   5.613  17.099  0.00  0.00    +0.000 A 
ATOM     10  C   UNL     1       7.016   4.856  18.173  0.00  0.00    +0.000 A 
ATOM     11  C   UNL     1       7.869   5.398  19.134  0.00  0.00    +0.000 A 
ATOM     12  C   UNL     1       8.238   6.735  19.055  0.00  0.00    +0.000 A 
ATOM     13  C   UNL     1       7.755   7.513  18.009  0.00  0.00    +0.000 A 
ATOM     14 BR   UNL     1       8.247   9.335  17.893  0.00  0.00    +0.000 Br
ATOM     15  C   UNL     1       6.905   6.964  17.044  0.00  0.00    +0.000 A 
ENDBRANCH   5   9
ENDBRANCH   3   5
BRANCH   2  16
ATOM     16  C   UNL     1       2.114   3.795  17.640  0.00  0.00    +0.000 C 
BRANCH  16  17
ATOM     17  C   UNL     1       1.785   4.716  18.809  0.00  0.00    +0.000 C 
BRANCH  17  18
ATOM     18  N   UNL     1       1.806   3.981  20.062  0.00  0.00    +0.000 N 
ATOM     19  C   UNL     1       2.299   4.379  21.264  0.00  0.00    +0.000 A 
ATOM     20  N   UNL     1       2.216   3.390  22.124  0.00  0.00    +0.000 NA
ATOM     21  C   UNL     1       1.658   2.386  21.386  0.00  0.00    +0.000 A 
ATOM     22  N   UNL     1       1.390   2.699  20.116  0.00  0.00    +0.000 NA
ENDBRANCH  17  18
ENDBRANCH  16  17
ENDBRANCH   2  16
TORSDOF 5
ENDMDL
MODEL 7
REMARK VINA RESULT:      -7.2      3.988      5.548
REMARK  Name = 
REMARK  5 active torsions:
REMARK  status: ('A' for Active; 'I' for Inactive)
REMARK    1  A    between atoms: C_2  and  C_3
REMARK    2  A    between atoms: C_3  and  C_4
REMARK    3  A    between atoms: C_4  and  N_5
REMARK    4  A    between atoms: N_10  and  C_11
REMARK    5  A    between atoms: C_11  and  C_12
REMARK                            x       y       z     vdW  Elec       q    Type
REMARK                         _______ _______ _______ _____ _____    ______ ____
ROOT
ATOM      1  O   UNL     1       8.147   6.981  18.761  0.00  0.00    +0.000 OA
ATOM      2  C   UNL     1       7.814   7.642  17.805  0.00  0.00    +0.000 C 
ATOM      3  N   UNL     1       6.905   7.241  16.858  0.00  0.00    +0.000 N 
ATOM      4  H   UNL     1       6.691   7.955  16.165  0.00  0.00    +0.000 HD
ENDROOT
BRANCH   3   5
ATOM      5  C   UNL     1       6.091   5.976  16.791  0.00  0.00    +0.000 C 
ATOM      6  C   UNL     1       6.012   5.548  15.257  0.00  0.00    +0.000 C 
ATOM      7  C   UNL     1       6.148   4.082  15.688  0.00  0.00    +0.000 C 
ATOM      8  C   UNL     1       6.815   4.579  16.987  0.00  0.00    +0.000 C 
BRANCH   5   9
ATOM      9  C   UNL     1       4.710   6.098  17.615  0.00  0.00    +0.000 A 
ATOM     10  C   UNL     1       4.302   5.036  18.448  0.00  0.00    +0.000 A 
ATOM     11  C   UNL     1       3.111   5.065  19.172  0.00  0.00    +0.000 A 
ATOM     12  C   UNL     1       2.273   6.169  19.078  0.00  0.00    +0.000 A 
ATOM     13  C   UNL     1       2.641   7.237  18.268  0.00  0.00    +0.000 A 
ATOM     14 BR   UNL     1       1.507   8.743  18.130  0.00  0.00    +0.000 Br
ATOM     15  C   UNL     1       3.841   7.206  17.549  0.00  0.00    +0.000 A 
ENDBRANCH   5   9
ENDBRANCH   3   5
BRANCH   2  16
ATOM     16  C   UNL     1       8.355   9.057  17.612  0.00  0.00    +0.000 C 
BRANCH  16  17
ATOM     17  C   UNL     1       8.956   9.658  18.877  0.00  0.00    +0.000 C 
BRANCH  17  18
ATOM     18  N   UNL     1       9.561  10.948  18.592  0.00  0.00    +0.000 N 
ATOM     19  C   UNL     1      10.727  11.455  19.072  0.00  0.00    +0.000 A 
ATOM     20  N   UNL     1      10.876  12.691  18.654  0.00  0.00    +0.000 NA
ATOM     21  C   UNL     1       9.751  12.901  17.910  0.00  0.00    +0.000 A 
ATOM     22  N   UNL     1       8.913  11.863  17.843  0.00  0.00    +0.000 NA
ENDBRANCH  17  18
ENDBRANCH  16  17
ENDBRANCH   2  16
TORSDOF 5
ENDMDL
MODEL 8
REMARK VINA RESULT:      -7.2      3.883      7.049
REMARK  Name = 
REMARK  5 active torsions:
REMARK  status: ('A' for Active; 'I' for Inactive)
REMARK    1  A    between atoms: C_2  and  C_3
REMARK    2  A    between atoms: C_3  and  C_4
REMARK    3  A    between atoms: C_4  and  N_5
REMARK    4  A    between atoms: N_10  and  C_11
REMARK    5  A    between atoms: C_11  and  C_12
REMARK                            x       y       z     vdW  Elec       q    Type
REMARK                         _______ _______ _______ _____ _____    ______ ____
ROOT
ATOM      1  O   UNL     1       2.384   6.745  18.062  0.00  0.00    +0.000 OA
ATOM      2  C   UNL     1       2.387   6.335  19.199  0.00  0.00    +0.000 C 
ATOM      3  N   UNL     1       2.698   5.050  19.566  0.00  0.00    +0.000 N 
ATOM      4  H   UNL     1       2.721   4.902  20.573  0.00  0.00    +0.000 HD
ENDROOT
BRANCH   3   5
ATOM      5  C   UNL     1       3.144   3.895  18.707  0.00  0.00    +0.000 C 
ATOM      6  C   UNL     1       3.009   2.573  19.590  0.00  0.00    +0.000 C 
ATOM      7  C   UNL     1       2.520   1.825  18.345  0.00  0.00    +0.000 C 
ATOM      8  C   UNL     1       2.091   3.185  17.757  0.00  0.00    +0.000 C 
BRANCH   5   9
ATOM      9  C   UNL     1       4.558   4.183  17.989  0.00  0.00    +0.000 A 
ATOM     10  C   UNL     1       5.652   4.625  18.761  0.00  0.00    +0.000 A 
ATOM     11  C   UNL     1       6.897   4.914  18.204  0.00  0.00    +0.000 A 
ATOM     12  C   UNL     1       7.089   4.776  16.834  0.00  0.00    +0.000 A 
ATOM     13  C   UNL     1       6.034   4.341  16.040  0.00  0.00    +0.000 A 
ATOM     14 BR   UNL     1       6.283   4.151  14.175  0.00  0.00    +0.000 Br
ATOM     15  C   UNL     1       4.790   4.046  16.605  0.00  0.00    +0.000 A 
ENDBRANCH   5   9
ENDBRANCH   3   5
BRANCH   2  16
ATOM     16  C   UNL     1       2.096   7.277  20.366  0.00  0.00    +0.000 C 
BRANCH  16  17
ATOM     17  C   UNL     1       1.451   8.591  19.942  0.00  0.00    +0.000 C 
BRANCH  17  18
ATOM     18  N   UNL     1       0.869   9.269  21.088  0.00  0.00    +0.000 N 
ATOM     19  C   UNL     1       1.232   9.177  22.395  0.00  0.00    +0.000 A 
ATOM     20  N   UNL     1       0.396   9.870  23.134  0.00  0.00    +0.000 NA
ATOM     21  C   UNL     1      -0.480  10.375  22.217  0.00  0.00    +0.000 A 
ATOM     22  N   UNL     1      -0.234  10.033  20.950  0.00  0.00    +0.000 NA
ENDBRANCH  17  18
ENDBRANCH  16  17
ENDBRANCH   2  16
TORSDOF 5
ENDMDL
MODEL 9
REMARK VINA RESULT:      -7.1      1.512      2.194
REMARK  Name = 
REMARK  5 active torsions:
REMARK  status: ('A' for Active; 'I' for Inactive)
REMARK    1  A    between atoms: C_2  and  C_3
REMARK    2  A    between atoms: C_3  and  C_4
REMARK    3  A    between atoms: C_4  and  N_5
REMARK    4  A    between atoms: N_10  and  C_11
REMARK    5  A    between atoms: C_11  and  C_12
REMARK                            x       y       z     vdW  Elec       q    Type
REMARK                         _______ _______ _______ _____ _____    ______ ____
ROOT
ATOM      1  O   UNL     1       5.472   5.052  19.549  0.00  0.00    +0.000 OA
ATOM      2  C   UNL     1       5.014   4.655  18.503  0.00  0.00    +0.000 C 
ATOM      3  N   UNL     1       3.678   4.458  18.259  0.00  0.00    +0.000 N 
ATOM      4  H   UNL     1       3.469   4.191  17.300  0.00  0.00    +0.000 HD
ENDROOT
BRANCH   3   5
ATOM      5  C   UNL     1       2.496   4.721  19.156  0.00  0.00    +0.000 C 
ATOM      6  C   UNL     1       1.335   3.724  18.707  0.00  0.00    +0.000 C 
ATOM      7  C   UNL     1       0.962   3.539  20.182  0.00  0.00    +0.000 C 
ATOM      8  C   UNL     1       2.398   3.967  20.548  0.00  0.00    +0.000 C 
BRANCH   5   9
ATOM      9  C   UNL     1       2.148   6.292  19.256  0.00  0.00    +0.000 A 
ATOM     10  C   UNL     1       2.274   7.105  18.111  0.00  0.00    +0.000 A 
ATOM     11  C   UNL     1       2.011   8.474  18.131  0.00  0.00    +0.000 A 
ATOM     12  C   UNL     1       1.615   9.085  19.315  0.00  0.00    +0.000 A 
ATOM     13  C   UNL     1       1.479   8.315  20.464  0.00  0.00    +0.000 A 
ATOM     14 BR   UNL     1       0.944   9.135  22.082  0.00  0.00    +0.000 Br
ATOM     15  C   UNL     1       1.737   6.941  20.438  0.00  0.00    +0.000 A 
ENDBRANCH   5   9
ENDBRANCH   3   5
BRANCH   2  16
ATOM     16  C   UNL     1       5.925   4.395  17.305  0.00  0.00    +0.000 C 
BRANCH  16  17
ATOM     17  C   UNL     1       7.404   4.603  17.607  0.00  0.00    +0.000 C 
BRANCH  17  18
ATOM     18  N   UNL     1       7.709   6.020  17.726  0.00  0.00    +0.000 N 
ATOM     19  C   UNL     1       8.209   6.686  18.799  0.00  0.00    +0.000 A 
ATOM     20  N   UNL     1       8.249   7.973  18.538  0.00  0.00    +0.000 NA
ATOM     21  C   UNL     1       7.749   8.046  17.270  0.00  0.00    +0.000 A 
ATOM     22  N   UNL     1       7.402   6.876  16.730  0.00  0.00    +0.000 NA
ENDBRANCH  17  18
ENDBRANCH  16  17
ENDBRANCH   2  16
TORSDOF 5
ENDMDL
