MODEL 1
REMARK VINA RESULT:      -7.2      0.000      0.000
REMARK  Name = 
REMARK  11 active torsions:
REMARK  status: ('A' for Active; 'I' for Inactive)
REMARK    1  A    between atoms: C_1  and  C_2
REMARK    2  A    between atoms: C_2  and  C_3
REMARK    3  A    between atoms: C_3  and  C_4
REMARK    4  A    between atoms: C_4  and  C_5
REMARK    5  A    between atoms: C_5  and  C_6
REMARK    6  A    between atoms: C_6  and  C_7
REMARK    7  A    between atoms: C_7  and  C_8
REMARK    8  A    between atoms: C_11  and  C_12
REMARK    9  A    between atoms: C_15  and  C_16
REMARK   10  A    between atoms: C_16  and  O_18
REMARK   11  A    between atoms: C_20  and  C_21
REMARK                            x       y       z     vdW  Elec       q    Type
REMARK                         _______ _______ _______ _____ _____    ______ ____
ROOT
ATOM      1  C   UNL     1       0.753   9.426  19.746  0.00  0.00    +0.000 A 
ATOM      2  C   UNL     1       1.304   8.365  20.468  0.00  0.00    +0.000 A 
ATOM      3  C   UNL     1       2.206   7.483  19.861  0.00  0.00    +0.000 A 
ATOM      4  C   UNL     1       2.548   7.593  18.498  0.00  0.00    +0.000 A 
ATOM      5  C   UNL     1       1.909   8.615  17.782  0.00  0.00    +0.000 A 
ATOM      6  C   UNL     1       1.067   9.545  18.397  0.00  0.00    +0.000 A 
ENDROOT
BRANCH   4   7
ATOM      7  C   UNL     1       3.525   6.657  17.869  0.00  0.00    +0.000 A 
ATOM      8  C   UNL     1       4.771   7.168  17.436  0.00  0.00    +0.000 A 
ATOM      9  C   UNL     1       5.724   6.373  16.785  0.00  0.00    +0.000 A 
ATOM     10  C   UNL     1       5.473   5.027  16.565  0.00  0.00    +0.000 A 
ATOM     11  C   UNL     1       4.252   4.478  16.986  0.00  0.00    +0.000 A 
ATOM     12  C   UNL     1       3.276   5.275  17.625  0.00  0.00    +0.000 A 
ATOM     13  C   UNL     1       1.992   4.578  18.005  0.00  0.00    +0.000 C 
BRANCH  10  14
ATOM     14  C   UNL     1       6.492   4.232  15.835  0.00  0.00    +0.000 C 
ATOM     15  O   UNL     1       6.210   3.508  14.894  0.00  0.00    +0.000 OA
BRANCH  14  16
ATOM     16  O   UNL     1       7.754   4.415  16.276  0.00  0.00    +0.000 OA
ATOM     17  H   UNL     1       7.991   5.335  16.496  0.00  0.00    +0.000 HD
ENDBRANCH  14  16
ENDBRANCH  10  14
ENDBRANCH   4   7
BRANCH   1  18
ATOM     18  C   UNL     1      -0.173  10.417  20.396  0.00  0.00    +0.000 C 
BRANCH  18  19
ATOM     19  C   UNL     1      -0.105  11.780  19.713  0.00  0.00    +0.000 C 
BRANCH  19  20
ATOM     20  C   UNL     1      -1.007  11.819  18.487  0.00  0.00    +0.000 C 
BRANCH  20  21
ATOM     21  C   UNL     1      -2.466  11.677  18.904  0.00  0.00    +0.000 C 
BRANCH  21  22
ATOM     22  C   UNL     1      -3.231  10.800  17.920  0.00  0.00    +0.000 C 
BRANCH  22  24
ATOM     23  C   UNL     1      -2.755  10.079  15.563  0.00  0.00    +0.000 C 
ATOM     24  C   UNL     1      -2.271  10.047  17.003  0.00  0.00    +0.000 C 
ENDBRANCH  22  24
ENDBRANCH  21  22
ENDBRANCH  20  21
ENDBRANCH  19  20
ENDBRANCH  18  19
ENDBRANCH   1  18
TORSDOF 9
ENDMDL
MODEL 2
REMARK VINA RESULT:      -7.1      3.775      5.765
REMARK  Name = 
REMARK  11 active torsions:
REMARK  status: ('A' for Active; 'I' for Inactive)
REMARK    1  A    between atoms: C_1  and  C_2
REMARK    2  A    between atoms: C_2  and  C_3
REMARK    3  A    between atoms: C_3  and  C_4
REMARK    4  A    between atoms: C_4  and  C_5
REMARK    5  A    between atoms: C_5  and  C_6
REMARK    6  A    between atoms: C_6  and  C_7
REMARK    7  A    between atoms: C_7  and  C_8
REMARK    8  A    between atoms: C_11  and  C_12
REMARK    9  A    between atoms: C_15  and  C_16
REMARK   10  A    between atoms: C_16  and  O_18
REMARK   11  A    between atoms: C_20  and  C_21
REMARK                            x       y       z     vdW  Elec       q    Type
REMARK                         _______ _______ _______ _____ _____    ______ ____
ROOT
ATOM      1  C   UNL     1       2.887   2.685  19.561  0.00  0.00    +0.000 A 
ATOM      2  C   UNL     1       4.156   3.205  19.824  0.00  0.00    +0.000 A 
ATOM      3  C   UNL     1       4.978   3.639  18.777  0.00  0.00    +0.000 A 
ATOM      4  C   UNL     1       4.588   3.516  17.427  0.00  0.00    +0.000 A 
ATOM      5  C   UNL     1       3.346   2.908  17.197  0.00  0.00    +0.000 A 
ATOM      6  C   UNL     1       2.488   2.543  18.237  0.00  0.00    +0.000 A 
ENDROOT
BRANCH   4   7
ATOM      7  C   UNL     1       5.467   3.999  16.322  0.00  0.00    +0.000 A 
ATOM      8  C   UNL     1       4.998   3.902  14.991  0.00  0.00    +0.000 A 
ATOM      9  C   UNL     1       5.779   4.279  13.890  0.00  0.00    +0.000 A 
ATOM     10  C   UNL     1       7.052   4.793  14.084  0.00  0.00    +0.000 A 
ATOM     11  C   UNL     1       7.552   4.914  15.389  0.00  0.00    +0.000 A 
ATOM     12  C   UNL     1       6.782   4.518  16.506  0.00  0.00    +0.000 A 
ATOM     13  C   UNL     1       7.440   4.669  17.856  0.00  0.00    +0.000 C 
BRANCH  10  14
ATOM     14  C   UNL     1       7.859   5.140  12.888  0.00  0.00    +0.000 C 
ATOM     15  O   UNL     1       7.629   4.678  11.782  0.00  0.00    +0.000 OA
BRANCH  14  16
ATOM     16  O   UNL     1       8.837   6.040  13.125  0.00  0.00    +0.000 OA
ATOM     17  H   UNL     1       8.574   6.975  13.040  0.00  0.00    +0.000 HD
ENDBRANCH  14  16
ENDBRANCH  10  14
ENDBRANCH   4   7
BRANCH   1  18
ATOM     18  C   UNL     1       1.968   2.267  20.676  0.00  0.00    +0.000 C 
BRANCH  18  19
ATOM     19  C   UNL     1       1.361   3.475  21.383  0.00  0.00    +0.000 C 
BRANCH  19  20
ATOM     20  C   UNL     1       1.169   4.633  20.414  0.00  0.00    +0.000 C 
BRANCH  20  21
ATOM     21  C   UNL     1       1.831   5.892  20.961  0.00  0.00    +0.000 C 
BRANCH  21  22
ATOM     22  C   UNL     1       2.035   6.924  19.859  0.00  0.00    +0.000 C 
BRANCH  22  24
ATOM     23  C   UNL     1       3.519   6.989  17.835  0.00  0.00    +0.000 C 
ATOM     24  C   UNL     1       2.398   6.246  18.540  0.00  0.00    +0.000 C 
ENDBRANCH  22  24
ENDBRANCH  21  22
ENDBRANCH  20  21
ENDBRANCH  19  20
ENDBRANCH  18  19
ENDBRANCH   1  18
TORSDOF 9
ENDMDL
MODEL 3
REMARK VINA RESULT:      -7.1      0.629      1.132
REMARK  Name = 
REMARK  11 active torsions:
REMARK  status: ('A' for Active; 'I' for Inactive)
REMARK    1  A    between atoms: C_1  and  C_2
REMARK    2  A    between atoms: C_2  and  C_3
REMARK    3  A    between atoms: C_3  and  C_4
REMARK    4  A    between atoms: C_4  and  C_5
REMARK    5  A    between atoms: C_5  and  C_6
REMARK    6  A    between atoms: C_6  and  C_7
REMARK    7  A    between atoms: C_7  and  C_8
REMARK    8  A    between atoms: C_11  and  C_12
REMARK    9  A    between atoms: C_15  and  C_16
REMARK   10  A    between atoms: C_16  and  O_18
REMARK   11  A    between atoms: C_20  and  C_21
REMARK                            x       y       z     vdW  Elec       q    Type
REMARK                         _______ _______ _______ _____ _____    ______ ____
ROOT
ATOM      1  C   UNL     1       0.864   9.056  20.171  0.00  0.00    +0.000 A 
ATOM      2  C   UNL     1       1.371   7.871  20.710  0.00  0.00    +0.000 A 
ATOM      3  C   UNL     1       2.265   7.081  19.977  0.00  0.00    +0.000 A 
ATOM      4  C   UNL     1       2.641   7.413  18.660  0.00  0.00    +0.000 A 
ATOM      5  C   UNL     1       2.045   8.561  18.118  0.00  0.00    +0.000 A 
ATOM      6  C   UNL     1       1.212   9.395  18.868  0.00  0.00    +0.000 A 
ENDROOT
BRANCH   4   7
ATOM      7  C   UNL     1       3.610   6.572  17.898  0.00  0.00    +0.000 A 
ATOM      8  C   UNL     1       4.814   7.161  17.449  0.00  0.00    +0.000 A 
ATOM      9  C   UNL     1       5.753   6.461  16.680  0.00  0.00    +0.000 A 
ATOM     10  C   UNL     1       5.530   5.132  16.352  0.00  0.00    +0.000 A 
ATOM     11  C   UNL     1       4.352   4.506  16.785  0.00  0.00    +0.000 A 
ATOM     12  C   UNL     1       3.389   5.209  17.543  0.00  0.00    +0.000 A 
ATOM     13  C   UNL     1       2.149   4.436  17.925  0.00  0.00    +0.000 C 
BRANCH  10  14
ATOM     14  C   UNL     1       6.531   4.441  15.500  0.00  0.00    +0.000 C 
ATOM     15  O   UNL     1       7.710   4.360  15.805  0.00  0.00    +0.000 OA
BRANCH  14  16
ATOM     16  O   UNL     1       6.014   3.879  14.388  0.00  0.00    +0.000 OA
ATOM     17  H   UNL     1       6.013   2.904  14.374  0.00  0.00    +0.000 HD
ENDBRANCH  14  16
ENDBRANCH  10  14
ENDBRANCH   4   7
BRANCH   1  18
ATOM     18  C   UNL     1      -0.053   9.946  20.963  0.00  0.00    +0.000 C 
BRANCH  18  19
ATOM     19  C   UNL     1      -0.137  11.344  20.358  0.00  0.00    +0.000 C 
BRANCH  19  20
ATOM     20  C   UNL     1      -1.407  12.055  20.807  0.00  0.00    +0.000 C 
BRANCH  20  21
ATOM     21  C   UNL     1      -2.188  12.550  19.595  0.00  0.00    +0.000 C 
BRANCH  21  22
ATOM     22  C   UNL     1      -1.565  12.045  18.300  0.00  0.00    +0.000 C 
BRANCH  22  24
ATOM     23  C   UNL     1      -1.896   9.898  17.042  0.00  0.00    +0.000 C 
ATOM     24  C   UNL     1      -2.554  11.180  17.524  0.00  0.00    +0.000 C 
ENDBRANCH  22  24
ENDBRANCH  21  22
ENDBRANCH  20  21
ENDBRANCH  19  20
ENDBRANCH  18  19
ENDBRANCH   1  18
TORSDOF 9
ENDMDL
MODEL 4
REMARK VINA RESULT:      -7.1      4.225      8.785
REMARK  Name = 
REMARK  11 active torsions:
REMARK  status: ('A' for Active; 'I' for Inactive)
REMARK    1  A    between atoms: C_1  and  C_2
REMARK    2  A    between atoms: C_2  and  C_3
REMARK    3  A    between atoms: C_3  and  C_4
REMARK    4  A    between atoms: C_4  and  C_5
REMARK    5  A    between atoms: C_5  and  C_6
REMARK    6  A    between atoms: C_6  and  C_7
REMARK    7  A    between atoms: C_7  and  C_8
REMARK    8  A    between atoms: C_11  and  C_12
REMARK    9  A    between atoms: C_15  and  C_16
REMARK   10  A    between atoms: C_16  and  O_18
REMARK   11  A    between atoms: C_20  and  C_21
REMARK                            x       y       z     vdW  Elec       q    Type
REMARK                         _______ _______ _______ _____ _____    ______ ____
ROOT
ATOM      1  C   UNL     1       4.212   4.729  17.090  0.00  0.00    +0.000 A 
ATOM      2  C   UNL     1       4.770   5.966  17.421  0.00  0.00    +0.000 A 
ATOM      3  C   UNL     1       4.058   6.881  18.206  0.00  0.00    +0.000 A 
ATOM      4  C   UNL     1       2.742   6.619  18.641  0.00  0.00    +0.000 A 
ATOM      5  C   UNL     1       2.181   5.407  18.216  0.00  0.00    +0.000 A 
ATOM      6  C   UNL     1       2.911   4.457  17.498  0.00  0.00    +0.000 A 
ENDROOT
BRANCH   4   7
ATOM      7  C   UNL     1       2.002   7.595  19.493  0.00  0.00    +0.000 A 
ATOM      8  C   UNL     1       1.642   7.213  20.806  0.00  0.00    +0.000 A 
ATOM      9  C   UNL     1       0.897   8.045  21.654  0.00  0.00    +0.000 A 
ATOM     10  C   UNL     1       0.507   9.304  21.224  0.00  0.00    +0.000 A 
ATOM     11  C   UNL     1       0.851   9.726  19.931  0.00  0.00    +0.000 A 
ATOM     12  C   UNL     1       1.584   8.888  19.061  0.00  0.00    +0.000 A 
ATOM     13  C   UNL     1       1.867   9.442  17.686  0.00  0.00    +0.000 C 
BRANCH  10  14
ATOM     14  C   UNL     1      -0.315  10.135  22.139  0.00  0.00    +0.000 C 
ATOM     15  O   UNL     1      -0.631  11.285  21.878  0.00  0.00    +0.000 OA
BRANCH  14  16
ATOM     16  O   UNL     1      -0.715   9.494  23.257  0.00  0.00    +0.000 OA
ATOM     17  H   UNL     1      -0.470   9.925  24.097  0.00  0.00    +0.000 HD
ENDBRANCH  14  16
ENDBRANCH  10  14
ENDBRANCH   4   7
BRANCH   1  18
ATOM     18  C   UNL     1       4.983   3.712  16.296  0.00  0.00    +0.000 C 
BRANCH  18  19
ATOM     19  C   UNL     1       6.109   4.361  15.496  0.00  0.00    +0.000 C 
BRANCH  19  20
ATOM     20  C   UNL     1       5.673   4.627  14.061  0.00  0.00    +0.000 C 
BRANCH  20  21
ATOM     21  C   UNL     1       6.277   3.585  13.127  0.00  0.00    +0.000 C 
BRANCH  21  22
ATOM     22  C   UNL     1       5.291   3.197  12.033  0.00  0.00    +0.000 C 
BRANCH  22  24
ATOM     23  C   UNL     1       7.179   1.825  11.109  0.00  0.00    +0.000 C 
ATOM     24  C   UNL     1       5.687   1.870  11.391  0.00  0.00    +0.000 C 
ENDBRANCH  22  24
ENDBRANCH  21  22
ENDBRANCH  20  21
ENDBRANCH  19  20
ENDBRANCH  18  19
ENDBRANCH   1  18
TORSDOF 9
ENDMDL
MODEL 5
REMARK VINA RESULT:      -7.1      1.191      2.605
REMARK  Name = 
REMARK  11 active torsions:
REMARK  status: ('A' for Active; 'I' for Inactive)
REMARK    1  A    between atoms: C_1  and  C_2
REMARK    2  A    between atoms: C_2  and  C_3
REMARK    3  A    between atoms: C_3  and  C_4
REMARK    4  A    between atoms: C_4  and  C_5
REMARK    5  A    between atoms: C_5  and  C_6
REMARK    6  A    between atoms: C_6  and  C_7
REMARK    7  A    between atoms: C_7  and  C_8
REMARK    8  A    between atoms: C_11  and  C_12
REMARK    9  A    between atoms: C_15  and  C_16
REMARK   10  A    between atoms: C_16  and  O_18
REMARK   11  A    between atoms: C_20  and  C_21
REMARK                            x       y       z     vdW  Elec       q    Type
REMARK                         _______ _______ _______ _____ _____    ______ ____
ROOT
ATOM      1  C   UNL     1       0.695   9.412  19.613  0.00  0.00    +0.000 A 
ATOM      2  C   UNL     1       1.123   9.586  18.295  0.00  0.00    +0.000 A 
ATOM      3  C   UNL     1       2.054   8.708  17.727  0.00  0.00    +0.000 A 
ATOM      4  C   UNL     1       2.635   7.660  18.470  0.00  0.00    +0.000 A 
ATOM      5  C   UNL     1       2.248   7.569  19.815  0.00  0.00    +0.000 A 
ATOM      6  C   UNL     1       1.264   8.392  20.367  0.00  0.00    +0.000 A 
ENDROOT
BRANCH   4   7
ATOM      7  C   UNL     1       3.612   6.720  17.847  0.00  0.00    +0.000 A 
ATOM      8  C   UNL     1       4.880   7.215  17.465  0.00  0.00    +0.000 A 
ATOM      9  C   UNL     1       5.837   6.417  16.823  0.00  0.00    +0.000 A 
ATOM     10  C   UNL     1       5.566   5.083  16.562  0.00  0.00    +0.000 A 
ATOM     11  C   UNL     1       4.323   4.549  16.932  0.00  0.00    +0.000 A 
ATOM     12  C   UNL     1       3.343   5.350  17.561  0.00  0.00    +0.000 A 
ATOM     13  C   UNL     1       2.035   4.669  17.885  0.00  0.00    +0.000 C 
BRANCH  10  14
ATOM     14  C   UNL     1       6.591   4.286  15.843  0.00  0.00    +0.000 C 
ATOM     15  O   UNL     1       7.789   4.453  16.007  0.00  0.00    +0.000 OA
BRANCH  14  16
ATOM     16  O   UNL     1       6.082   3.337  15.029  0.00  0.00    +0.000 OA
ATOM     17  H   UNL     1       6.739   2.771  14.583  0.00  0.00    +0.000 HD
ENDBRANCH  14  16
ENDBRANCH  10  14
ENDBRANCH   4   7
BRANCH   1  18
ATOM     18  C   UNL     1      -0.346  10.310  20.221  0.00  0.00    +0.000 C 
BRANCH  18  19
ATOM     19  C   UNL     1      -1.314  10.840  19.167  0.00  0.00    +0.000 C 
BRANCH  19  20
ATOM     20  C   UNL     1      -1.470  12.350  19.283  0.00  0.00    +0.000 C 
BRANCH  20  21
ATOM     21  C   UNL     1      -0.614  13.049  18.233  0.00  0.00    +0.000 C 
BRANCH  21  22
ATOM     22  C   UNL     1       0.435  13.939  18.888  0.00  0.00    +0.000 C 
BRANCH  22  24
ATOM     23  C   UNL     1       2.182  13.197  20.532  0.00  0.00    +0.000 C 
ATOM     24  C   UNL     1       1.747  13.182  19.076  0.00  0.00    +0.000 C 
ENDBRANCH  22  24
ENDBRANCH  21  22
ENDBRANCH  20  21
ENDBRANCH  19  20
ENDBRANCH  18  19
ENDBRANCH   1  18
TORSDOF 9
ENDMDL
MODEL 6
REMARK VINA RESULT:      -7.0      4.702      8.632
REMARK  Name = 
REMARK  11 active torsions:
REMARK  status: ('A' for Active; 'I' for Inactive)
REMARK    1  A    between atoms: C_1  and  C_2
REMARK    2  A    between atoms: C_2  and  C_3
REMARK    3  A    between atoms: C_3  and  C_4
REMARK    4  A    between atoms: C_4  and  C_5
REMARK    5  A    between atoms: C_5  and  C_6
REMARK    6  A    between atoms: C_6  and  C_7
REMARK    7  A    between atoms: C_7  and  C_8
REMARK    8  A    between atoms: C_11  and  C_12
REMARK    9  A    between atoms: C_15  and  C_16
REMARK   10  A    between atoms: C_16  and  O_18
REMARK   11  A    between atoms: C_20  and  C_21
REMARK                            x       y       z     vdW  Elec       q    Type
REMARK                         _______ _______ _______ _____ _____    ______ ____
ROOT
ATOM      1  C   UNL     1       3.117   6.158  18.630  0.00  0.00    +0.000 A 
ATOM      2  C   UNL     1       2.783   7.364  18.009  0.00  0.00    +0.000 A 
ATOM      3  C   UNL     1       2.042   8.335  18.694  0.00  0.00    +0.000 A 
ATOM      4  C   UNL     1       1.561   8.117  20.001  0.00  0.00    +0.000 A 
ATOM      5  C   UNL     1       1.840   6.862  20.560  0.00  0.00    +0.000 A 
ATOM      6  C   UNL     1       2.641   5.917  19.913  0.00  0.00    +0.000 A 
ENDROOT
BRANCH   4   7
ATOM      7  C   UNL     1       0.789   9.168  20.725  0.00  0.00    +0.000 A 
ATOM      8  C   UNL     1       0.678   9.080  22.132  0.00  0.00    +0.000 A 
ATOM      9  C   UNL     1      -0.074   9.992  22.886  0.00  0.00    +0.000 A 
ATOM     10  C   UNL     1      -0.723  11.043  22.258  0.00  0.00    +0.000 A 
ATOM     11  C   UNL     1      -0.632  11.173  20.864  0.00  0.00    +0.000 A 
ATOM     12  C   UNL     1       0.106  10.247  20.092  0.00  0.00    +0.000 A 
ATOM     13  C   UNL     1       0.105  10.476  18.600  0.00  0.00    +0.000 C 
BRANCH  10  14
ATOM     14  C   UNL     1      -1.542  11.960  23.090  0.00  0.00    +0.000 C 
ATOM     15  O   UNL     1      -1.147  13.062  23.438  0.00  0.00    +0.000 OA
BRANCH  14  16
ATOM     16  O   UNL     1      -2.770  11.486  23.388  0.00  0.00    +0.000 OA
ATOM     17  H   UNL     1      -3.485  12.149  23.389  0.00  0.00    +0.000 HD
ENDBRANCH  14  16
ENDBRANCH  10  14
ENDBRANCH   4   7
BRANCH   1  18
ATOM     18  C   UNL     1       3.959   5.127  17.931  0.00  0.00    +0.000 C 
BRANCH  18  19
ATOM     19  C   UNL     1       3.098   4.049  17.278  0.00  0.00    +0.000 C 
BRANCH  19  20
ATOM     20  C   UNL     1       3.554   2.659  17.702  0.00  0.00    +0.000 C 
BRANCH  20  21
ATOM     21  C   UNL     1       3.032   2.337  19.097  0.00  0.00    +0.000 C 
BRANCH  21  22
ATOM     22  C   UNL     1       1.516   2.189  19.092  0.00  0.00    +0.000 C 
BRANCH  22  24
ATOM     23  C   UNL     1       1.594   2.693  21.550  0.00  0.00    +0.000 C 
ATOM     24  C   UNL     1       0.889   2.982  20.235  0.00  0.00    +0.000 C 
ENDBRANCH  22  24
ENDBRANCH  21  22
ENDBRANCH  20  21
ENDBRANCH  19  20
ENDBRANCH  18  19
ENDBRANCH   1  18
TORSDOF 9
ENDMDL
MODEL 7
REMARK VINA RESULT:      -7.0      1.770      2.563
REMARK  Name = 
REMARK  11 active torsions:
REMARK  status: ('A' for Active; 'I' for Inactive)
REMARK    1  A    between atoms: C_1  and  C_2
REMARK    2  A    between atoms: C_2  and  C_3
REMARK    3  A    between atoms: C_3  and  C_4
REMARK    4  A    between atoms: C_4  and  C_5
REMARK    5  A    between atoms: C_5  and  C_6
REMARK    6  A    between atoms: C_6  and  C_7
REMARK    7  A    between atoms: C_7  and  C_8
REMARK    8  A    between atoms: C_11  and  C_12
REMARK    9  A    between atoms: C_15  and  C_16
REMARK   10  A    between atoms: C_16  and  O_18
REMARK   11  A    between atoms: C_20  and  C_21
REMARK                            x       y       z     vdW  Elec       q    Type
REMARK                         _______ _______ _______ _____ _____    ______ ____
ROOT
ATOM      1  C   UNL     1       0.759   9.199  19.828  0.00  0.00    +0.000 A 
ATOM      2  C   UNL     1       1.336   8.122  20.503  0.00  0.00    +0.000 A 
ATOM      3  C   UNL     1       2.263   7.293  19.860  0.00  0.00    +0.000 A 
ATOM      4  C   UNL     1       2.605   7.473  18.505  0.00  0.00    +0.000 A 
ATOM      5  C   UNL     1       1.941   8.509  17.833  0.00  0.00    +0.000 A 
ATOM      6  C   UNL     1       1.072   9.387  18.486  0.00  0.00    +0.000 A 
ENDROOT
BRANCH   4   7
ATOM      7  C   UNL     1       3.609   6.593  17.837  0.00  0.00    +0.000 A 
ATOM      8  C   UNL     1       4.847   7.153  17.445  0.00  0.00    +0.000 A 
ATOM      9  C   UNL     1       5.823   6.414  16.763  0.00  0.00    +0.000 A 
ATOM     10  C   UNL     1       5.605   5.076  16.471  0.00  0.00    +0.000 A 
ATOM     11  C   UNL     1       4.393   4.479  16.850  0.00  0.00    +0.000 A 
ATOM     12  C   UNL     1       3.393   5.220  17.520  0.00  0.00    +0.000 A 
ATOM     13  C   UNL     1       2.122   4.476  17.850  0.00  0.00    +0.000 C 
BRANCH  10  14
ATOM     14  C   UNL     1       6.648   4.344  15.711  0.00  0.00    +0.000 C 
ATOM     15  O   UNL     1       7.842   4.502  15.912  0.00  0.00    +0.000 OA
BRANCH  14  16
ATOM     16  O   UNL     1       6.160   3.461  14.814  0.00  0.00    +0.000 OA
ATOM     17  H   UNL     1       5.539   3.831  14.159  0.00  0.00    +0.000 HD
ENDBRANCH  14  16
ENDBRANCH  10  14
ENDBRANCH   4   7
BRANCH   1  18
ATOM     18  C   UNL     1      -0.195  10.134  20.518  0.00  0.00    +0.000 C 
BRANCH  18  19
ATOM     19  C   UNL     1       0.300  10.511  21.911  0.00  0.00    +0.000 C 
BRANCH  19  20
ATOM     20  C   UNL     1      -0.861  10.615  22.891  0.00  0.00    +0.000 C 
BRANCH  20  21
ATOM     21  C   UNL     1      -1.301  12.068  23.033  0.00  0.00    +0.000 C 
BRANCH  21  22
ATOM     22  C   UNL     1      -2.739  12.250  22.566  0.00  0.00    +0.000 C 
BRANCH  22  24
ATOM     23  C   UNL     1      -1.489  13.709  20.950  0.00  0.00    +0.000 C 
ATOM     24  C   UNL     1      -2.786  12.964  21.218  0.00  0.00    +0.000 C 
ENDBRANCH  22  24
ENDBRANCH  21  22
ENDBRANCH  20  21
ENDBRANCH  19  20
ENDBRANCH  18  19
ENDBRANCH   1  18
TORSDOF 9
ENDMDL
MODEL 8
REMARK VINA RESULT:      -7.0      1.974      2.800
REMARK  Name = 
REMARK  11 active torsions:
REMARK  status: ('A' for Active; 'I' for Inactive)
REMARK    1  A    between atoms: C_1  and  C_2
REMARK    2  A    between atoms: C_2  and  C_3
REMARK    3  A    between atoms: C_3  and  C_4
REMARK    4  A    between atoms: C_4  and  C_5
REMARK    5  A    between atoms: C_5  and  C_6
REMARK    6  A    between atoms: C_6  and  C_7
REMARK    7  A    between atoms: C_7  and  C_8
REMARK    8  A    between atoms: C_11  and  C_12
REMARK    9  A    between atoms: C_15  and  C_16
REMARK   10  A    between atoms: C_16  and  O_18
REMARK   11  A    between atoms: C_20  and  C_21
REMARK                            x       y       z     vdW  Elec       q    Type
REMARK                         _______ _______ _______ _____ _____    ______ ____
ROOT
ATOM      1  C   UNL     1       1.021  10.246  19.281  0.00  0.00    +0.000 A 
ATOM      2  C   UNL     1       1.565   9.755  18.092  0.00  0.00    +0.000 A 
ATOM      3  C   UNL     1       2.070   8.451  18.026  0.00  0.00    +0.000 A 
ATOM      4  C   UNL     1       2.101   7.608  19.156  0.00  0.00    +0.000 A 
ATOM      5  C   UNL     1       1.628   8.164  20.353  0.00  0.00    +0.000 A 
ATOM      6  C   UNL     1       1.054   9.437  20.411  0.00  0.00    +0.000 A 
ENDROOT
BRANCH   4   7
ATOM      7  C   UNL     1       2.624   6.214  19.066  0.00  0.00    +0.000 A 
ATOM      8  C   UNL     1       2.045   5.218  19.886  0.00  0.00    +0.000 A 
ATOM      9  C   UNL     1       2.512   3.897  19.907  0.00  0.00    +0.000 A 
ATOM     10  C   UNL     1       3.562   3.517  19.085  0.00  0.00    +0.000 A 
ATOM     11  C   UNL     1       4.160   4.473  18.249  0.00  0.00    +0.000 A 
ATOM     12  C   UNL     1       3.711   5.813  18.235  0.00  0.00    +0.000 A 
ATOM     13  C   UNL     1       4.452   6.753  17.316  0.00  0.00    +0.000 C 
BRANCH  10  14
ATOM     14  C   UNL     1       4.051   2.119  19.170  0.00  0.00    +0.000 C 
ATOM     15  O   UNL     1       3.616   1.226  18.460  0.00  0.00    +0.000 OA
BRANCH  14  16
ATOM     16  O   UNL     1       5.042   1.934  20.067  0.00  0.00    +0.000 OA
ATOM     17  H   UNL     1       4.787   1.465  20.882  0.00  0.00    +0.000 HD
ENDBRANCH  14  16
ENDBRANCH  10  14
ENDBRANCH   4   7
BRANCH   1  18
ATOM     18  C   UNL     1       0.423  11.624  19.356  0.00  0.00    +0.000 C 
BRANCH  18  19
ATOM     19  C   UNL     1      -1.091  11.568  19.540  0.00  0.00    +0.000 C 
BRANCH  19  20
ATOM     20  C   UNL     1      -1.753  10.842  18.377  0.00  0.00    +0.000 C 
BRANCH  20  21
ATOM     21  C   UNL     1      -3.132  11.432  18.105  0.00  0.00    +0.000 C 
BRANCH  21  22
ATOM     22  C   UNL     1      -3.836  10.679  16.984  0.00  0.00    +0.000 C 
BRANCH  22  24
ATOM     23  C   UNL     1      -3.099  10.137  14.646  0.00  0.00    +0.000 C 
ATOM     24  C   UNL     1      -2.829   9.919  16.125  0.00  0.00    +0.000 C 
ENDBRANCH  22  24
ENDBRANCH  21  22
ENDBRANCH  20  21
ENDBRANCH  19  20
ENDBRANCH  18  19
ENDBRANCH   1  18
TORSDOF 9
ENDMDL
MODEL 9
REMARK VINA RESULT:      -7.0      4.281      8.580
REMARK  Name = 
REMARK  11 active torsions:
REMARK  status: ('A' for Active; 'I' for Inactive)
REMARK    1  A    between atoms: C_1  and  C_2
REMARK    2  A    between atoms: C_2  and  C_3
REMARK    3  A    between atoms: C_3  and  C_4
REMARK    4  A    between atoms: C_4  and  C_5
REMARK    5  A    between atoms: C_5  and  C_6
REMARK    6  A    between atoms: C_6  and  C_7
REMARK    7  A    between atoms: C_7  and  C_8
REMARK    8  A    between atoms: C_11  and  C_12
REMARK    9  A    between atoms: C_15  and  C_16
REMARK   10  A    between atoms: C_16  and  O_18
REMARK   11  A    between atoms: C_20  and  C_21
REMARK                            x       y       z     vdW  Elec       q    Type
REMARK                         _______ _______ _______ _____ _____    ______ ____
ROOT
ATOM      1  C   UNL     1       3.871   5.172  17.520  0.00  0.00    +0.000 A 
ATOM      2  C   UNL     1       3.042   4.804  18.582  0.00  0.00    +0.000 A 
ATOM      3  C   UNL     1       2.356   5.776  19.320  0.00  0.00    +0.000 A 
ATOM      4  C   UNL     1       2.517   7.153  19.063  0.00  0.00    +0.000 A 
ATOM      5  C   UNL     1       3.425   7.490  18.049  0.00  0.00    +0.000 A 
ATOM      6  C   UNL     1       4.054   6.526  17.258  0.00  0.00    +0.000 A 
ENDROOT
BRANCH   4   7
ATOM      7  C   UNL     1       1.766   8.178  19.846  0.00  0.00    +0.000 A 
ATOM      8  C   UNL     1       1.575   7.968  21.231  0.00  0.00    +0.000 A 
ATOM      9  C   UNL     1       0.835   8.849  22.030  0.00  0.00    +0.000 A 
ATOM     10  C   UNL     1       0.278   9.991  21.474  0.00  0.00    +0.000 A 
ATOM     11  C   UNL     1       0.450  10.241  20.104  0.00  0.00    +0.000 A 
ATOM     12  C   UNL     1       1.178   9.349  19.285  0.00  0.00    +0.000 A 
ATOM     13  C   UNL     1       1.269   9.712  17.823  0.00  0.00    +0.000 C 
BRANCH  10  14
ATOM     14  C   UNL     1      -0.533  10.874  22.348  0.00  0.00    +0.000 C 
ATOM     15  O   UNL     1      -0.880  10.549  23.472  0.00  0.00    +0.000 OA
BRANCH  14  16
ATOM     16  O   UNL     1      -0.814  12.078  21.807  0.00  0.00    +0.000 OA
ATOM     17  H   UNL     1      -1.601  12.105  21.232  0.00  0.00    +0.000 HD
ENDBRANCH  14  16
ENDBRANCH  10  14
ENDBRANCH   4   7
BRANCH   1  18
ATOM     18  C   UNL     1       4.571   4.140  16.680  0.00  0.00    +0.000 C 
BRANCH  18  19
ATOM     19  C   UNL     1       6.017   4.535  16.396  0.00  0.00    +0.000 C 
BRANCH  19  20
ATOM     20  C   UNL     1       6.192   4.945  14.940  0.00  0.00    +0.000 C 
BRANCH  20  21
ATOM     21  C   UNL     1       5.622   3.873  14.019  0.00  0.00    +0.000 C 
BRANCH  21  22
ATOM     22  C   UNL     1       6.379   3.829  12.698  0.00  0.00    +0.000 C 
BRANCH  22  24
ATOM     23  C   UNL     1       4.319   3.157  11.431  0.00  0.00    +0.000 C 
ATOM     24  C   UNL     1       5.762   2.803  11.752  0.00  0.00    +0.000 C 
ENDBRANCH  22  24
ENDBRANCH  21  22
ENDBRANCH  20  21
ENDBRANCH  19  20
ENDBRANCH  18  19
ENDBRANCH   1  18
TORSDOF 9
ENDMDL
