MODEL 1
REMARK VINA RESULT:      -6.5      0.000      0.000
REMARK  Name = 
REMARK  6 active torsions:
REMARK  status: ('A' for Active; 'I' for Inactive)
REMARK    1  A    between atoms: C_1  and  C_2
REMARK    2  A    between atoms: C_6  and  N_7
REMARK    3  A    between atoms: C_8  and  C_10
REMARK    4  A    between atoms: N_13  and  S_14
REMARK    5  A    between atoms: S_14  and  N_17
REMARK    6  A    between atoms: C_25  and  C_26
REMARK                            x       y       z     vdW  Elec       q    Type
REMARK                         _______ _______ _______ _____ _____    ______ ____
ROOT
ATOM      1  C   UNL     1       2.088   8.771  20.291  0.00  0.00    +0.000 C 
ATOM      2  C   UNL     1       1.470   9.951  19.515  0.00  0.00    +0.000 C 
ATOM      3  C   UNL     1      -0.056   9.972  19.559  0.00  0.00    +0.000 C 
ATOM      4  N   UNL     1      -0.560   9.835  20.943  0.00  0.00    +0.000 NA
ATOM      5  C   UNL     1      -0.101   8.552  21.530  0.00  0.00    +0.000 C 
ATOM      6  C   UNL     1       1.419   8.550  21.666  0.00  0.00    +0.000 C 
ENDROOT
BRANCH   1   8
ATOM      7  N   UNL     1       2.371   6.352  20.174  0.00  0.00    +0.000 N 
ATOM      8  C   UNL     1       2.041   7.497  19.491  0.00  0.00    +0.000 C 
ATOM      9  O   UNL     1       1.706   7.470  18.306  0.00  0.00    +0.000 OA
ATOM     10  H   UNL     1       2.430   6.390  21.184  0.00  0.00    +0.000 HD
BRANCH   7  16
ATOM     11  C   UNL     1       0.398   2.696  18.627  0.00  0.00    +0.000 C 
ATOM     12  C   UNL     1       1.486   2.645  19.710  0.00  0.00    +0.000 C 
ATOM     13  C   UNL     1       2.838   2.205  19.122  0.00  0.00    +0.000 C 
ATOM     14  C   UNL     1       3.497   3.274  18.253  0.00  0.00    +0.000 C 
ATOM     15  C   UNL     1       3.616   4.613  18.972  0.00  0.00    +0.000 C 
ATOM     16  C   UNL     1       2.262   5.060  19.526  0.00  0.00    +0.000 C 
ATOM     17  C   UNL     1       1.611   4.003  20.447  0.00  0.00    +0.000 C 
ATOM     18  C   UNL     1       2.358   3.832  21.779  0.00  0.00    +0.000 C 
ENDBRANCH   7  16
ENDBRANCH   1   8
BRANCH   4  19
ATOM     19  S   UNL     1      -0.491  11.214  21.935  0.00  0.00    +0.000 S 
ATOM     20  O   UNL     1      -0.552  10.790  23.312  0.00  0.00    +0.000 OA
ATOM     21  O   UNL     1       0.586  12.060  21.476  0.00  0.00    +0.000 OA
BRANCH  19  22
ATOM     22  N   UNL     1      -1.951  11.946  21.511  0.00  0.00    +0.000 NA
ATOM     23  C   UNL     1      -2.876  12.331  22.593  0.00  0.00    +0.000 C 
ATOM     24  C   UNL     1      -2.448  13.639  23.239  0.00  0.00    +0.000 C 
ATOM     25  C   UNL     1      -2.219  14.761  22.229  0.00  0.00    +0.000 C 
ATOM     26  C   UNL     1      -1.584  14.340  20.902  0.00  0.00    +0.000 C 
ATOM     27  C   UNL     1      -1.949  12.941  20.420  0.00  0.00    +0.000 C 
ENDBRANCH  19  22
ENDBRANCH   4  19
TORSDOF 4
ENDMDL
MODEL 2
REMARK VINA RESULT:      -6.4      1.299      1.782
REMARK  Name = 
REMARK  6 active torsions:
REMARK  status: ('A' for Active; 'I' for Inactive)
REMARK    1  A    between atoms: C_1  and  C_2
REMARK    2  A    between atoms: C_6  and  N_7
REMARK    3  A    between atoms: C_8  and  C_10
REMARK    4  A    between atoms: N_13  and  S_14
REMARK    5  A    between atoms: S_14  and  N_17
REMARK    6  A    between atoms: C_25  and  C_26
REMARK                            x       y       z     vdW  Elec       q    Type
REMARK                         _______ _______ _______ _____ _____    ______ ____
ROOT
ATOM      1  C   UNL     1       1.811   8.856  20.895  0.00  0.00    +0.000 C 
ATOM      2  C   UNL     1       1.087   9.730  19.851  0.00  0.00    +0.000 C 
ATOM      3  C   UNL     1      -0.425   9.784  20.049  0.00  0.00    +0.000 C 
ATOM      4  N   UNL     1      -0.777  10.107  21.448  0.00  0.00    +0.000 NA
ATOM      5  C   UNL     1      -0.229   9.077  22.366  0.00  0.00    +0.000 C 
ATOM      6  C   UNL     1       1.296   9.100  22.331  0.00  0.00    +0.000 C 
ENDROOT
BRANCH   1   8
ATOM      7  N   UNL     1       2.628   6.923  19.653  0.00  0.00    +0.000 N 
ATOM      8  C   UNL     1       1.709   7.392  20.559  0.00  0.00    +0.000 C 
ATOM      9  O   UNL     1       0.874   6.650  21.077  0.00  0.00    +0.000 OA
ATOM     10  H   UNL     1       3.420   7.509  19.418  0.00  0.00    +0.000 HD
BRANCH   7  16
ATOM     11  C   UNL     1       3.492   2.617  20.252  0.00  0.00    +0.000 C 
ATOM     12  C   UNL     1       4.129   3.431  19.116  0.00  0.00    +0.000 C 
ATOM     13  C   UNL     1       3.444   3.141  17.769  0.00  0.00    +0.000 C 
ATOM     14  C   UNL     1       2.044   3.742  17.661  0.00  0.00    +0.000 C 
ATOM     15  C   UNL     1       2.027   5.233  17.980  0.00  0.00    +0.000 C 
ATOM     16  C   UNL     1       2.681   5.511  19.334  0.00  0.00    +0.000 C 
ATOM     17  C   UNL     1       4.118   4.948  19.435  0.00  0.00    +0.000 C 
ATOM     18  C   UNL     1       5.116   5.699  18.540  0.00  0.00    +0.000 C 
ENDBRANCH   7  16
ENDBRANCH   1   8
BRANCH   4  19
ATOM     19  S   UNL     1      -0.635  11.731  21.929  0.00  0.00    +0.000 S 
ATOM     20  O   UNL     1      -1.066  11.842  23.301  0.00  0.00    +0.000 OA
ATOM     21  O   UNL     1       0.663  12.221  21.528  0.00  0.00    +0.000 OA
BRANCH  19  22
ATOM     22  N   UNL     1      -1.795  12.431  20.922  0.00  0.00    +0.000 NA
ATOM     23  C   UNL     1      -3.045  12.919  21.534  0.00  0.00    +0.000 C 
ATOM     24  C   UNL     1      -2.841  14.278  22.185  0.00  0.00    +0.000 C 
ATOM     25  C   UNL     1      -2.200  15.301  21.252  0.00  0.00    +0.000 C 
ATOM     26  C   UNL     1      -1.127  14.757  20.306  0.00  0.00    +0.000 C 
ATOM     27  C   UNL     1      -1.338  13.323  19.837  0.00  0.00    +0.000 C 
ENDBRANCH  19  22
ENDBRANCH   4  19
TORSDOF 4
ENDMDL
MODEL 3
REMARK VINA RESULT:      -6.3      1.120      1.353
REMARK  Name = 
REMARK  6 active torsions:
REMARK  status: ('A' for Active; 'I' for Inactive)
REMARK    1  A    between atoms: C_1  and  C_2
REMARK    2  A    between atoms: C_6  and  N_7
REMARK    3  A    between atoms: C_8  and  C_10
REMARK    4  A    between atoms: N_13  and  S_14
REMARK    5  A    between atoms: S_14  and  N_17
REMARK    6  A    between atoms: C_25  and  C_26
REMARK                            x       y       z     vdW  Elec       q    Type
REMARK                         _______ _______ _______ _____ _____    ______ ____
ROOT
ATOM      1  C   UNL     1       1.070   8.636  21.774  0.00  0.00    +0.000 C 
ATOM      2  C   UNL     1       1.686  10.049  21.818  0.00  0.00    +0.000 C 
ATOM      3  C   UNL     1       1.032  11.026  20.843  0.00  0.00    +0.000 C 
ATOM      4  N   UNL     1      -0.441  11.011  20.967  0.00  0.00    +0.000 NA
ATOM      5  C   UNL     1      -0.965   9.652  20.677  0.00  0.00    +0.000 C 
ATOM      6  C   UNL     1      -0.474   8.664  21.732  0.00  0.00    +0.000 C 
ENDROOT
BRANCH   1   8
ATOM      7  N   UNL     1       1.863   6.516  20.867  0.00  0.00    +0.000 N 
ATOM      8  C   UNL     1       1.597   7.839  20.611  0.00  0.00    +0.000 C 
ATOM      9  O   UNL     1       1.760   8.327  19.492  0.00  0.00    +0.000 OA
ATOM     10  H   UNL     1       1.517   6.110  21.728  0.00  0.00    +0.000 HD
BRANCH   7  16
ATOM     11  C   UNL     1       1.428   3.836  17.363  0.00  0.00    +0.000 C 
ATOM     12  C   UNL     1       2.029   3.357  18.693  0.00  0.00    +0.000 C 
ATOM     13  C   UNL     1       3.563   3.269  18.612  0.00  0.00    +0.000 C 
ATOM     14  C   UNL     1       4.247   4.635  18.585  0.00  0.00    +0.000 C 
ATOM     15  C   UNL     1       3.803   5.527  19.740  0.00  0.00    +0.000 C 
ATOM     16  C   UNL     1       2.279   5.636  19.794  0.00  0.00    +0.000 C 
ATOM     17  C   UNL     1       1.580   4.258  19.871  0.00  0.00    +0.000 C 
ATOM     18  C   UNL     1       1.807   3.549  21.215  0.00  0.00    +0.000 C 
ENDBRANCH   7  16
ENDBRANCH   1   8
BRANCH   4  19
ATOM     19  S   UNL     1      -1.118  11.841  22.286  0.00  0.00    +0.000 S 
ATOM     20  O   UNL     1      -1.434  10.883  23.317  0.00  0.00    +0.000 OA
ATOM     21  O   UNL     1      -0.293  12.989  22.583  0.00  0.00    +0.000 OA
BRANCH  19  22
ATOM     22  N   UNL     1      -2.548  12.390  21.577  0.00  0.00    +0.000 NA
ATOM     23  C   UNL     1      -3.686  12.706  22.460  0.00  0.00    +0.000 C 
ATOM     24  C   UNL     1      -3.519  14.075  23.099  0.00  0.00    +0.000 C 
ATOM     25  C   UNL     1      -3.231  15.180  22.086  0.00  0.00    +0.000 C 
ATOM     26  C   UNL     1      -2.329  14.787  20.914  0.00  0.00    +0.000 C 
ATOM     27  C   UNL     1      -2.454  13.341  20.451  0.00  0.00    +0.000 C 
ENDBRANCH  19  22
ENDBRANCH   4  19
TORSDOF 4
ENDMDL
MODEL 4
REMARK VINA RESULT:      -6.2      1.300      1.784
REMARK  Name = 
REMARK  6 active torsions:
REMARK  status: ('A' for Active; 'I' for Inactive)
REMARK    1  A    between atoms: C_1  and  C_2
REMARK    2  A    between atoms: C_6  and  N_7
REMARK    3  A    between atoms: C_8  and  C_10
REMARK    4  A    between atoms: N_13  and  S_14
REMARK    5  A    between atoms: S_14  and  N_17
REMARK    6  A    between atoms: C_25  and  C_26
REMARK                            x       y       z     vdW  Elec       q    Type
REMARK                         _______ _______ _______ _____ _____    ______ ____
ROOT
ATOM      1  C   UNL     1       1.854   8.872  20.609  0.00  0.00    +0.000 C 
ATOM      2  C   UNL     1       1.316   9.615  19.369  0.00  0.00    +0.000 C 
ATOM      3  C   UNL     1      -0.208   9.709  19.332  0.00  0.00    +0.000 C 
ATOM      4  N   UNL     1      -0.751  10.209  20.612  0.00  0.00    +0.000 NA
ATOM      5  C   UNL     1      -0.373   9.297  21.721  0.00  0.00    +0.000 C 
ATOM      6  C   UNL     1       1.141   9.300  21.911  0.00  0.00    +0.000 C 
ENDROOT
BRANCH   1   8
ATOM      7  N   UNL     1       2.504   6.844  19.421  0.00  0.00    +0.000 N 
ATOM      8  C   UNL     1       1.760   7.379  20.444  0.00  0.00    +0.000 C 
ATOM      9  O   UNL     1       1.080   6.671  21.188  0.00  0.00    +0.000 OA
ATOM     10  H   UNL     1       3.205   7.425  18.977  0.00  0.00    +0.000 HD
BRANCH   7  16
ATOM     11  C   UNL     1       3.199   2.600  20.495  0.00  0.00    +0.000 C 
ATOM     12  C   UNL     1       3.981   3.301  19.375  0.00  0.00    +0.000 C 
ATOM     13  C   UNL     1       3.451   2.898  17.987  0.00  0.00    +0.000 C 
ATOM     14  C   UNL     1       2.086   3.503  17.663  0.00  0.00    +0.000 C 
ATOM     15  C   UNL     1       2.065   5.017  17.845  0.00  0.00    +0.000 C 
ATOM     16  C   UNL     1       2.563   5.408  19.237  0.00  0.00    +0.000 C 
ATOM     17  C   UNL     1       3.966   4.841  19.556  0.00  0.00    +0.000 C 
ATOM     18  C   UNL     1       5.077   5.497  18.722  0.00  0.00    +0.000 C 
ENDBRANCH   7  16
ENDBRANCH   1   8
BRANCH   4  19
ATOM     19  S   UNL     1      -0.635  11.879  20.906  0.00  0.00    +0.000 S 
ATOM     20  O   UNL     1       0.396  12.101  21.890  0.00  0.00    +0.000 OA
ATOM     21  O   UNL     1      -0.595  12.570  19.638  0.00  0.00    +0.000 OA
BRANCH  19  22
ATOM     22  N   UNL     1      -2.144  12.154  21.607  0.00  0.00    +0.000 NA
ATOM     23  C   UNL     1      -2.212  12.322  23.070  0.00  0.00    +0.000 C 
ATOM     24  C   UNL     1      -1.805  13.729  23.479  0.00  0.00    +0.000 C 
ATOM     25  C   UNL     1      -2.564  14.817  22.723  0.00  0.00    +0.000 C 
ATOM     26  C   UNL     1      -2.856  14.521  21.250  0.00  0.00    +0.000 C 
ATOM     27  C   UNL     1      -3.089  13.053  20.914  0.00  0.00    +0.000 C 
ENDBRANCH  19  22
ENDBRANCH   4  19
TORSDOF 4
ENDMDL
MODEL 5
REMARK VINA RESULT:      -6.2      1.463      2.015
REMARK  Name = 
REMARK  6 active torsions:
REMARK  status: ('A' for Active; 'I' for Inactive)
REMARK    1  A    between atoms: C_1  and  C_2
REMARK    2  A    between atoms: C_6  and  N_7
REMARK    3  A    between atoms: C_8  and  C_10
REMARK    4  A    between atoms: N_13  and  S_14
REMARK    5  A    between atoms: S_14  and  N_17
REMARK    6  A    between atoms: C_25  and  C_26
REMARK                            x       y       z     vdW  Elec       q    Type
REMARK                         _______ _______ _______ _____ _____    ______ ____
ROOT
ATOM      1  C   UNL     1       1.769   9.097  20.381  0.00  0.00    +0.000 C 
ATOM      2  C   UNL     1       0.800   9.781  19.396  0.00  0.00    +0.000 C 
ATOM      3  C   UNL     1      -0.622   9.910  19.937  0.00  0.00    +0.000 C 
ATOM      4  N   UNL     1      -0.635  10.496  21.295  0.00  0.00    +0.000 NA
ATOM      5  C   UNL     1       0.136   9.638  22.229  0.00  0.00    +0.000 C 
ATOM      6  C   UNL     1       1.609   9.615  21.828  0.00  0.00    +0.000 C 
ENDROOT
BRANCH   1   8
ATOM      7  N   UNL     1       2.297   6.947  19.357  0.00  0.00    +0.000 N 
ATOM      8  C   UNL     1       1.618   7.599  20.356  0.00  0.00    +0.000 C 
ATOM      9  O   UNL     1       0.948   6.987  21.190  0.00  0.00    +0.000 OA
ATOM     10  H   UNL     1       2.997   7.459  18.833  0.00  0.00    +0.000 HD
BRANCH   7  16
ATOM     11  C   UNL     1       2.612   2.790  20.862  0.00  0.00    +0.000 C 
ATOM     12  C   UNL     1       3.569   3.353  19.800  0.00  0.00    +0.000 C 
ATOM     13  C   UNL     1       3.199   2.851  18.393  0.00  0.00    +0.000 C 
ATOM     14  C   UNL     1       1.923   3.485  17.842  0.00  0.00    +0.000 C 
ATOM     15  C   UNL     1       1.963   5.008  17.893  0.00  0.00    +0.000 C 
ATOM     16  C   UNL     1       2.299   5.500  19.302  0.00  0.00    +0.000 C 
ATOM     17  C   UNL     1       3.616   4.902  19.849  0.00  0.00    +0.000 C 
ATOM     18  C   UNL     1       4.860   5.431  19.118  0.00  0.00    +0.000 C 
ENDBRANCH   7  16
ENDBRANCH   1   8
BRANCH   4  19
ATOM     19  S   UNL     1      -0.413  12.176  21.418  0.00  0.00    +0.000 S 
ATOM     20  O   UNL     1       0.997  12.443  21.558  0.00  0.00    +0.000 OA
ATOM     21  O   UNL     1      -1.180  12.821  20.377  0.00  0.00    +0.000 OA
BRANCH  19  22
ATOM     22  N   UNL     1      -1.184  12.460  22.892  0.00  0.00    +0.000 NA
ATOM     23  C   UNL     1      -1.130  13.822  23.455  0.00  0.00    +0.000 C 
ATOM     24  C   UNL     1      -2.149  14.731  22.787  0.00  0.00    +0.000 C 
ATOM     25  C   UNL     1      -3.561  14.149  22.780  0.00  0.00    +0.000 C 
ATOM     26  C   UNL     1      -3.654  12.637  22.566  0.00  0.00    +0.000 C 
ATOM     27  C   UNL     1      -2.496  11.825  23.133  0.00  0.00    +0.000 C 
ENDBRANCH  19  22
ENDBRANCH   4  19
TORSDOF 4
ENDMDL
MODEL 6
REMARK VINA RESULT:      -6.1      6.687     10.217
REMARK  Name = 
REMARK  6 active torsions:
REMARK  status: ('A' for Active; 'I' for Inactive)
REMARK    1  A    between atoms: C_1  and  C_2
REMARK    2  A    between atoms: C_6  and  N_7
REMARK    3  A    between atoms: C_8  and  C_10
REMARK    4  A    between atoms: N_13  and  S_14
REMARK    5  A    between atoms: S_14  and  N_17
REMARK    6  A    between atoms: C_25  and  C_26
REMARK                            x       y       z     vdW  Elec       q    Type
REMARK                         _______ _______ _______ _____ _____    ______ ____
ROOT
ATOM      1  C   UNL     1       7.979   7.479  17.498  0.00  0.00    +0.000 C 
ATOM      2  C   UNL     1       7.974   6.521  18.706  0.00  0.00    +0.000 C 
ATOM      3  C   UNL     1       6.588   6.314  19.310  0.00  0.00    +0.000 C 
ATOM      4  N   UNL     1       5.589   5.976  18.273  0.00  0.00    +0.000 NA
ATOM      5  C   UNL     1       5.497   7.071  17.275  0.00  0.00    +0.000 C 
ATOM      6  C   UNL     1       6.816   7.205  16.518  0.00  0.00    +0.000 C 
ENDROOT
BRANCH   1   8
ATOM      7  N   UNL     1       8.921   9.294  18.827  0.00  0.00    +0.000 N 
ATOM      8  C   UNL     1       7.947   8.920  17.934  0.00  0.00    +0.000 C 
ATOM      9  O   UNL     1       7.120   9.724  17.504  0.00  0.00    +0.000 OA
ATOM     10  H   UNL     1       9.700   8.666  18.986  0.00  0.00    +0.000 HD
BRANCH   7  16
ATOM     11  C   UNL     1       8.557  13.702  18.526  0.00  0.00    +0.000 C 
ATOM     12  C   UNL     1       9.916  12.998  18.662  0.00  0.00    +0.000 C 
ATOM     13  C   UNL     1      10.459  13.107  20.098  0.00  0.00    +0.000 C 
ATOM     14  C   UNL     1       9.702  12.236  21.099  0.00  0.00    +0.000 C 
ATOM     15  C   UNL     1       9.613  10.781  20.650  0.00  0.00    +0.000 C 
ATOM     16  C   UNL     1       9.042  10.679  19.235  0.00  0.00    +0.000 C 
ATOM     17  C   UNL     1       9.833  11.519  18.205  0.00  0.00    +0.000 C 
ATOM     18  C   UNL     1      11.235  10.956  17.928  0.00  0.00    +0.000 C 
ENDBRANCH   7  16
ENDBRANCH   1   8
BRANCH   4  19
ATOM     19  S   UNL     1       5.592   4.382  17.682  0.00  0.00    +0.000 S 
ATOM     20  O   UNL     1       5.046   4.388  16.348  0.00  0.00    +0.000 OA
ATOM     21  O   UNL     1       6.887   3.796  17.940  0.00  0.00    +0.000 OA
BRANCH  19  22
ATOM     22  N   UNL     1       4.478   3.682  18.739  0.00  0.00    +0.000 NA
ATOM     23  C   UNL     1       3.541   4.570  19.450  0.00  0.00    +0.000 C 
ATOM     24  C   UNL     1       2.382   4.975  18.552  0.00  0.00    +0.000 C 
ATOM     25  C   UNL     1       1.687   3.784  17.896  0.00  0.00    +0.000 C 
ATOM     26  C   UNL     1       2.603   2.637  17.463  0.00  0.00    +0.000 C 
ATOM     27  C   UNL     1       3.830   2.417  18.340  0.00  0.00    +0.000 C 
ENDBRANCH  19  22
ENDBRANCH   4  19
TORSDOF 4
ENDMDL
MODEL 7
REMARK VINA RESULT:      -6.1      2.208      3.159
REMARK  Name = 
REMARK  6 active torsions:
REMARK  status: ('A' for Active; 'I' for Inactive)
REMARK    1  A    between atoms: C_1  and  C_2
REMARK    2  A    between atoms: C_6  and  N_7
REMARK    3  A    between atoms: C_8  and  C_10
REMARK    4  A    between atoms: N_13  and  S_14
REMARK    5  A    between atoms: S_14  and  N_17
REMARK    6  A    between atoms: C_25  and  C_26
REMARK                            x       y       z     vdW  Elec       q    Type
REMARK                         _______ _______ _______ _____ _____    ______ ____
ROOT
ATOM      1  C   UNL     1       1.404   9.916  18.175  0.00  0.00    +0.000 C 
ATOM      2  C   UNL     1      -0.129   9.852  18.015  0.00  0.00    +0.000 C 
ATOM      3  C   UNL     1      -0.882   9.979  19.337  0.00  0.00    +0.000 C 
ATOM      4  N   UNL     1      -0.409  11.141  20.120  0.00  0.00    +0.000 NA
ATOM      5  C   UNL     1       1.037  10.998  20.427  0.00  0.00    +0.000 C 
ATOM      6  C   UNL     1       1.853  11.038  19.138  0.00  0.00    +0.000 C 
ENDROOT
BRANCH   1   8
ATOM      7  N   UNL     1       2.728   7.923  17.706  0.00  0.00    +0.000 N 
ATOM      8  C   UNL     1       1.969   8.597  18.630  0.00  0.00    +0.000 C 
ATOM      9  O   UNL     1       1.786   8.155  19.765  0.00  0.00    +0.000 OA
ATOM     10  H   UNL     1       3.027   8.415  16.873  0.00  0.00    +0.000 HD
BRANCH   7  16
ATOM     11  C   UNL     1       5.925   5.336  19.362  0.00  0.00    +0.000 C 
ATOM     12  C   UNL     1       5.506   5.280  17.885  0.00  0.00    +0.000 C 
ATOM     13  C   UNL     1       4.616   4.056  17.603  0.00  0.00    +0.000 C 
ATOM     14  C   UNL     1       3.209   4.186  18.186  0.00  0.00    +0.000 C 
ATOM     15  C   UNL     1       2.523   5.480  17.761  0.00  0.00    +0.000 C 
ATOM     16  C   UNL     1       3.400   6.693  18.074  0.00  0.00    +0.000 C 
ATOM     17  C   UNL     1       4.810   6.593  17.447  0.00  0.00    +0.000 C 
ATOM     18  C   UNL     1       4.790   6.713  15.915  0.00  0.00    +0.000 C 
ENDBRANCH   7  16
ENDBRANCH   1   8
BRANCH   4  19
ATOM     19  S   UNL     1      -0.954  12.677  19.638  0.00  0.00    +0.000 S 
ATOM     20  O   UNL     1       0.085  13.638  19.914  0.00  0.00    +0.000 OA
ATOM     21  O   UNL     1      -1.521  12.571  18.314  0.00  0.00    +0.000 OA
BRANCH  19  22
ATOM     22  N   UNL     1      -2.218  12.890  20.736  0.00  0.00    +0.000 NA
ATOM     23  C   UNL     1      -2.121  12.224  22.047  0.00  0.00    +0.000 C 
ATOM     24  C   UNL     1      -1.217  13.000  22.991  0.00  0.00    +0.000 C 
ATOM     25  C   UNL     1      -1.592  14.476  23.104  0.00  0.00    +0.000 C 
ATOM     26  C   UNL     1      -2.070  15.140  21.810  0.00  0.00    +0.000 C 
ATOM     27  C   UNL     1      -2.829  14.230  20.852  0.00  0.00    +0.000 C 
ENDBRANCH  19  22
ENDBRANCH   4  19
TORSDOF 4
ENDMDL
MODEL 8
REMARK VINA RESULT:      -6.1      1.785      2.290
REMARK  Name = 
REMARK  6 active torsions:
REMARK  status: ('A' for Active; 'I' for Inactive)
REMARK    1  A    between atoms: C_1  and  C_2
REMARK    2  A    between atoms: C_6  and  N_7
REMARK    3  A    between atoms: C_8  and  C_10
REMARK    4  A    between atoms: N_13  and  S_14
REMARK    5  A    between atoms: S_14  and  N_17
REMARK    6  A    between atoms: C_25  and  C_26
REMARK                            x       y       z     vdW  Elec       q    Type
REMARK                         _______ _______ _______ _____ _____    ______ ____
ROOT
ATOM      1  C   UNL     1       1.915   9.038  19.875  0.00  0.00    +0.000 C 
ATOM      2  C   UNL     1       1.541   9.496  18.451  0.00  0.00    +0.000 C 
ATOM      3  C   UNL     1       0.035   9.581  18.217  0.00  0.00    +0.000 C 
ATOM      4  N   UNL     1      -0.637  10.347  19.289  0.00  0.00    +0.000 NA
ATOM      5  C   UNL     1      -0.412   9.694  20.604  0.00  0.00    +0.000 C 
ATOM      6  C   UNL     1       1.071   9.737  20.964  0.00  0.00    +0.000 C 
ENDROOT
BRANCH   1   8
ATOM      7  N   UNL     1       2.343   6.801  19.004  0.00  0.00    +0.000 N 
ATOM      8  C   UNL     1       1.802   7.545  20.023  0.00  0.00    +0.000 C 
ATOM      9  O   UNL     1       1.281   7.014  21.005  0.00  0.00    +0.000 OA
ATOM     10  H   UNL     1       2.944   7.265  18.332  0.00  0.00    +0.000 HD
BRANCH   7  16
ATOM     11  C   UNL     1       2.765   2.823  20.914  0.00  0.00    +0.000 C 
ATOM     12  C   UNL     1       3.698   3.297  19.789  0.00  0.00    +0.000 C 
ATOM     13  C   UNL     1       3.324   2.648  18.445  0.00  0.00    +0.000 C 
ATOM     14  C   UNL     1       2.029   3.196  17.849  0.00  0.00    +0.000 C 
ATOM     15  C   UNL     1       2.036   4.718  17.747  0.00  0.00    +0.000 C 
ATOM     16  C   UNL     1       2.376   5.356  19.094  0.00  0.00    +0.000 C 
ATOM     17  C   UNL     1       3.712   4.843  19.682  0.00  0.00    +0.000 C 
ATOM     18  C   UNL     1       4.936   5.321  18.886  0.00  0.00    +0.000 C 
ENDBRANCH   7  16
ENDBRANCH   1   8
BRANCH   4  19
ATOM     19  S   UNL     1      -0.512  12.040  19.230  0.00  0.00    +0.000 S 
ATOM     20  O   UNL     1       0.879  12.392  19.084  0.00  0.00    +0.000 OA
ATOM     21  O   UNL     1      -1.495  12.544  18.299  0.00  0.00    +0.000 OA
BRANCH  19  22
ATOM     22  N   UNL     1      -1.023  12.421  20.792  0.00  0.00    +0.000 NA
ATOM     23  C   UNL     1      -0.174  13.312  21.604  0.00  0.00    +0.000 C 
ATOM     24  C   UNL     1      -0.382  14.768  21.219  0.00  0.00    +0.000 C 
ATOM     25  C   UNL     1      -1.850  15.186  21.222  0.00  0.00    +0.000 C 
ATOM     26  C   UNL     1      -2.842  14.132  20.723  0.00  0.00    +0.000 C 
ATOM     27  C   UNL     1      -2.458  12.686  21.018  0.00  0.00    +0.000 C 
ENDBRANCH  19  22
ENDBRANCH   4  19
TORSDOF 4
ENDMDL
MODEL 9
REMARK VINA RESULT:      -6.1      8.031      9.674
REMARK  Name = 
REMARK  6 active torsions:
REMARK  status: ('A' for Active; 'I' for Inactive)
REMARK    1  A    between atoms: C_1  and  C_2
REMARK    2  A    between atoms: C_6  and  N_7
REMARK    3  A    between atoms: C_8  and  C_10
REMARK    4  A    between atoms: N_13  and  S_14
REMARK    5  A    between atoms: S_14  and  N_17
REMARK    6  A    between atoms: C_25  and  C_26
REMARK                            x       y       z     vdW  Elec       q    Type
REMARK                         _______ _______ _______ _____ _____    ______ ____
ROOT
ATOM      1  C   UNL     1       6.520  15.117  20.624  0.00  0.00    +0.000 C 
ATOM      2  C   UNL     1       6.258  16.504  21.246  0.00  0.00    +0.000 C 
ATOM      3  C   UNL     1       5.952  17.584  20.212  0.00  0.00    +0.000 C 
ATOM      4  N   UNL     1       4.906  17.146  19.264  0.00  0.00    +0.000 NA
ATOM      5  C   UNL     1       5.348  15.928  18.539  0.00  0.00    +0.000 C 
ATOM      6  C   UNL     1       5.504  14.764  19.514  0.00  0.00    +0.000 C 
ENDROOT
BRANCH   1   8
ATOM      7  N   UNL     1       8.381  13.730  19.875  0.00  0.00    +0.000 N 
ATOM      8  C   UNL     1       7.921  15.007  20.086  0.00  0.00    +0.000 C 
ATOM      9  O   UNL     1       8.610  15.994  19.825  0.00  0.00    +0.000 OA
ATOM     10  H   UNL     1       7.716  12.966  19.898  0.00  0.00    +0.000 HD
BRANCH   7  16
ATOM     11  C   UNL     1      11.430  13.609  16.660  0.00  0.00    +0.000 C 
ATOM     12  C   UNL     1      11.000  12.351  17.431  0.00  0.00    +0.000 C 
ATOM     13  C   UNL     1      12.049  11.958  18.487  0.00  0.00    +0.000 C 
ATOM     14  C   UNL     1      12.083  12.904  19.686  0.00  0.00    +0.000 C 
ATOM     15  C   UNL     1      10.707  13.092  20.316  0.00  0.00    +0.000 C 
ATOM     16  C   UNL     1       9.678  13.514  19.267  0.00  0.00    +0.000 C 
ATOM     17  C   UNL     1       9.601  12.535  18.072  0.00  0.00    +0.000 C 
ATOM     18  C   UNL     1       8.995  11.175  18.454  0.00  0.00    +0.000 C 
ENDBRANCH   7  16
ENDBRANCH   1   8
BRANCH   4  19
ATOM     19  S   UNL     1       3.297  17.184  19.810  0.00  0.00    +0.000 S 
ATOM     20  O   UNL     1       3.181  16.312  20.953  0.00  0.00    +0.000 OA
ATOM     21  O   UNL     1       2.870  18.562  19.895  0.00  0.00    +0.000 OA
BRANCH  19  22
ATOM     22  N   UNL     1       2.527  16.475  18.487  0.00  0.00    +0.000 NA
ATOM     23  C   UNL     1       1.493  15.457  18.746  0.00  0.00    +0.000 C 
ATOM     24  C   UNL     1       0.170  16.105  19.125  0.00  0.00    +0.000 C 
ATOM     25  C   UNL     1      -0.284  17.169  18.129  0.00  0.00    +0.000 C 
ATOM     26  C   UNL     1       0.827  18.033  17.528  0.00  0.00    +0.000 C 
ATOM     27  C   UNL     1       2.167  17.333  17.340  0.00  0.00    +0.000 C 
ENDBRANCH  19  22
ENDBRANCH   4  19
TORSDOF 4
ENDMDL
