MODEL 1
REMARK VINA RESULT:      -6.4      0.000      0.000
REMARK  Name = 
REMARK  5 active torsions:
REMARK  status: ('A' for Active; 'I' for Inactive)
REMARK    1  A    between atoms: C_2  and  C_3
REMARK    2  A    between atoms: C_3  and  N_4
REMARK    3  A    between atoms: N_4  and  C_5
REMARK    4  A    between atoms: N_4  and  N_6
REMARK    5  A    between atoms: N_9  and  C_10
REMARK                            x       y       z     vdW  Elec       q    Type
REMARK                         _______ _______ _______ _____ _____    ______ ____
ROOT
ATOM      1  N   UNL     1       5.412   3.491  16.449  0.00  0.00    +0.000 N 
ATOM      2  C   UNL     1       4.492   3.815  17.445  0.00  0.00    +0.000 C 
ATOM      3  O   UNL     1       4.128   4.967  17.672  0.00  0.00    +0.000 OA
ATOM      4  N   UNL     1       4.075   2.701  18.151  0.00  0.00    +0.000 N 
ATOM      5  H   UNL     1       5.486   2.524  16.156  0.00  0.00    +0.000 HD
ATOM      6  H   UNL     1       4.696   1.906  18.149  0.00  0.00    +0.000 HD
ENDROOT
BRANCH   4   7
ATOM      7  C   UNL     1       3.051   2.723  19.126  0.00  0.00    +0.000 A 
ATOM      8  C   UNL     1       1.693   2.778  18.791  0.00  0.00    +0.000 A 
ATOM      9  C   UNL     1       0.711   2.859  19.780  0.00  0.00    +0.000 A 
ATOM     10  C   UNL     1       1.082   2.861  21.120  0.00  0.00    +0.000 A 
ATOM     11  C   UNL     1       2.427   2.761  21.469  0.00  0.00    +0.000 A 
ATOM     12  C   UNL     1       3.411   2.684  20.477  0.00  0.00    +0.000 A 
ENDBRANCH   4   7
BRANCH   1  13
ATOM     13  N   UNL     1       5.870   4.467  15.506  0.00  0.00    +0.000 NA
ATOM     14  C   UNL     1       6.215   3.826  14.230  0.00  0.00    +0.000 C 
BRANCH  13  15
ATOM     15  C   UNL     1       7.016   5.264  15.999  0.00  0.00    +0.000 C 
BRANCH  15  17
ATOM     16  C   UNL     1       7.721   5.409  18.413  0.00  0.00    +0.000 C 
ATOM     17  C   UNL     1       7.599   4.713  17.274  0.00  0.00    +0.000 C 
ENDBRANCH  15  17
ENDBRANCH  13  15
ENDBRANCH   1  13
TORSDOF 4
ENDMDL
MODEL 2
REMARK VINA RESULT:      -6.4      1.329      2.528
REMARK  Name = 
REMARK  5 active torsions:
REMARK  status: ('A' for Active; 'I' for Inactive)
REMARK    1  A    between atoms: C_2  and  C_3
REMARK    2  A    between atoms: C_3  and  N_4
REMARK    3  A    between atoms: N_4  and  C_5
REMARK    4  A    between atoms: N_4  and  N_6
REMARK    5  A    between atoms: N_9  and  C_10
REMARK                            x       y       z     vdW  Elec       q    Type
REMARK                         _______ _______ _______ _____ _____    ______ ____
ROOT
ATOM      1  N   UNL     1       6.828   4.185  18.285  0.00  0.00    +0.000 N 
ATOM      2  C   UNL     1       5.484   4.378  18.597  0.00  0.00    +0.000 C 
ATOM      3  O   UNL     1       4.915   5.461  18.471  0.00  0.00    +0.000 OA
ATOM      4  N   UNL     1       4.891   3.227  19.086  0.00  0.00    +0.000 N 
ATOM      5  H   UNL     1       7.168   3.236  18.180  0.00  0.00    +0.000 HD
ATOM      6  H   UNL     1       5.507   2.543  19.499  0.00  0.00    +0.000 HD
ENDROOT
BRANCH   4   7
ATOM      7  C   UNL     1       3.509   3.105  19.357  0.00  0.00    +0.000 A 
ATOM      8  C   UNL     1       2.966   3.345  20.624  0.00  0.00    +0.000 A 
ATOM      9  C   UNL     1       1.604   3.156  20.870  0.00  0.00    +0.000 A 
ATOM     10  C   UNL     1       0.769   2.746  19.838  0.00  0.00    +0.000 A 
ATOM     11  C   UNL     1       1.287   2.547  18.561  0.00  0.00    +0.000 A 
ATOM     12  C   UNL     1       2.653   2.734  18.316  0.00  0.00    +0.000 A 
ENDBRANCH   4   7
BRANCH   1  13
ATOM     13  N   UNL     1       7.599   5.201  17.633  0.00  0.00    +0.000 NA
ATOM     14  C   UNL     1       7.799   6.348  18.529  0.00  0.00    +0.000 C 
BRANCH  13  15
ATOM     15  C   UNL     1       7.008   5.654  16.354  0.00  0.00    +0.000 C 
BRANCH  15  17
ATOM     16  C   UNL     1       5.921   4.287  14.539  0.00  0.00    +0.000 C 
ATOM     17  C   UNL     1       6.979   4.567  15.312  0.00  0.00    +0.000 C 
ENDBRANCH  15  17
ENDBRANCH  13  15
ENDBRANCH   1  13
TORSDOF 4
ENDMDL
MODEL 3
REMARK VINA RESULT:      -6.4      1.247      2.239
REMARK  Name = 
REMARK  5 active torsions:
REMARK  status: ('A' for Active; 'I' for Inactive)
REMARK    1  A    between atoms: C_2  and  C_3
REMARK    2  A    between atoms: C_3  and  N_4
REMARK    3  A    between atoms: N_4  and  C_5
REMARK    4  A    between atoms: N_4  and  N_6
REMARK    5  A    between atoms: N_9  and  C_10
REMARK                            x       y       z     vdW  Elec       q    Type
REMARK                         _______ _______ _______ _____ _____    ______ ____
ROOT
ATOM      1  N   UNL     1       6.755   4.134  18.182  0.00  0.00    +0.000 N 
ATOM      2  C   UNL     1       5.403   4.302  18.475  0.00  0.00    +0.000 C 
ATOM      3  O   UNL     1       4.788   5.338  18.233  0.00  0.00    +0.000 OA
ATOM      4  N   UNL     1       4.861   3.187  19.089  0.00  0.00    +0.000 N 
ATOM      5  H   UNL     1       7.137   3.195  18.181  0.00  0.00    +0.000 HD
ATOM      6  H   UNL     1       5.506   2.579  19.573  0.00  0.00    +0.000 HD
ENDROOT
BRANCH   4   7
ATOM      7  C   UNL     1       3.485   3.035  19.376  0.00  0.00    +0.000 A 
ATOM      8  C   UNL     1       2.573   2.530  18.443  0.00  0.00    +0.000 A 
ATOM      9  C   UNL     1       1.210   2.450  18.740  0.00  0.00    +0.000 A 
ATOM     10  C   UNL     1       0.753   2.855  19.988  0.00  0.00    +0.000 A 
ATOM     11  C   UNL     1       1.656   3.317  20.943  0.00  0.00    +0.000 A 
ATOM     12  C   UNL     1       3.021   3.400  20.643  0.00  0.00    +0.000 A 
ENDBRANCH   4   7
BRANCH   1  13
ATOM     13  N   UNL     1       7.483   5.105  17.420  0.00  0.00    +0.000 NA
ATOM     14  C   UNL     1       7.654   6.342  18.195  0.00  0.00    +0.000 C 
BRANCH  13  15
ATOM     15  C   UNL     1       6.860   5.409  16.112  0.00  0.00    +0.000 C 
BRANCH  15  17
ATOM     16  C   UNL     1       6.099   4.167  14.056  0.00  0.00    +0.000 C 
ATOM     17  C   UNL     1       6.755   4.196  15.225  0.00  0.00    +0.000 C 
ENDBRANCH  15  17
ENDBRANCH  13  15
ENDBRANCH   1  13
TORSDOF 4
ENDMDL
MODEL 4
REMARK VINA RESULT:      -6.4      1.281      1.428
REMARK  Name = 
REMARK  5 active torsions:
REMARK  status: ('A' for Active; 'I' for Inactive)
REMARK    1  A    between atoms: C_2  and  C_3
REMARK    2  A    between atoms: C_3  and  N_4
REMARK    3  A    between atoms: N_4  and  C_5
REMARK    4  A    between atoms: N_4  and  N_6
REMARK    5  A    between atoms: N_9  and  C_10
REMARK                            x       y       z     vdW  Elec       q    Type
REMARK                         _______ _______ _______ _____ _____    ______ ____
ROOT
ATOM      1  N   UNL     1       6.008   4.164  17.312  0.00  0.00    +0.000 N 
ATOM      2  C   UNL     1       4.926   4.334  18.175  0.00  0.00    +0.000 C 
ATOM      3  O   UNL     1       4.482   5.438  18.484  0.00  0.00    +0.000 OA
ATOM      4  N   UNL     1       4.447   3.128  18.653  0.00  0.00    +0.000 N 
ATOM      5  H   UNL     1       6.168   3.247  16.913  0.00  0.00    +0.000 HD
ATOM      6  H   UNL     1       5.092   2.352  18.651  0.00  0.00    +0.000 HD
ENDROOT
BRANCH   4   7
ATOM      7  C   UNL     1       3.278   2.998  19.438  0.00  0.00    +0.000 A 
ATOM      8  C   UNL     1       1.992   3.136  18.904  0.00  0.00    +0.000 A 
ATOM      9  C   UNL     1       0.862   3.063  19.721  0.00  0.00    +0.000 A 
ATOM     10  C   UNL     1       1.012   2.825  21.083  0.00  0.00    +0.000 A 
ATOM     11  C   UNL     1       2.283   2.640  21.621  0.00  0.00    +0.000 A 
ATOM     12  C   UNL     1       3.416   2.718  20.801  0.00  0.00    +0.000 A 
ENDBRANCH   4   7
BRANCH   1  13
ATOM     13  N   UNL     1       6.571   5.267  16.592  0.00  0.00    +0.000 NA
ATOM     14  C   UNL     1       7.176   4.804  15.335  0.00  0.00    +0.000 C 
BRANCH  13  15
ATOM     15  C   UNL     1       7.563   6.034  17.378  0.00  0.00    +0.000 C 
BRANCH  15  17
ATOM     16  C   UNL     1       8.106   8.440  17.893  0.00  0.00    +0.000 C 
ATOM     17  C   UNL     1       7.291   7.515  17.366  0.00  0.00    +0.000 C 
ENDBRANCH  15  17
ENDBRANCH  13  15
ENDBRANCH   1  13
TORSDOF 4
ENDMDL
MODEL 5
REMARK VINA RESULT:      -6.4      1.349      2.515
REMARK  Name = 
REMARK  5 active torsions:
REMARK  status: ('A' for Active; 'I' for Inactive)
REMARK    1  A    between atoms: C_2  and  C_3
REMARK    2  A    between atoms: C_3  and  N_4
REMARK    3  A    between atoms: N_4  and  C_5
REMARK    4  A    between atoms: N_4  and  N_6
REMARK    5  A    between atoms: N_9  and  C_10
REMARK                            x       y       z     vdW  Elec       q    Type
REMARK                         _______ _______ _______ _____ _____    ______ ____
ROOT
ATOM      1  N   UNL     1       5.151   4.109  16.347  0.00  0.00    +0.000 N 
ATOM      2  C   UNL     1       4.651   4.211  17.644  0.00  0.00    +0.000 C 
ATOM      3  O   UNL     1       5.040   5.056  18.448  0.00  0.00    +0.000 OA
ATOM      4  N   UNL     1       3.705   3.239  17.915  0.00  0.00    +0.000 N 
ATOM      5  H   UNL     1       4.630   3.564  15.670  0.00  0.00    +0.000 HD
ATOM      6  H   UNL     1       3.745   2.400  17.355  0.00  0.00    +0.000 HD
ENDROOT
BRANCH   4   7
ATOM      7  C   UNL     1       2.943   3.189  19.105  0.00  0.00    +0.000 A 
ATOM      8  C   UNL     1       3.430   2.618  20.287  0.00  0.00    +0.000 A 
ATOM      9  C   UNL     1       2.628   2.532  21.427  0.00  0.00    +0.000 A 
ATOM     10  C   UNL     1       1.335   3.041  21.398  0.00  0.00    +0.000 A 
ATOM     11  C   UNL     1       0.853   3.652  20.244  0.00  0.00    +0.000 A 
ATOM     12  C   UNL     1       1.656   3.735  19.100  0.00  0.00    +0.000 A 
ENDBRANCH   4   7
BRANCH   1  13
ATOM     13  N   UNL     1       6.036   5.097  15.806  0.00  0.00    +0.000 NA
ATOM     14  C   UNL     1       5.292   6.314  15.449  0.00  0.00    +0.000 C 
BRANCH  13  15
ATOM     15  C   UNL     1       6.807   4.615  14.637  0.00  0.00    +0.000 C 
BRANCH  15  17
ATOM     16  C   UNL     1       6.353   3.503  12.424  0.00  0.00    +0.000 C 
ATOM     17  C   UNL     1       5.954   3.861  13.652  0.00  0.00    +0.000 C 
ENDBRANCH  15  17
ENDBRANCH  13  15
ENDBRANCH   1  13
TORSDOF 4
ENDMDL
MODEL 6
REMARK VINA RESULT:      -6.3      1.299      2.192
REMARK  Name = 
REMARK  5 active torsions:
REMARK  status: ('A' for Active; 'I' for Inactive)
REMARK    1  A    between atoms: C_2  and  C_3
REMARK    2  A    between atoms: C_3  and  N_4
REMARK    3  A    between atoms: N_4  and  C_5
REMARK    4  A    between atoms: N_4  and  N_6
REMARK    5  A    between atoms: N_9  and  C_10
REMARK                            x       y       z     vdW  Elec       q    Type
REMARK                         _______ _______ _______ _____ _____    ______ ____
ROOT
ATOM      1  N   UNL     1       5.283   3.813  16.459  0.00  0.00    +0.000 N 
ATOM      2  C   UNL     1       4.660   3.983  17.694  0.00  0.00    +0.000 C 
ATOM      3  O   UNL     1       4.894   4.934  18.437  0.00  0.00    +0.000 OA
ATOM      4  N   UNL     1       3.787   2.950  17.984  0.00  0.00    +0.000 N 
ATOM      5  H   UNL     1       4.880   3.157  15.800  0.00  0.00    +0.000 HD
ATOM      6  H   UNL     1       3.956   2.072  17.517  0.00  0.00    +0.000 HD
ENDROOT
BRANCH   4   7
ATOM      7  C   UNL     1       2.928   2.934  19.107  0.00  0.00    +0.000 A 
ATOM      8  C   UNL     1       1.572   3.269  19.022  0.00  0.00    +0.000 A 
ATOM      9  C   UNL     1       0.767   3.301  20.163  0.00  0.00    +0.000 A 
ATOM     10  C   UNL     1       1.312   2.973  21.399  0.00  0.00    +0.000 A 
ATOM     11  C   UNL     1       2.649   2.593  21.491  0.00  0.00    +0.000 A 
ATOM     12  C   UNL     1       3.456   2.565  20.348  0.00  0.00    +0.000 A 
ENDBRANCH   4   7
BRANCH   1  13
ATOM     13  N   UNL     1       6.119   4.831  15.895  0.00  0.00    +0.000 NA
ATOM     14  C   UNL     1       5.334   6.041  15.611  0.00  0.00    +0.000 C 
BRANCH  13  15
ATOM     15  C   UNL     1       6.833   4.393  14.674  0.00  0.00    +0.000 C 
BRANCH  15  17
ATOM     16  C   UNL     1       6.288   3.462  12.398  0.00  0.00    +0.000 C 
ATOM     17  C   UNL     1       5.899   3.878  13.611  0.00  0.00    +0.000 C 
ENDBRANCH  15  17
ENDBRANCH  13  15
ENDBRANCH   1  13
TORSDOF 4
ENDMDL
MODEL 7
REMARK VINA RESULT:      -6.3      1.097      1.678
REMARK  Name = 
REMARK  5 active torsions:
REMARK  status: ('A' for Active; 'I' for Inactive)
REMARK    1  A    between atoms: C_2  and  C_3
REMARK    2  A    between atoms: C_3  and  N_4
REMARK    3  A    between atoms: N_4  and  C_5
REMARK    4  A    between atoms: N_4  and  N_6
REMARK    5  A    between atoms: N_9  and  C_10
REMARK                            x       y       z     vdW  Elec       q    Type
REMARK                         _______ _______ _______ _____ _____    ______ ____
ROOT
ATOM      1  N   UNL     1       5.715   3.987  16.843  0.00  0.00    +0.000 N 
ATOM      2  C   UNL     1       4.792   4.219  17.861  0.00  0.00    +0.000 C 
ATOM      3  O   UNL     1       4.514   5.343  18.272  0.00  0.00    +0.000 OA
ATOM      4  N   UNL     1       4.263   3.042  18.362  0.00  0.00    +0.000 N 
ATOM      5  H   UNL     1       5.720   3.080  16.392  0.00  0.00    +0.000 HD
ATOM      6  H   UNL     1       4.818   2.208  18.237  0.00  0.00    +0.000 HD
ENDROOT
BRANCH   4   7
ATOM      7  C   UNL     1       3.213   2.988  19.307  0.00  0.00    +0.000 A 
ATOM      8  C   UNL     1       3.433   2.715  20.662  0.00  0.00    +0.000 A 
ATOM      9  C   UNL     1       2.365   2.609  21.556  0.00  0.00    +0.000 A 
ATOM     10  C   UNL     1       1.066   2.802  21.102  0.00  0.00    +0.000 A 
ATOM     11  C   UNL     1       0.836   3.119  19.766  0.00  0.00    +0.000 A 
ATOM     12  C   UNL     1       1.906   3.221  18.869  0.00  0.00    +0.000 A 
ENDBRANCH   4   7
BRANCH   1  13
ATOM     13  N   UNL     1       6.280   5.064  16.086  0.00  0.00    +0.000 NA
ATOM     14  C   UNL     1       6.751   4.583  14.780  0.00  0.00    +0.000 C 
BRANCH  13  15
ATOM     15  C   UNL     1       7.377   5.764  16.793  0.00  0.00    +0.000 C 
BRANCH  15  17
ATOM     16  C   UNL     1       7.847   8.094  17.627  0.00  0.00    +0.000 C 
ATOM     17  C   UNL     1       6.981   7.139  17.260  0.00  0.00    +0.000 C 
ENDBRANCH  15  17
ENDBRANCH  13  15
ENDBRANCH   1  13
TORSDOF 4
ENDMDL
MODEL 8
REMARK VINA RESULT:      -6.2      1.440      2.671
REMARK  Name = 
REMARK  5 active torsions:
REMARK  status: ('A' for Active; 'I' for Inactive)
REMARK    1  A    between atoms: C_2  and  C_3
REMARK    2  A    between atoms: C_3  and  N_4
REMARK    3  A    between atoms: N_4  and  C_5
REMARK    4  A    between atoms: N_4  and  N_6
REMARK    5  A    between atoms: N_9  and  C_10
REMARK                            x       y       z     vdW  Elec       q    Type
REMARK                         _______ _______ _______ _____ _____    ______ ____
ROOT
ATOM      1  N   UNL     1       5.135   4.590  16.050  0.00  0.00    +0.000 N 
ATOM      2  C   UNL     1       4.576   4.184  17.260  0.00  0.00    +0.000 C 
ATOM      3  O   UNL     1       5.249   3.789  18.210  0.00  0.00    +0.000 OA
ATOM      4  N   UNL     1       3.194   4.250  17.245  0.00  0.00    +0.000 N 
ATOM      5  H   UNL     1       4.560   5.123  15.407  0.00  0.00    +0.000 HD
ATOM      6  H   UNL     1       2.750   4.211  16.339  0.00  0.00    +0.000 HD
ENDROOT
BRANCH   4   7
ATOM      7  C   UNL     1       2.381   4.022  18.378  0.00  0.00    +0.000 A 
ATOM      8  C   UNL     1       2.214   4.975  19.389  0.00  0.00    +0.000 A 
ATOM      9  C   UNL     1       1.451   4.693  20.524  0.00  0.00    +0.000 A 
ATOM     10  C   UNL     1       0.827   3.457  20.644  0.00  0.00    +0.000 A 
ATOM     11  C   UNL     1       0.947   2.515  19.625  0.00  0.00    +0.000 A 
ATOM     12  C   UNL     1       1.715   2.798  18.489  0.00  0.00    +0.000 A 
ENDBRANCH   4   7
BRANCH   1  13
ATOM     13  N   UNL     1       6.551   4.735  15.890  0.00  0.00    +0.000 NA
ATOM     14  C   UNL     1       7.014   5.982  16.513  0.00  0.00    +0.000 C 
BRANCH  13  15
ATOM     15  C   UNL     1       6.989   4.683  14.476  0.00  0.00    +0.000 C 
BRANCH  15  17
ATOM     16  C   UNL     1       6.317   3.481  12.367  0.00  0.00    +0.000 C 
ATOM     17  C   UNL     1       6.031   3.918  13.601  0.00  0.00    +0.000 C 
ENDBRANCH  15  17
ENDBRANCH  13  15
ENDBRANCH   1  13
TORSDOF 4
ENDMDL
MODEL 9
REMARK VINA RESULT:      -6.2      1.758      2.224
REMARK  Name = 
REMARK  5 active torsions:
REMARK  status: ('A' for Active; 'I' for Inactive)
REMARK    1  A    between atoms: C_2  and  C_3
REMARK    2  A    between atoms: C_3  and  N_4
REMARK    3  A    between atoms: N_4  and  C_5
REMARK    4  A    between atoms: N_4  and  N_6
REMARK    5  A    between atoms: N_9  and  C_10
REMARK                            x       y       z     vdW  Elec       q    Type
REMARK                         _______ _______ _______ _____ _____    ______ ____
ROOT
ATOM      1  N   UNL     1       5.152   5.956  16.475  0.00  0.00    +0.000 N 
ATOM      2  C   UNL     1       4.558   5.052  17.353  0.00  0.00    +0.000 C 
ATOM      3  O   UNL     1       5.168   4.116  17.867  0.00  0.00    +0.000 OA
ATOM      4  N   UNL     1       3.214   5.317  17.544  0.00  0.00    +0.000 N 
ATOM      5  H   UNL     1       4.673   6.827  16.281  0.00  0.00    +0.000 HD
ATOM      6  H   UNL     1       2.747   5.834  16.814  0.00  0.00    +0.000 HD
ENDROOT
BRANCH   4   7
ATOM      7  C   UNL     1       2.401   4.640  18.482  0.00  0.00    +0.000 A 
ATOM      8  C   UNL     1       2.288   5.049  19.815  0.00  0.00    +0.000 A 
ATOM      9  C   UNL     1       1.523   4.321  20.729  0.00  0.00    +0.000 A 
ATOM     10  C   UNL     1       0.843   3.185  20.305  0.00  0.00    +0.000 A 
ATOM     11  C   UNL     1       0.909   2.791  18.971  0.00  0.00    +0.000 A 
ATOM     12  C   UNL     1       1.679   3.520  18.057  0.00  0.00    +0.000 A 
ENDBRANCH   4   7
BRANCH   1  13
ATOM     13  N   UNL     1       6.566   5.955  16.242  0.00  0.00    +0.000 NA
ATOM     14  C   UNL     1       6.916   4.964  15.215  0.00  0.00    +0.000 C 
BRANCH  13  15
ATOM     15  C   UNL     1       7.361   5.717  17.468  0.00  0.00    +0.000 C 
BRANCH  15  17
ATOM     16  C   UNL     1       7.735   8.206  17.558  0.00  0.00    +0.000 C 
ATOM     17  C   UNL     1       7.800   6.996  18.131  0.00  0.00    +0.000 C 
ENDBRANCH  15  17
ENDBRANCH  13  15
ENDBRANCH   1  13
TORSDOF 4
ENDMDL
