MODEL 1
REMARK VINA RESULT:      -7.9      0.000      0.000
REMARK  Name = 
REMARK  9 active torsions:
REMARK  status: ('A' for Active; 'I' for Inactive)
REMARK    1  A    between atoms: C_1  and  O_2
REMARK    2  A    between atoms: O_2  and  C_3
REMARK    3  A    between atoms: C_6  and  N_7
REMARK    4  A    between atoms: N_7  and  C_8
REMARK    5  A    between atoms: C_10  and  C_11
REMARK    6  A    between atoms: C_13  and  C_14
REMARK    7  A    between atoms: C_15  and  C_16
REMARK    8  A    between atoms: C_19  and  O_20
REMARK    9  A    between atoms: O_20  and  C_21
REMARK                            x       y       z     vdW  Elec       q    Type
REMARK                         _______ _______ _______ _____ _____    ______ ____
ROOT
ATOM      1  C   UNL     1       4.548   4.649  19.248  0.00  0.00    +0.000 A 
ATOM      2  N   UNL     1       4.019   5.896  19.182  0.00  0.00    +0.000 NA
ATOM      3  C   UNL     1       2.750   6.109  19.580  0.00  0.00    +0.000 A 
ATOM      4  C   UNL     1       2.238   7.515  19.498  0.00  0.00    +0.000 C 
ATOM      5  C   UNL     1       1.938   5.087  20.037  0.00  0.00    +0.000 A 
ATOM      6  C   UNL     1       2.440   3.778  20.084  0.00  0.00    +0.000 A 
ATOM      7  C   UNL     1       1.519   2.683  20.548  0.00  0.00    +0.000 C 
ATOM      8  C   UNL     1       3.774   3.549  19.675  0.00  0.00    +0.000 A 
ENDROOT
BRANCH   8   9
ATOM      9  C   UNL     1       4.353   2.175  19.776  0.00  0.00    +0.000 C 
ATOM     10  N   UNL     1       4.074   1.290  18.771  0.00  0.00    +0.000 N 
ATOM     11  O   UNL     1       5.057   1.821  20.711  0.00  0.00    +0.000 OA
ATOM     12  H   UNL     1       3.343   1.470  18.091  0.00  0.00    +0.000 HD
ATOM     13  H   UNL     1       4.382   0.335  18.906  0.00  0.00    +0.000 HD
ENDBRANCH   8   9
BRANCH   1  14
ATOM     14  N   UNL     1       5.880   4.489  18.776  0.00  0.00    +0.000 N 
ATOM     15  H   UNL     1       6.465   5.223  19.177  0.00  0.00    +0.000 HD
BRANCH  14  19
ATOM     16  C   UNL     1       6.657   4.483  14.603  0.00  0.00    +0.000 A 
ATOM     17  C   UNL     1       5.726   3.608  15.152  0.00  0.00    +0.000 A 
ATOM     18  C   UNL     1       5.508   3.578  16.528  0.00  0.00    +0.000 A 
ATOM     19  C   UNL     1       6.230   4.417  17.390  0.00  0.00    +0.000 A 
ATOM     20  C   UNL     1       7.150   5.332  16.833  0.00  0.00    +0.000 A 
ATOM     21  C   UNL     1       7.381   5.332  15.445  0.00  0.00    +0.000 A 
BRANCH  16  23
ATOM     22  C   UNL     1       5.938   3.462  12.577  0.00  0.00    +0.000 C 
ATOM     23  O   UNL     1       6.752   4.418  13.241  0.00  0.00    +0.000 OA
ENDBRANCH  16  23
BRANCH  20  24
ATOM     24  O   UNL     1       7.796   6.162  17.720  0.00  0.00    +0.000 OA
ATOM     25  C   UNL     1       7.570   7.559  17.568  0.00  0.00    +0.000 C 
ENDBRANCH  20  24
ENDBRANCH  14  19
ENDBRANCH   1  14
TORSDOF 5
ENDMDL
MODEL 2
REMARK VINA RESULT:      -7.2      1.329      1.333
REMARK  Name = 
REMARK  9 active torsions:
REMARK  status: ('A' for Active; 'I' for Inactive)
REMARK    1  A    between atoms: C_1  and  O_2
REMARK    2  A    between atoms: O_2  and  C_3
REMARK    3  A    between atoms: C_6  and  N_7
REMARK    4  A    between atoms: N_7  and  C_8
REMARK    5  A    between atoms: C_10  and  C_11
REMARK    6  A    between atoms: C_13  and  C_14
REMARK    7  A    between atoms: C_15  and  C_16
REMARK    8  A    between atoms: C_19  and  O_20
REMARK    9  A    between atoms: O_20  and  C_21
REMARK                            x       y       z     vdW  Elec       q    Type
REMARK                         _______ _______ _______ _____ _____    ______ ____
ROOT
ATOM      1  C   UNL     1       3.908   4.873  19.620  0.00  0.00    +0.000 A 
ATOM      2  N   UNL     1       3.261   6.016  19.960  0.00  0.00    +0.000 NA
ATOM      3  C   UNL     1       1.969   5.969  20.339  0.00  0.00    +0.000 A 
ATOM      4  C   UNL     1       1.324   7.267  20.719  0.00  0.00    +0.000 C 
ATOM      5  C   UNL     1       1.252   4.787  20.373  0.00  0.00    +0.000 A 
ATOM      6  C   UNL     1       1.878   3.591  19.994  0.00  0.00    +0.000 A 
ATOM      7  C   UNL     1       1.060   2.329  20.004  0.00  0.00    +0.000 C 
ATOM      8  C   UNL     1       3.236   3.631  19.602  0.00  0.00    +0.000 A 
ENDROOT
BRANCH   8   9
ATOM      9  C   UNL     1       3.944   2.363  19.254  0.00  0.00    +0.000 C 
ATOM     10  N   UNL     1       4.863   1.880  20.146  0.00  0.00    +0.000 N 
ATOM     11  O   UNL     1       3.735   1.751  18.216  0.00  0.00    +0.000 OA
ATOM     12  H   UNL     1       5.212   2.449  20.911  0.00  0.00    +0.000 HD
ATOM     13  H   UNL     1       5.411   1.083  19.849  0.00  0.00    +0.000 HD
ENDBRANCH   8   9
BRANCH   1  14
ATOM     14  N   UNL     1       5.258   5.000  19.193  0.00  0.00    +0.000 N 
ATOM     15  H   UNL     1       5.624   5.897  19.511  0.00  0.00    +0.000 HD
BRANCH  14  19
ATOM     16  C   UNL     1       6.521   4.928  15.141  0.00  0.00    +0.000 A 
ATOM     17  C   UNL     1       5.178   5.091  15.462  0.00  0.00    +0.000 A 
ATOM     18  C   UNL     1       4.760   5.065  16.791  0.00  0.00    +0.000 A 
ATOM     19  C   UNL     1       5.678   4.862  17.831  0.00  0.00    +0.000 A 
ATOM     20  C   UNL     1       7.047   4.733  17.511  0.00  0.00    +0.000 A 
ATOM     21  C   UNL     1       7.453   4.732  16.165  0.00  0.00    +0.000 A 
BRANCH  16  23
ATOM     22  C   UNL     1       6.431   3.872  13.009  0.00  0.00    +0.000 C 
ATOM     23  O   UNL     1       6.789   4.995  13.802  0.00  0.00    +0.000 OA
ENDBRANCH  16  23
BRANCH  20  24
ATOM     24  O   UNL     1       7.909   4.582  18.574  0.00  0.00    +0.000 OA
ATOM     25  C   UNL     1       8.205   5.752  19.327  0.00  0.00    +0.000 C 
ENDBRANCH  20  24
ENDBRANCH  14  19
ENDBRANCH   1  14
TORSDOF 5
ENDMDL
MODEL 3
REMARK VINA RESULT:      -7.1      1.602      1.807
REMARK  Name = 
REMARK  9 active torsions:
REMARK  status: ('A' for Active; 'I' for Inactive)
REMARK    1  A    between atoms: C_1  and  O_2
REMARK    2  A    between atoms: O_2  and  C_3
REMARK    3  A    between atoms: C_6  and  N_7
REMARK    4  A    between atoms: N_7  and  C_8
REMARK    5  A    between atoms: C_10  and  C_11
REMARK    6  A    between atoms: C_13  and  C_14
REMARK    7  A    between atoms: C_15  and  C_16
REMARK    8  A    between atoms: C_19  and  O_20
REMARK    9  A    between atoms: O_20  and  C_21
REMARK                            x       y       z     vdW  Elec       q    Type
REMARK                         _______ _______ _______ _____ _____    ______ ____
ROOT
ATOM      1  C   UNL     1       3.477   4.426  17.957  0.00  0.00    +0.000 A 
ATOM      2  N   UNL     1       3.140   5.712  17.688  0.00  0.00    +0.000 NA
ATOM      3  C   UNL     1       2.573   6.472  18.646  0.00  0.00    +0.000 A 
ATOM      4  C   UNL     1       2.246   7.889  18.284  0.00  0.00    +0.000 C 
ATOM      5  C   UNL     1       2.290   5.980  19.907  0.00  0.00    +0.000 A 
ATOM      6  C   UNL     1       2.592   4.644  20.209  0.00  0.00    +0.000 A 
ATOM      7  C   UNL     1       2.235   4.130  21.576  0.00  0.00    +0.000 C 
ATOM      8  C   UNL     1       3.194   3.844  19.211  0.00  0.00    +0.000 A 
ENDROOT
BRANCH   8   9
ATOM      9  C   UNL     1       3.583   2.436  19.527  0.00  0.00    +0.000 C 
ATOM     10  N   UNL     1       4.802   2.227  20.112  0.00  0.00    +0.000 N 
ATOM     11  O   UNL     1       2.861   1.479  19.283  0.00  0.00    +0.000 OA
ATOM     12  H   UNL     1       5.507   2.956  20.146  0.00  0.00    +0.000 HD
ATOM     13  H   UNL     1       5.096   1.265  20.220  0.00  0.00    +0.000 HD
ENDBRANCH   8   9
BRANCH   1  14
ATOM     14  N   UNL     1       4.036   3.670  16.889  0.00  0.00    +0.000 N 
ATOM     15  H   UNL     1       4.203   2.717  17.209  0.00  0.00    +0.000 HD
BRANCH  14  19
ATOM     16  C   UNL     1       7.395   5.137  14.749  0.00  0.00    +0.000 A 
ATOM     17  C   UNL     1       6.240   4.752  14.077  0.00  0.00    +0.000 A 
ATOM     18  C   UNL     1       5.157   4.224  14.778  0.00  0.00    +0.000 A 
ATOM     19  C   UNL     1       5.211   4.059  16.170  0.00  0.00    +0.000 A 
ATOM     20  C   UNL     1       6.367   4.484  16.858  0.00  0.00    +0.000 A 
ATOM     21  C   UNL     1       7.465   4.987  16.137  0.00  0.00    +0.000 A 
BRANCH  16  23
ATOM     22  C   UNL     1       8.154   5.581  12.537  0.00  0.00    +0.000 C 
ATOM     23  O   UNL     1       8.368   5.654  13.939  0.00  0.00    +0.000 OA
ENDBRANCH  16  23
BRANCH  20  24
ATOM     24  O   UNL     1       6.348   4.341  18.227  0.00  0.00    +0.000 OA
ATOM     25  C   UNL     1       6.823   5.442  18.991  0.00  0.00    +0.000 C 
ENDBRANCH  20  24
ENDBRANCH  14  19
ENDBRANCH   1  14
TORSDOF 5
ENDMDL
MODEL 4
REMARK VINA RESULT:      -7.1      1.238      2.039
REMARK  Name = 
REMARK  9 active torsions:
REMARK  status: ('A' for Active; 'I' for Inactive)
REMARK    1  A    between atoms: C_1  and  O_2
REMARK    2  A    between atoms: O_2  and  C_3
REMARK    3  A    between atoms: C_6  and  N_7
REMARK    4  A    between atoms: N_7  and  C_8
REMARK    5  A    between atoms: C_10  and  C_11
REMARK    6  A    between atoms: C_13  and  C_14
REMARK    7  A    between atoms: C_15  and  C_16
REMARK    8  A    between atoms: C_19  and  O_20
REMARK    9  A    between atoms: O_20  and  C_21
REMARK                            x       y       z     vdW  Elec       q    Type
REMARK                         _______ _______ _______ _____ _____    ______ ____
ROOT
ATOM      1  C   UNL     1       4.526   4.426  19.493  0.00  0.00    +0.000 A 
ATOM      2  N   UNL     1       3.958   5.654  19.393  0.00  0.00    +0.000 NA
ATOM      3  C   UNL     1       2.766   5.892  19.975  0.00  0.00    +0.000 A 
ATOM      4  C   UNL     1       2.208   7.276  19.840  0.00  0.00    +0.000 C 
ATOM      5  C   UNL     1       2.070   4.913  20.660  0.00  0.00    +0.000 A 
ATOM      6  C   UNL     1       2.610   3.622  20.753  0.00  0.00    +0.000 A 
ATOM      7  C   UNL     1       1.810   2.570  21.471  0.00  0.00    +0.000 C 
ATOM      8  C   UNL     1       3.864   3.367  20.151  0.00  0.00    +0.000 A 
ENDROOT
BRANCH   8   9
ATOM      9  C   UNL     1       4.491   2.018  20.289  0.00  0.00    +0.000 C 
ATOM     10  N   UNL     1       4.366   1.146  19.242  0.00  0.00    +0.000 N 
ATOM     11  O   UNL     1       5.101   1.671  21.291  0.00  0.00    +0.000 OA
ATOM     12  H   UNL     1       3.707   1.311  18.488  0.00  0.00    +0.000 HD
ATOM     13  H   UNL     1       4.700   0.202  19.393  0.00  0.00    +0.000 HD
ENDBRANCH   8   9
BRANCH   1  14
ATOM     14  N   UNL     1       5.765   4.234  18.823  0.00  0.00    +0.000 N 
ATOM     15  H   UNL     1       6.479   4.806  19.275  0.00  0.00    +0.000 HD
BRANCH  14  19
ATOM     16  C   UNL     1       6.517   4.514  14.655  0.00  0.00    +0.000 A 
ATOM     17  C   UNL     1       7.354   5.142  15.570  0.00  0.00    +0.000 A 
ATOM     18  C   UNL     1       7.077   5.090  16.935  0.00  0.00    +0.000 A 
ATOM     19  C   UNL     1       5.945   4.415  17.415  0.00  0.00    +0.000 A 
ATOM     20  C   UNL     1       5.114   3.745  16.492  0.00  0.00    +0.000 A 
ATOM     21  C   UNL     1       5.389   3.829  15.115  0.00  0.00    +0.000 A 
BRANCH  16  23
ATOM     22  C   UNL     1       6.468   3.642  12.440  0.00  0.00    +0.000 C 
ATOM     23  O   UNL     1       6.921   4.631  13.354  0.00  0.00    +0.000 OA
ENDBRANCH  16  23
BRANCH  20  24
ATOM     24  O   UNL     1       4.044   3.060  17.022  0.00  0.00    +0.000 OA
ATOM     25  C   UNL     1       2.750   3.579  16.741  0.00  0.00    +0.000 C 
ENDBRANCH  20  24
ENDBRANCH  14  19
ENDBRANCH   1  14
TORSDOF 5
ENDMDL
MODEL 5
REMARK VINA RESULT:      -7.1      1.166      1.200
REMARK  Name = 
REMARK  9 active torsions:
REMARK  status: ('A' for Active; 'I' for Inactive)
REMARK    1  A    between atoms: C_1  and  O_2
REMARK    2  A    between atoms: O_2  and  C_3
REMARK    3  A    between atoms: C_6  and  N_7
REMARK    4  A    between atoms: N_7  and  C_8
REMARK    5  A    between atoms: C_10  and  C_11
REMARK    6  A    between atoms: C_13  and  C_14
REMARK    7  A    between atoms: C_15  and  C_16
REMARK    8  A    between atoms: C_19  and  O_20
REMARK    9  A    between atoms: O_20  and  C_21
REMARK                            x       y       z     vdW  Elec       q    Type
REMARK                         _______ _______ _______ _____ _____    ______ ____
ROOT
ATOM      1  C   UNL     1       4.299   4.650  18.430  0.00  0.00    +0.000 A 
ATOM      2  N   UNL     1       4.099   5.938  18.054  0.00  0.00    +0.000 NA
ATOM      3  C   UNL     1       2.948   6.560  18.375  0.00  0.00    +0.000 A 
ATOM      4  C   UNL     1       2.804   7.988  17.943  0.00  0.00    +0.000 C 
ATOM      5  C   UNL     1       1.931   5.924  19.062  0.00  0.00    +0.000 A 
ATOM      6  C   UNL     1       2.088   4.581  19.436  0.00  0.00    +0.000 A 
ATOM      7  C   UNL     1       0.948   3.906  20.147  0.00  0.00    +0.000 C 
ATOM      8  C   UNL     1       3.296   3.924  19.109  0.00  0.00    +0.000 A 
ENDROOT
BRANCH   8   9
ATOM      9  C   UNL     1       3.515   2.513  19.551  0.00  0.00    +0.000 C 
ATOM     10  N   UNL     1       3.856   2.301  20.859  0.00  0.00    +0.000 N 
ATOM     11  O   UNL     1       3.401   1.558  18.796  0.00  0.00    +0.000 OA
ATOM     12  H   UNL     1       4.156   3.060  21.461  0.00  0.00    +0.000 HD
ATOM     13  H   UNL     1       4.106   1.354  21.116  0.00  0.00    +0.000 HD
ENDBRANCH   8   9
BRANCH   1  14
ATOM     14  N   UNL     1       5.519   4.043  18.025  0.00  0.00    +0.000 N 
ATOM     15  H   UNL     1       6.258   4.321  18.671  0.00  0.00    +0.000 HD
BRANCH  14  19
ATOM     16  C   UNL     1       6.937   4.666  14.073  0.00  0.00    +0.000 A 
ATOM     17  C   UNL     1       5.841   3.845  14.312  0.00  0.00    +0.000 A 
ATOM     18  C   UNL     1       5.408   3.603  15.614  0.00  0.00    +0.000 A 
ATOM     19  C   UNL     1       6.073   4.169  16.712  0.00  0.00    +0.000 A 
ATOM     20  C   UNL     1       7.163   5.033  16.471  0.00  0.00    +0.000 A 
ATOM     21  C   UNL     1       7.608   5.246  15.154  0.00  0.00    +0.000 A 
BRANCH  16  23
ATOM     22  C   UNL     1       6.948   3.747  11.878  0.00  0.00    +0.000 C 
ATOM     23  O   UNL     1       7.238   4.830  12.750  0.00  0.00    +0.000 OA
ENDBRANCH  16  23
BRANCH  20  24
ATOM     24  O   UNL     1       7.748   5.598  17.581  0.00  0.00    +0.000 OA
ATOM     25  C   UNL     1       7.616   7.006  17.727  0.00  0.00    +0.000 C 
ENDBRANCH  20  24
ENDBRANCH  14  19
ENDBRANCH   1  14
TORSDOF 5
ENDMDL
MODEL 6
REMARK VINA RESULT:      -7.0      1.577      2.863
REMARK  Name = 
REMARK  9 active torsions:
REMARK  status: ('A' for Active; 'I' for Inactive)
REMARK    1  A    between atoms: C_1  and  O_2
REMARK    2  A    between atoms: O_2  and  C_3
REMARK    3  A    between atoms: C_6  and  N_7
REMARK    4  A    between atoms: N_7  and  C_8
REMARK    5  A    between atoms: C_10  and  C_11
REMARK    6  A    between atoms: C_13  and  C_14
REMARK    7  A    between atoms: C_15  and  C_16
REMARK    8  A    between atoms: C_19  and  O_20
REMARK    9  A    between atoms: O_20  and  C_21
REMARK                            x       y       z     vdW  Elec       q    Type
REMARK                         _______ _______ _______ _____ _____    ______ ____
ROOT
ATOM      1  C   UNL     1       4.551   4.317  19.164  0.00  0.00    +0.000 A 
ATOM      2  N   UNL     1       5.122   3.175  19.623  0.00  0.00    +0.000 NA
ATOM      3  C   UNL     1       4.403   2.321  20.378  0.00  0.00    +0.000 A 
ATOM      4  C   UNL     1       5.092   1.071  20.833  0.00  0.00    +0.000 C 
ATOM      5  C   UNL     1       3.092   2.576  20.736  0.00  0.00    +0.000 A 
ATOM      6  C   UNL     1       2.481   3.765  20.309  0.00  0.00    +0.000 A 
ATOM      7  C   UNL     1       1.067   4.030  20.749  0.00  0.00    +0.000 C 
ATOM      8  C   UNL     1       3.226   4.661  19.510  0.00  0.00    +0.000 A 
ENDROOT
BRANCH   8   9
ATOM      9  C   UNL     1       2.579   5.903  18.991  0.00  0.00    +0.000 C 
ATOM     10  N   UNL     1       2.459   6.965  19.845  0.00  0.00    +0.000 N 
ATOM     11  O   UNL     1       2.160   6.002  17.846  0.00  0.00    +0.000 OA
ATOM     12  H   UNL     1       2.604   6.864  20.844  0.00  0.00    +0.000 HD
ATOM     13  H   UNL     1       1.924   7.758  19.513  0.00  0.00    +0.000 HD
ENDBRANCH   8   9
BRANCH   1  14
ATOM     14  N   UNL     1       5.378   5.190  18.405  0.00  0.00    +0.000 N 
ATOM     15  H   UNL     1       4.929   6.103  18.345  0.00  0.00    +0.000 HD
BRANCH  14  19
ATOM     16  C   UNL     1       6.589   4.566  14.385  0.00  0.00    +0.000 A 
ATOM     17  C   UNL     1       5.404   4.016  14.861  0.00  0.00    +0.000 A 
ATOM     18  C   UNL     1       5.033   4.181  16.195  0.00  0.00    +0.000 A 
ATOM     19  C   UNL     1       5.850   4.892  17.087  0.00  0.00    +0.000 A 
ATOM     20  C   UNL     1       7.035   5.482  16.597  0.00  0.00    +0.000 A 
ATOM     21  C   UNL     1       7.412   5.284  15.257  0.00  0.00    +0.000 A 
BRANCH  16  23
ATOM     22  C   UNL     1       6.000   3.374  12.410  0.00  0.00    +0.000 C 
ATOM     23  O   UNL     1       6.815   4.342  13.055  0.00  0.00    +0.000 OA
ENDBRANCH  16  23
BRANCH  20  24
ATOM     24  O   UNL     1       7.773   6.207  17.504  0.00  0.00    +0.000 OA
ATOM     25  C   UNL     1       7.636   7.622  17.456  0.00  0.00    +0.000 C 
ENDBRANCH  20  24
ENDBRANCH  14  19
ENDBRANCH   1  14
TORSDOF 5
ENDMDL
MODEL 7
REMARK VINA RESULT:      -6.6      3.687      6.534
REMARK  Name = 
REMARK  9 active torsions:
REMARK  status: ('A' for Active; 'I' for Inactive)
REMARK    1  A    between atoms: C_1  and  O_2
REMARK    2  A    between atoms: O_2  and  C_3
REMARK    3  A    between atoms: C_6  and  N_7
REMARK    4  A    between atoms: N_7  and  C_8
REMARK    5  A    between atoms: C_10  and  C_11
REMARK    6  A    between atoms: C_13  and  C_14
REMARK    7  A    between atoms: C_15  and  C_16
REMARK    8  A    between atoms: C_19  and  O_20
REMARK    9  A    between atoms: O_20  and  C_21
REMARK                            x       y       z     vdW  Elec       q    Type
REMARK                         _______ _______ _______ _____ _____    ______ ____
ROOT
ATOM      1  C   UNL     1       2.982   5.933  19.188  0.00  0.00    +0.000 A 
ATOM      2  N   UNL     1       3.766   6.353  18.164  0.00  0.00    +0.000 NA
ATOM      3  C   UNL     1       4.258   5.458  17.285  0.00  0.00    +0.000 A 
ATOM      4  C   UNL     1       5.100   5.995  16.167  0.00  0.00    +0.000 C 
ATOM      5  C   UNL     1       4.016   4.101  17.398  0.00  0.00    +0.000 A 
ATOM      6  C   UNL     1       3.239   3.628  18.465  0.00  0.00    +0.000 A 
ATOM      7  C   UNL     1       3.027   2.144  18.583  0.00  0.00    +0.000 C 
ATOM      8  C   UNL     1       2.713   4.562  19.387  0.00  0.00    +0.000 A 
ENDROOT
BRANCH   8   9
ATOM      9  C   UNL     1       1.830   4.090  20.497  0.00  0.00    +0.000 C 
ATOM     10  N   UNL     1       0.539   3.760  20.188  0.00  0.00    +0.000 N 
ATOM     11  O   UNL     1       2.217   3.991  21.653  0.00  0.00    +0.000 OA
ATOM     12  H   UNL     1       0.123   4.016  19.298  0.00  0.00    +0.000 HD
ATOM     13  H   UNL     1      -0.075   3.548  20.964  0.00  0.00    +0.000 HD
ENDBRANCH   8   9
BRANCH   1  14
ATOM     14  N   UNL     1       2.529   6.926  20.100  0.00  0.00    +0.000 N 
ATOM     15  H   UNL     1       1.929   6.486  20.798  0.00  0.00    +0.000 HD
BRANCH  14  19
ATOM     16  C   UNL     1       0.272  10.292  18.835  0.00  0.00    +0.000 A 
ATOM     17  C   UNL     1       0.992   9.535  17.916  0.00  0.00    +0.000 A 
ATOM     18  C   UNL     1       1.771   8.460  18.341  0.00  0.00    +0.000 A 
ATOM     19  C   UNL     1       1.858   8.126  19.700  0.00  0.00    +0.000 A 
ATOM     20  C   UNL     1       1.099   8.869  20.631  0.00  0.00    +0.000 A 
ATOM     21  C   UNL     1       0.340   9.969  20.193  0.00  0.00    +0.000 A 
BRANCH  16  23
ATOM     22  C   UNL     1      -1.858  11.086  18.130  0.00  0.00    +0.000 C 
ATOM     23  O   UNL     1      -0.462  11.301  18.276  0.00  0.00    +0.000 OA
ENDBRANCH  16  23
BRANCH  20  24
ATOM     24  O   UNL     1       1.185   8.468  21.944  0.00  0.00    +0.000 OA
ATOM     25  C   UNL     1       0.534   9.288  22.907  0.00  0.00    +0.000 C 
ENDBRANCH  20  24
ENDBRANCH  14  19
ENDBRANCH   1  14
TORSDOF 5
ENDMDL
MODEL 8
REMARK VINA RESULT:      -6.6      3.450      6.597
REMARK  Name = 
REMARK  9 active torsions:
REMARK  status: ('A' for Active; 'I' for Inactive)
REMARK    1  A    between atoms: C_1  and  O_2
REMARK    2  A    between atoms: O_2  and  C_3
REMARK    3  A    between atoms: C_6  and  N_7
REMARK    4  A    between atoms: N_7  and  C_8
REMARK    5  A    between atoms: C_10  and  C_11
REMARK    6  A    between atoms: C_13  and  C_14
REMARK    7  A    between atoms: C_15  and  C_16
REMARK    8  A    between atoms: C_19  and  O_20
REMARK    9  A    between atoms: O_20  and  C_21
REMARK                            x       y       z     vdW  Elec       q    Type
REMARK                         _______ _______ _______ _____ _____    ______ ____
ROOT
ATOM      1  C   UNL     1       2.878   5.525  19.068  0.00  0.00    +0.000 A 
ATOM      2  N   UNL     1       1.817   4.696  19.228  0.00  0.00    +0.000 NA
ATOM      3  C   UNL     1       1.751   3.547  18.527  0.00  0.00    +0.000 A 
ATOM      4  C   UNL     1       0.559   2.670  18.769  0.00  0.00    +0.000 C 
ATOM      5  C   UNL     1       2.723   3.182  17.615  0.00  0.00    +0.000 A 
ATOM      6  C   UNL     1       3.817   4.033  17.397  0.00  0.00    +0.000 A 
ATOM      7  C   UNL     1       4.836   3.626  16.369  0.00  0.00    +0.000 C 
ATOM      8  C   UNL     1       3.896   5.236  18.134  0.00  0.00    +0.000 A 
ENDROOT
BRANCH   8   9
ATOM      9  C   UNL     1       5.082   6.129  17.968  0.00  0.00    +0.000 C 
ATOM     10  N   UNL     1       6.219   5.815  18.661  0.00  0.00    +0.000 N 
ATOM     11  O   UNL     1       5.071   7.116  17.245  0.00  0.00    +0.000 OA
ATOM     12  H   UNL     1       6.212   5.137  19.416  0.00  0.00    +0.000 HD
ATOM     13  H   UNL     1       6.976   6.487  18.623  0.00  0.00    +0.000 HD
ENDBRANCH   8   9
BRANCH   1  14
ATOM     14  N   UNL     1       2.864   6.738  19.810  0.00  0.00    +0.000 N 
ATOM     15  H   UNL     1       2.599   6.535  20.774  0.00  0.00    +0.000 HD
BRANCH  14  19
ATOM     16  C   UNL     1       0.382   9.963  18.603  0.00  0.00    +0.000 A 
ATOM     17  C   UNL     1       1.130   9.256  17.668  0.00  0.00    +0.000 A 
ATOM     18  C   UNL     1       1.981   8.229  18.073  0.00  0.00    +0.000 A 
ATOM     19  C   UNL     1       2.114   7.896  19.429  0.00  0.00    +0.000 A 
ATOM     20  C   UNL     1       1.329   8.588  20.376  0.00  0.00    +0.000 A 
ATOM     21  C   UNL     1       0.495   9.640  19.958  0.00  0.00    +0.000 A 
BRANCH  16  23
ATOM     22  C   UNL     1      -1.731  11.058  18.599  0.00  0.00    +0.000 C 
ATOM     23  O   UNL     1      -0.423  10.927  18.063  0.00  0.00    +0.000 OA
ENDBRANCH  16  23
BRANCH  20  24
ATOM     24  O   UNL     1       1.464   8.188  21.686  0.00  0.00    +0.000 OA
ATOM     25  C   UNL     1       1.080   9.127  22.684  0.00  0.00    +0.000 C 
ENDBRANCH  20  24
ENDBRANCH  14  19
ENDBRANCH   1  14
TORSDOF 5
ENDMDL
MODEL 9
REMARK VINA RESULT:      -6.5      1.993      3.952
REMARK  Name = 
REMARK  9 active torsions:
REMARK  status: ('A' for Active; 'I' for Inactive)
REMARK    1  A    between atoms: C_1  and  O_2
REMARK    2  A    between atoms: O_2  and  C_3
REMARK    3  A    between atoms: C_6  and  N_7
REMARK    4  A    between atoms: N_7  and  C_8
REMARK    5  A    between atoms: C_10  and  C_11
REMARK    6  A    between atoms: C_13  and  C_14
REMARK    7  A    between atoms: C_15  and  C_16
REMARK    8  A    between atoms: C_19  and  O_20
REMARK    9  A    between atoms: O_20  and  C_21
REMARK                            x       y       z     vdW  Elec       q    Type
REMARK                         _______ _______ _______ _____ _____    ______ ____
ROOT
ATOM      1  C   UNL     1       4.061   2.930  18.689  0.00  0.00    +0.000 A 
ATOM      2  N   UNL     1       4.799   2.191  19.555  0.00  0.00    +0.000 NA
ATOM      3  C   UNL     1       4.312   1.905  20.779  0.00  0.00    +0.000 A 
ATOM      4  C   UNL     1       5.174   1.068  21.675  0.00  0.00    +0.000 C 
ATOM      5  C   UNL     1       3.080   2.363  21.208  0.00  0.00    +0.000 A 
ATOM      6  C   UNL     1       2.306   3.159  20.353  0.00  0.00    +0.000 A 
ATOM      7  C   UNL     1       0.988   3.674  20.865  0.00  0.00    +0.000 C 
ATOM      8  C   UNL     1       2.807   3.457  19.065  0.00  0.00    +0.000 A 
ENDROOT
BRANCH   8   9
ATOM      9  C   UNL     1       1.974   4.250  18.112  0.00  0.00    +0.000 C 
ATOM     10  N   UNL     1       2.093   5.613  18.142  0.00  0.00    +0.000 N 
ATOM     11  O   UNL     1       1.201   3.731  17.318  0.00  0.00    +0.000 OA
ATOM     12  H   UNL     1       2.559   6.090  18.907  0.00  0.00    +0.000 HD
ATOM     13  H   UNL     1       1.445   6.139  17.568  0.00  0.00    +0.000 HD
ENDBRANCH   8   9
BRANCH   1  14
ATOM     14  N   UNL     1       4.652   3.226  17.430  0.00  0.00    +0.000 N 
ATOM     15  H   UNL     1       5.211   2.428  17.130  0.00  0.00    +0.000 HD
BRANCH  14  19
ATOM     16  C   UNL     1       7.273   6.515  16.858  0.00  0.00    +0.000 A 
ATOM     17  C   UNL     1       6.521   6.402  18.022  0.00  0.00    +0.000 A 
ATOM     18  C   UNL     1       5.624   5.348  18.186  0.00  0.00    +0.000 A 
ATOM     19  C   UNL     1       5.451   4.386  17.179  0.00  0.00    +0.000 A 
ATOM     20  C   UNL     1       6.240   4.477  16.012  0.00  0.00    +0.000 A 
ATOM     21  C   UNL     1       7.119   5.562  15.846  0.00  0.00    +0.000 A 
BRANCH  16  23
ATOM     22  C   UNL     1       7.872   8.631  17.770  0.00  0.00    +0.000 C 
ATOM     23  O   UNL     1       8.123   7.586  16.841  0.00  0.00    +0.000 OA
ENDBRANCH  16  23
BRANCH  20  24
ATOM     24  O   UNL     1       6.062   3.482  15.079  0.00  0.00    +0.000 OA
ATOM     25  C   UNL     1       6.173   3.860  13.712  0.00  0.00    +0.000 C 
ENDBRANCH  20  24
ENDBRANCH  14  19
ENDBRANCH   1  14
TORSDOF 5
ENDMDL
