MODEL 1
REMARK VINA RESULT:      -6.8      0.000      0.000
REMARK  Name = 
REMARK  13 active torsions:
REMARK  status: ('A' for Active; 'I' for Inactive)
REMARK    1  A    between atoms: C_1  and  N_2
REMARK    2  A    between atoms: N_2  and  C_3
REMARK    3  A    between atoms: N_2  and  C_4
REMARK    4  A    between atoms: C_4  and  C_5
REMARK    5  A    between atoms: C_5  and  C_6
REMARK    6  A    between atoms: C_6  and  N_7
REMARK    7  A    between atoms: C_12  and  N_13
REMARK    8  A    between atoms: N_13  and  C_14
REMARK    9  A    between atoms: C_14  and  C_15
REMARK   10  A    between atoms: C_15  and  C_16
REMARK   11  A    between atoms: C_16  and  N_17
REMARK   12  A    between atoms: C_24  and  O_25
REMARK   13  A    between atoms: C_28  and  O_29
REMARK                            x       y       z     vdW  Elec       q    Type
REMARK                         _______ _______ _______ _____ _____    ______ ____
ROOT
ATOM      1  N   UNL     1       2.918   7.662  17.954  0.00  0.00    +0.000 N 
ATOM      2  N   UNL     1       2.211   6.849  18.778  0.00  0.00    +0.000 NA
ATOM      3  C   UNL     1       2.690   5.630  18.523  0.00  0.00    +0.000 A 
ATOM      4  C   UNL     1       3.666   5.675  17.518  0.00  0.00    +0.000 A 
ATOM      5  C   UNL     1       4.414   4.650  16.942  0.00  0.00    +0.000 A 
ATOM      6  C   UNL     1       5.373   4.997  15.962  0.00  0.00    +0.000 A 
ATOM      7  C   UNL     1       5.479   6.359  15.592  0.00  0.00    +0.000 A 
ATOM      8  C   UNL     1       4.726   7.387  16.183  0.00  0.00    +0.000 A 
ATOM      9  C   UNL     1       3.813   6.999  17.156  0.00  0.00    +0.000 A 
ATOM     10  C   UNL     1       4.075   3.308  17.517  0.00  0.00    +0.000 C 
ATOM     11  O   UNL     1       4.608   2.273  17.121  0.00  0.00    +0.000 OA
ATOM     12  C   UNL     1       3.023   3.208  18.627  0.00  0.00    +0.000 A 
ATOM     13  C   UNL     1       2.716   1.945  19.168  0.00  0.00    +0.000 A 
ATOM     14  C   UNL     1       1.763   1.809  20.176  0.00  0.00    +0.000 A 
ATOM     15  C   UNL     1       1.099   2.932  20.670  0.00  0.00    +0.000 A 
ATOM     16  C   UNL     1       1.385   4.190  20.151  0.00  0.00    +0.000 A 
ATOM     17  C   UNL     1       2.338   4.352  19.127  0.00  0.00    +0.000 A 
ENDROOT
BRANCH   6  18
ATOM     18  N   UNL     1       6.167   4.025  15.324  0.00  0.00    +0.000 N 
ATOM     19  H   UNL     1       5.765   3.099  15.480  0.00  0.00    +0.000 HD
BRANCH  18  20
ATOM     20  C   UNL     1       6.577   4.265  13.939  0.00  0.00    +0.000 C 
BRANCH  20  21
ATOM     21  C   UNL     1       5.670   3.552  12.940  0.00  0.00    +0.000 C 
BRANCH  21  22
ATOM     22  C   UNL     1       6.465   2.859  11.839  0.00  0.00    +0.000 C 
BRANCH  22  23
ATOM     23  N   UNL     1       5.938   1.526  11.573  0.00  0.00    +0.000 NA
ATOM     24  H   UNL     1       5.497   1.497  10.655  0.00  0.00    +0.000 HD
ATOM     25  H   UNL     1       5.209   1.312  12.253  0.00  0.00    +0.000 HD
ENDBRANCH  22  23
ENDBRANCH  21  22
ENDBRANCH  20  21
ENDBRANCH  18  20
ENDBRANCH   6  18
BRANCH  13  26
ATOM     26  O   UNL     1       3.311   0.780  18.760  0.00  0.00    +0.000 OA
ATOM     27  H   UNL     1       3.589   0.289  19.574  0.00  0.00    +0.000 HD
ENDBRANCH  13  26
BRANCH  16  28
ATOM     28  O   UNL     1       0.716   5.269  20.670  0.00  0.00    +0.000 OA
ATOM     29  H   UNL     1      -0.233   5.195  20.482  0.00  0.00    +0.000 HD
ENDBRANCH  16  28
BRANCH   1  30
ATOM     30  C   UNL     1       2.694   9.092  18.021  0.00  0.00    +0.000 C 
BRANCH  30  31
ATOM     31  C   UNL     1       1.211   9.451  18.058  0.00  0.00    +0.000 C 
BRANCH  31  32
ATOM     32  C   UNL     1       0.770  10.069  19.394  0.00  0.00    +0.000 C 
BRANCH  32  34
ATOM     33  C   UNL     1      -0.777  11.908  19.771  0.00  0.00    +0.000 C 
ATOM     34  N   UNL     1      -0.642  10.497  19.402  0.00  0.00    +0.000 NA
ATOM     35  C   UNL     1      -1.239  10.280  18.078  0.00  0.00    +0.000 C 
ENDBRANCH  32  34
ENDBRANCH  31  32
ENDBRANCH  30  31
ENDBRANCH   1  30
TORSDOF 11
ENDMDL
MODEL 2
REMARK VINA RESULT:      -6.8      2.475      5.048
REMARK  Name = 
REMARK  13 active torsions:
REMARK  status: ('A' for Active; 'I' for Inactive)
REMARK    1  A    between atoms: C_1  and  N_2
REMARK    2  A    between atoms: N_2  and  C_3
REMARK    3  A    between atoms: N_2  and  C_4
REMARK    4  A    between atoms: C_4  and  C_5
REMARK    5  A    between atoms: C_5  and  C_6
REMARK    6  A    between atoms: C_6  and  N_7
REMARK    7  A    between atoms: C_12  and  N_13
REMARK    8  A    between atoms: N_13  and  C_14
REMARK    9  A    between atoms: C_14  and  C_15
REMARK   10  A    between atoms: C_15  and  C_16
REMARK   11  A    between atoms: C_16  and  N_17
REMARK   12  A    between atoms: C_24  and  O_25
REMARK   13  A    between atoms: C_28  and  O_29
REMARK                            x       y       z     vdW  Elec       q    Type
REMARK                         _______ _______ _______ _____ _____    ______ ____
ROOT
ATOM      1  N   UNL     1       2.493   8.528  18.273  0.00  0.00    +0.000 N 
ATOM      2  N   UNL     1       3.291   8.172  17.237  0.00  0.00    +0.000 NA
ATOM      3  C   UNL     1       3.600   6.897  17.485  0.00  0.00    +0.000 A 
ATOM      4  C   UNL     1       3.028   6.470  18.692  0.00  0.00    +0.000 A 
ATOM      5  C   UNL     1       3.095   5.234  19.332  0.00  0.00    +0.000 A 
ATOM      6  C   UNL     1       2.374   5.069  20.537  0.00  0.00    +0.000 A 
ATOM      7  C   UNL     1       1.667   6.187  21.043  0.00  0.00    +0.000 A 
ATOM      8  C   UNL     1       1.598   7.427  20.387  0.00  0.00    +0.000 A 
ATOM      9  C   UNL     1       2.306   7.532  19.196  0.00  0.00    +0.000 A 
ATOM     10  C   UNL     1       3.931   4.247  18.574  0.00  0.00    +0.000 C 
ATOM     11  O   UNL     1       4.135   3.108  18.990  0.00  0.00    +0.000 OA
ATOM     12  C   UNL     1       4.569   4.664  17.244  0.00  0.00    +0.000 A 
ATOM     13  C   UNL     1       5.345   3.728  16.534  0.00  0.00    +0.000 A 
ATOM     14  C   UNL     1       5.945   4.067  15.323  0.00  0.00    +0.000 A 
ATOM     15  C   UNL     1       5.778   5.345  14.790  0.00  0.00    +0.000 A 
ATOM     16  C   UNL     1       5.016   6.287  15.473  0.00  0.00    +0.000 A 
ATOM     17  C   UNL     1       4.406   5.971  16.703  0.00  0.00    +0.000 A 
ENDROOT
BRANCH   6  18
ATOM     18  N   UNL     1       2.391   3.857  21.253  0.00  0.00    +0.000 N 
ATOM     19  H   UNL     1       2.628   4.041  22.230  0.00  0.00    +0.000 HD
BRANCH  18  20
ATOM     20  C   UNL     1       1.267   2.935  21.082  0.00  0.00    +0.000 C 
BRANCH  20  21
ATOM     21  C   UNL     1       0.445   3.257  19.836  0.00  0.00    +0.000 C 
BRANCH  21  22
ATOM     22  C   UNL     1       0.750   2.303  18.687  0.00  0.00    +0.000 C 
BRANCH  22  23
ATOM     23  N   UNL     1       1.871   1.430  19.016  0.00  0.00    +0.000 NA
ATOM     24  H   UNL     1       1.833   1.159  19.996  0.00  0.00    +0.000 HD
ATOM     25  H   UNL     1       2.743   1.943  18.889  0.00  0.00    +0.000 HD
ENDBRANCH  22  23
ENDBRANCH  21  22
ENDBRANCH  20  21
ENDBRANCH  18  20
ENDBRANCH   6  18
BRANCH  13  26
ATOM     26  O   UNL     1       5.569   2.447  16.963  0.00  0.00    +0.000 OA
ATOM     27  H   UNL     1       6.006   1.959  16.221  0.00  0.00    +0.000 HD
ENDBRANCH  13  26
BRANCH  16  28
ATOM     28  O   UNL     1       4.869   7.530  14.911  0.00  0.00    +0.000 OA
ATOM     29  H   UNL     1       4.489   7.450  14.022  0.00  0.00    +0.000 HD
ENDBRANCH  16  28
BRANCH   1  30
ATOM     30  C   UNL     1       1.912   9.855  18.285  0.00  0.00    +0.000 C 
BRANCH  30  31
ATOM     31  C   UNL     1       0.400   9.835  18.070  0.00  0.00    +0.000 C 
BRANCH  31  32
ATOM     32  C   UNL     1      -0.371  10.666  19.106  0.00  0.00    +0.000 C 
BRANCH  32  34
ATOM     33  C   UNL     1       0.488  12.573  20.347  0.00  0.00    +0.000 C 
ATOM     34  N   UNL     1       0.465  11.113  20.236  0.00  0.00    +0.000 NA
ATOM     35  C   UNL     1      -0.036  10.536  21.489  0.00  0.00    +0.000 C 
ENDBRANCH  32  34
ENDBRANCH  31  32
ENDBRANCH  30  31
ENDBRANCH   1  30
TORSDOF 11
ENDMDL
MODEL 3
REMARK VINA RESULT:      -6.8      2.485      5.039
REMARK  Name = 
REMARK  13 active torsions:
REMARK  status: ('A' for Active; 'I' for Inactive)
REMARK    1  A    between atoms: C_1  and  N_2
REMARK    2  A    between atoms: N_2  and  C_3
REMARK    3  A    between atoms: N_2  and  C_4
REMARK    4  A    between atoms: C_4  and  C_5
REMARK    5  A    between atoms: C_5  and  C_6
REMARK    6  A    between atoms: C_6  and  N_7
REMARK    7  A    between atoms: C_12  and  N_13
REMARK    8  A    between atoms: N_13  and  C_14
REMARK    9  A    between atoms: C_14  and  C_15
REMARK   10  A    between atoms: C_15  and  C_16
REMARK   11  A    between atoms: C_16  and  N_17
REMARK   12  A    between atoms: C_24  and  O_25
REMARK   13  A    between atoms: C_28  and  O_29
REMARK                            x       y       z     vdW  Elec       q    Type
REMARK                         _______ _______ _______ _____ _____    ______ ____
ROOT
ATOM      1  N   UNL     1       2.487   8.563  18.258  0.00  0.00    +0.000 N 
ATOM      2  N   UNL     1       3.289   8.192  17.229  0.00  0.00    +0.000 NA
ATOM      3  C   UNL     1       3.591   6.919  17.493  0.00  0.00    +0.000 A 
ATOM      4  C   UNL     1       3.011   6.507  18.701  0.00  0.00    +0.000 A 
ATOM      5  C   UNL     1       3.068   5.278  19.355  0.00  0.00    +0.000 A 
ATOM      6  C   UNL     1       2.340   5.130  20.558  0.00  0.00    +0.000 A 
ATOM      7  C   UNL     1       1.636   6.256  21.049  0.00  0.00    +0.000 A 
ATOM      8  C   UNL     1       1.577   7.490  20.379  0.00  0.00    +0.000 A 
ATOM      9  C   UNL     1       2.291   7.579  19.190  0.00  0.00    +0.000 A 
ATOM     10  C   UNL     1       3.903   4.279  18.613  0.00  0.00    +0.000 C 
ATOM     11  O   UNL     1       4.100   3.143  19.041  0.00  0.00    +0.000 OA
ATOM     12  C   UNL     1       4.549   4.678  17.281  0.00  0.00    +0.000 A 
ATOM     13  C   UNL     1       5.325   3.731  16.585  0.00  0.00    +0.000 A 
ATOM     14  C   UNL     1       5.932   4.053  15.373  0.00  0.00    +0.000 A 
ATOM     15  C   UNL     1       5.774   5.327  14.826  0.00  0.00    +0.000 A 
ATOM     16  C   UNL     1       5.013   6.279  15.495  0.00  0.00    +0.000 A 
ATOM     17  C   UNL     1       4.396   5.980  16.724  0.00  0.00    +0.000 A 
ENDROOT
BRANCH   6  18
ATOM     18  N   UNL     1       2.348   3.926  21.287  0.00  0.00    +0.000 N 
ATOM     19  H   UNL     1       2.531   4.124  22.273  0.00  0.00    +0.000 HD
BRANCH  18  20
ATOM     20  C   UNL     1       1.254   2.977  21.070  0.00  0.00    +0.000 C 
BRANCH  20  21
ATOM     21  C   UNL     1       0.466   3.289  19.800  0.00  0.00    +0.000 C 
BRANCH  21  22
ATOM     22  C   UNL     1       0.698   2.247  18.712  0.00  0.00    +0.000 C 
BRANCH  22  23
ATOM     23  N   UNL     1       1.878   1.442  19.002  0.00  0.00    +0.000 NA
ATOM     24  H   UNL     1       2.723   1.946  18.739  0.00  0.00    +0.000 HD
ATOM     25  H   UNL     1       1.855   0.596  18.433  0.00  0.00    +0.000 HD
ENDBRANCH  22  23
ENDBRANCH  21  22
ENDBRANCH  20  21
ENDBRANCH  18  20
ENDBRANCH   6  18
BRANCH  13  26
ATOM     26  O   UNL     1       5.540   2.453  17.029  0.00  0.00    +0.000 OA
ATOM     27  H   UNL     1       5.392   2.452  18.008  0.00  0.00    +0.000 HD
ENDBRANCH  13  26
BRANCH  16  28
ATOM     28  O   UNL     1       4.875   7.517  14.919  0.00  0.00    +0.000 OA
ATOM     29  H   UNL     1       4.964   7.447  13.954  0.00  0.00    +0.000 HD
ENDBRANCH  16  28
BRANCH   1  30
ATOM     30  C   UNL     1       1.913   9.893  18.252  0.00  0.00    +0.000 C 
BRANCH  30  31
ATOM     31  C   UNL     1       0.403   9.878  18.023  0.00  0.00    +0.000 C 
BRANCH  31  32
ATOM     32  C   UNL     1      -0.369  10.761  19.015  0.00  0.00    +0.000 C 
BRANCH  32  34
ATOM     33  C   UNL     1      -2.505  11.926  19.029  0.00  0.00    +0.000 C 
ATOM     34  N   UNL     1      -1.211  11.779  18.358  0.00  0.00    +0.000 NA
ATOM     35  C   UNL     1      -0.518  13.073  18.348  0.00  0.00    +0.000 C 
ENDBRANCH  32  34
ENDBRANCH  31  32
ENDBRANCH  30  31
ENDBRANCH   1  30
TORSDOF 11
ENDMDL
MODEL 4
REMARK VINA RESULT:      -6.7      2.496      7.042
REMARK  Name = 
REMARK  13 active torsions:
REMARK  status: ('A' for Active; 'I' for Inactive)
REMARK    1  A    between atoms: C_1  and  N_2
REMARK    2  A    between atoms: N_2  and  C_3
REMARK    3  A    between atoms: N_2  and  C_4
REMARK    4  A    between atoms: C_4  and  C_5
REMARK    5  A    between atoms: C_5  and  C_6
REMARK    6  A    between atoms: C_6  and  N_7
REMARK    7  A    between atoms: C_12  and  N_13
REMARK    8  A    between atoms: N_13  and  C_14
REMARK    9  A    between atoms: C_14  and  C_15
REMARK   10  A    between atoms: C_15  and  C_16
REMARK   11  A    between atoms: C_16  and  N_17
REMARK   12  A    between atoms: C_24  and  O_25
REMARK   13  A    between atoms: C_28  and  O_29
REMARK                            x       y       z     vdW  Elec       q    Type
REMARK                         _______ _______ _______ _____ _____    ______ ____
ROOT
ATOM      1  N   UNL     1       4.461   6.785  16.882  0.00  0.00    +0.000 N 
ATOM      2  N   UNL     1       3.743   7.932  16.973  0.00  0.00    +0.000 NA
ATOM      3  C   UNL     1       3.001   7.766  18.070  0.00  0.00    +0.000 A 
ATOM      4  C   UNL     1       3.226   6.506  18.641  0.00  0.00    +0.000 A 
ATOM      5  C   UNL     1       2.668   5.918  19.775  0.00  0.00    +0.000 A 
ATOM      6  C   UNL     1       3.120   4.630  20.147  0.00  0.00    +0.000 A 
ATOM      7  C   UNL     1       4.077   3.999  19.316  0.00  0.00    +0.000 A 
ATOM      8  C   UNL     1       4.640   4.602  18.179  0.00  0.00    +0.000 A 
ATOM      9  C   UNL     1       4.179   5.875  17.867  0.00  0.00    +0.000 A 
ATOM     10  C   UNL     1       1.669   6.812  20.445  0.00  0.00    +0.000 C 
ATOM     11  O   UNL     1       1.046   6.462  21.446  0.00  0.00    +0.000 OA
ATOM     12  C   UNL     1       1.396   8.204  19.864  0.00  0.00    +0.000 A 
ATOM     13  C   UNL     1       0.462   9.042  20.504  0.00  0.00    +0.000 A 
ATOM     14  C   UNL     1       0.182  10.313  20.008  0.00  0.00    +0.000 A 
ATOM     15  C   UNL     1       0.832  10.779  18.865  0.00  0.00    +0.000 A 
ATOM     16  C   UNL     1       1.759   9.971  18.216  0.00  0.00    +0.000 A 
ATOM     17  C   UNL     1       2.052   8.679  18.693  0.00  0.00    +0.000 A 
ENDROOT
BRANCH   6  18
ATOM     18  N   UNL     1       2.606   3.960  21.273  0.00  0.00    +0.000 N 
ATOM     19  H   UNL     1       2.258   4.643  21.948  0.00  0.00    +0.000 HD
BRANCH  18  20
ATOM     20  C   UNL     1       1.699   2.831  21.054  0.00  0.00    +0.000 C 
BRANCH  20  21
ATOM     21  C   UNL     1       0.595   3.167  20.054  0.00  0.00    +0.000 C 
BRANCH  21  22
ATOM     22  C   UNL     1       0.725   2.360  18.768  0.00  0.00    +0.000 C 
BRANCH  22  23
ATOM     23  N   UNL     1       1.883   1.475  18.820  0.00  0.00    +0.000 NA
ATOM     24  H   UNL     1       1.772   0.708  18.159  0.00  0.00    +0.000 HD
ATOM     25  H   UNL     1       1.941   1.055  19.747  0.00  0.00    +0.000 HD
ENDBRANCH  22  23
ENDBRANCH  21  22
ENDBRANCH  20  21
ENDBRANCH  18  20
ENDBRANCH   6  18
BRANCH  13  26
ATOM     26  O   UNL     1      -0.227   8.686  21.633  0.00  0.00    +0.000 OA
ATOM     27  H   UNL     1      -1.152   9.025  21.533  0.00  0.00    +0.000 HD
ENDBRANCH  13  26
BRANCH  16  28
ATOM     28  O   UNL     1       2.382  10.470  17.100  0.00  0.00    +0.000 OA
ATOM     29  H   UNL     1       3.020   9.823  16.757  0.00  0.00    +0.000 HD
ENDBRANCH  16  28
BRANCH   1  30
ATOM     30  C   UNL     1       5.438   6.654  15.820  0.00  0.00    +0.000 C 
BRANCH  30  31
ATOM     31  C   UNL     1       5.211   5.409  14.966  0.00  0.00    +0.000 C 
BRANCH  31  32
ATOM     32  C   UNL     1       6.382   4.416  15.019  0.00  0.00    +0.000 C 
BRANCH  32  34
ATOM     33  C   UNL     1       5.732   3.563  12.836  0.00  0.00    +0.000 C 
ATOM     34  N   UNL     1       6.846   3.988  13.686  0.00  0.00    +0.000 NA
ATOM     35  C   UNL     1       7.568   5.086  13.031  0.00  0.00    +0.000 C 
ENDBRANCH  32  34
ENDBRANCH  31  32
ENDBRANCH  30  31
ENDBRANCH   1  30
TORSDOF 11
ENDMDL
MODEL 5
REMARK VINA RESULT:      -6.6      1.123      1.402
REMARK  Name = 
REMARK  13 active torsions:
REMARK  status: ('A' for Active; 'I' for Inactive)
REMARK    1  A    between atoms: C_1  and  N_2
REMARK    2  A    between atoms: N_2  and  C_3
REMARK    3  A    between atoms: N_2  and  C_4
REMARK    4  A    between atoms: C_4  and  C_5
REMARK    5  A    between atoms: C_5  and  C_6
REMARK    6  A    between atoms: C_6  and  N_7
REMARK    7  A    between atoms: C_12  and  N_13
REMARK    8  A    between atoms: N_13  and  C_14
REMARK    9  A    between atoms: C_14  and  C_15
REMARK   10  A    between atoms: C_15  and  C_16
REMARK   11  A    between atoms: C_16  and  N_17
REMARK   12  A    between atoms: C_24  and  O_25
REMARK   13  A    between atoms: C_28  and  O_29
REMARK                            x       y       z     vdW  Elec       q    Type
REMARK                         _______ _______ _______ _____ _____    ______ ____
ROOT
ATOM      1  N   UNL     1       2.867   7.630  18.085  0.00  0.00    +0.000 N 
ATOM      2  N   UNL     1       2.252   6.725  18.885  0.00  0.00    +0.000 NA
ATOM      3  C   UNL     1       2.794   5.557  18.533  0.00  0.00    +0.000 A 
ATOM      4  C   UNL     1       3.716   5.727  17.491  0.00  0.00    +0.000 A 
ATOM      5  C   UNL     1       4.499   4.790  16.820  0.00  0.00    +0.000 A 
ATOM      6  C   UNL     1       5.386   5.257  15.822  0.00  0.00    +0.000 A 
ATOM      7  C   UNL     1       5.388   6.643  15.535  0.00  0.00    +0.000 A 
ATOM      8  C   UNL     1       4.601   7.582  16.222  0.00  0.00    +0.000 A 
ATOM      9  C   UNL     1       3.762   7.077  17.207  0.00  0.00    +0.000 A 
ATOM     10  C   UNL     1       4.272   3.396  17.322  0.00  0.00    +0.000 C 
ATOM     11  O   UNL     1       4.849   2.424  16.838  0.00  0.00    +0.000 OA
ATOM     12  C   UNL     1       3.283   3.160  18.468  0.00  0.00    +0.000 A 
ATOM     13  C   UNL     1       3.082   1.849  18.942  0.00  0.00    +0.000 A 
ATOM     14  C   UNL     1       2.189   1.591  19.979  0.00  0.00    +0.000 A 
ATOM     15  C   UNL     1       1.480   2.636  20.572  0.00  0.00    +0.000 A 
ATOM     16  C   UNL     1       1.661   3.939  20.122  0.00  0.00    +0.000 A 
ATOM     17  C   UNL     1       2.552   4.224  19.070  0.00  0.00    +0.000 A 
ENDROOT
BRANCH   6  18
ATOM     18  N   UNL     1       6.208   4.379  15.090  0.00  0.00    +0.000 N 
ATOM     19  H   UNL     1       6.490   3.598  15.686  0.00  0.00    +0.000 HD
BRANCH  18  20
ATOM     20  C   UNL     1       5.772   3.974  13.752  0.00  0.00    +0.000 C 
BRANCH  20  21
ATOM     21  C   UNL     1       6.946   3.815  12.789  0.00  0.00    +0.000 C 
BRANCH  21  22
ATOM     22  C   UNL     1       7.529   5.160  12.372  0.00  0.00    +0.000 C 
BRANCH  22  23
ATOM     23  N   UNL     1       8.359   5.721  13.431  0.00  0.00    +0.000 NA
ATOM     24  H   UNL     1       9.344   5.546  13.240  0.00  0.00    +0.000 HD
ATOM     25  H   UNL     1       8.145   5.250  14.309  0.00  0.00    +0.000 HD
ENDBRANCH  22  23
ENDBRANCH  21  22
ENDBRANCH  20  21
ENDBRANCH  18  20
ENDBRANCH   6  18
BRANCH  13  26
ATOM     26  O   UNL     1       3.728   0.753  18.435  0.00  0.00    +0.000 OA
ATOM     27  H   UNL     1       4.396   0.466  19.108  0.00  0.00    +0.000 HD
ENDBRANCH  13  26
BRANCH  16  28
ATOM     28  O   UNL     1       0.951   4.939  20.738  0.00  0.00    +0.000 OA
ATOM     29  H   UNL     1       0.290   4.558  21.338  0.00  0.00    +0.000 HD
ENDBRANCH  16  28
BRANCH   1  30
ATOM     30  C   UNL     1       2.557   9.036  18.252  0.00  0.00    +0.000 C 
BRANCH  30  31
ATOM     31  C   UNL     1       1.151   9.387  17.773  0.00  0.00    +0.000 C 
BRANCH  31  32
ATOM     32  C   UNL     1       0.288  10.048  18.858  0.00  0.00    +0.000 C 
BRANCH  32  34
ATOM     33  C   UNL     1       0.935  11.311  20.834  0.00  0.00    +0.000 C 
ATOM     34  N   UNL     1       0.894   9.991  20.202  0.00  0.00    +0.000 NA
ATOM     35  C   UNL     1       0.138   9.065  21.054  0.00  0.00    +0.000 C 
ENDBRANCH  32  34
ENDBRANCH  31  32
ENDBRANCH  30  31
ENDBRANCH   1  30
TORSDOF 11
ENDMDL
MODEL 6
REMARK VINA RESULT:      -6.6      3.066      6.694
REMARK  Name = 
REMARK  13 active torsions:
REMARK  status: ('A' for Active; 'I' for Inactive)
REMARK    1  A    between atoms: C_1  and  N_2
REMARK    2  A    between atoms: N_2  and  C_3
REMARK    3  A    between atoms: N_2  and  C_4
REMARK    4  A    between atoms: C_4  and  C_5
REMARK    5  A    between atoms: C_5  and  C_6
REMARK    6  A    between atoms: C_6  and  N_7
REMARK    7  A    between atoms: C_12  and  N_13
REMARK    8  A    between atoms: N_13  and  C_14
REMARK    9  A    between atoms: C_14  and  C_15
REMARK   10  A    between atoms: C_15  and  C_16
REMARK   11  A    between atoms: C_16  and  N_17
REMARK   12  A    between atoms: C_24  and  O_25
REMARK   13  A    between atoms: C_28  and  O_29
REMARK                            x       y       z     vdW  Elec       q    Type
REMARK                         _______ _______ _______ _____ _____    ______ ____
ROOT
ATOM      1  N   UNL     1       4.215   6.758  16.792  0.00  0.00    +0.000 N 
ATOM      2  N   UNL     1       3.543   7.927  16.929  0.00  0.00    +0.000 NA
ATOM      3  C   UNL     1       2.863   7.781  18.069  0.00  0.00    +0.000 A 
ATOM      4  C   UNL     1       3.079   6.511  18.621  0.00  0.00    +0.000 A 
ATOM      5  C   UNL     1       2.571   5.936  19.784  0.00  0.00    +0.000 A 
ATOM      6  C   UNL     1       3.000   4.632  20.124  0.00  0.00    +0.000 A 
ATOM      7  C   UNL     1       3.883   3.973  19.235  0.00  0.00    +0.000 A 
ATOM      8  C   UNL     1       4.397   4.563  18.069  0.00  0.00    +0.000 A 
ATOM      9  C   UNL     1       3.962   5.852  17.789  0.00  0.00    +0.000 A 
ATOM     10  C   UNL     1       1.644   6.860  20.515  0.00  0.00    +0.000 C 
ATOM     11  O   UNL     1       1.071   6.526  21.551  0.00  0.00    +0.000 OA
ATOM     12  C   UNL     1       1.384   8.263  19.957  0.00  0.00    +0.000 A 
ATOM     13  C   UNL     1       0.520   9.128  20.655  0.00  0.00    +0.000 A 
ATOM     14  C   UNL     1       0.254  10.411  20.181  0.00  0.00    +0.000 A 
ATOM     15  C   UNL     1       0.850  10.862  19.002  0.00  0.00    +0.000 A 
ATOM     16  C   UNL     1       1.707  10.025  18.295  0.00  0.00    +0.000 A 
ATOM     17  C   UNL     1       1.985   8.722  18.750  0.00  0.00    +0.000 A 
ENDROOT
BRANCH   6  18
ATOM     18  N   UNL     1       2.532   3.973  21.277  0.00  0.00    +0.000 N 
ATOM     19  H   UNL     1       2.269   4.664  21.983  0.00  0.00    +0.000 HD
BRANCH  18  20
ATOM     20  C   UNL     1       1.553   2.897  21.112  0.00  0.00    +0.000 C 
BRANCH  20  21
ATOM     21  C   UNL     1       0.505   3.232  20.053  0.00  0.00    +0.000 C 
BRANCH  21  22
ATOM     22  C   UNL     1       0.687   2.402  18.787  0.00  0.00    +0.000 C 
BRANCH  22  23
ATOM     23  N   UNL     1       1.776   1.446  18.940  0.00  0.00    +0.000 NA
ATOM     24  H   UNL     1       2.341   1.681  19.754  0.00  0.00    +0.000 HD
ATOM     25  H   UNL     1       2.392   1.507  18.130  0.00  0.00    +0.000 HD
ENDBRANCH  22  23
ENDBRANCH  21  22
ENDBRANCH  20  21
ENDBRANCH  18  20
ENDBRANCH   6  18
BRANCH  13  26
ATOM     26  O   UNL     1      -0.113   8.790  21.821  0.00  0.00    +0.000 OA
ATOM     27  H   UNL     1      -1.081   8.727  21.625  0.00  0.00    +0.000 HD
ENDBRANCH  13  26
BRANCH  16  28
ATOM     28  O   UNL     1       2.279  10.509  17.146  0.00  0.00    +0.000 OA
ATOM     29  H   UNL     1       3.065  11.037  17.362  0.00  0.00    +0.000 HD
ENDBRANCH  16  28
BRANCH   1  30
ATOM     30  C   UNL     1       5.122   6.599  15.673  0.00  0.00    +0.000 C 
BRANCH  30  31
ATOM     31  C   UNL     1       6.178   5.526  15.922  0.00  0.00    +0.000 C 
BRANCH  31  32
ATOM     32  C   UNL     1       7.472   6.081  16.538  0.00  0.00    +0.000 C 
BRANCH  32  34
ATOM     33  C   UNL     1       7.779   6.110  18.951  0.00  0.00    +0.000 C 
ATOM     34  N   UNL     1       7.249   6.828  17.790  0.00  0.00    +0.000 NA
ATOM     35  C   UNL     1       7.883   8.150  17.704  0.00  0.00    +0.000 C 
ENDBRANCH  32  34
ENDBRANCH  31  32
ENDBRANCH  30  31
ENDBRANCH   1  30
TORSDOF 11
ENDMDL
MODEL 7
REMARK VINA RESULT:      -6.5      2.717      5.570
REMARK  Name = 
REMARK  13 active torsions:
REMARK  status: ('A' for Active; 'I' for Inactive)
REMARK    1  A    between atoms: C_1  and  N_2
REMARK    2  A    between atoms: N_2  and  C_3
REMARK    3  A    between atoms: N_2  and  C_4
REMARK    4  A    between atoms: C_4  and  C_5
REMARK    5  A    between atoms: C_5  and  C_6
REMARK    6  A    between atoms: C_6  and  N_7
REMARK    7  A    between atoms: C_12  and  N_13
REMARK    8  A    between atoms: N_13  and  C_14
REMARK    9  A    between atoms: C_14  and  C_15
REMARK   10  A    between atoms: C_15  and  C_16
REMARK   11  A    between atoms: C_16  and  N_17
REMARK   12  A    between atoms: C_24  and  O_25
REMARK   13  A    between atoms: C_28  and  O_29
REMARK                            x       y       z     vdW  Elec       q    Type
REMARK                         _______ _______ _______ _____ _____    ______ ____
ROOT
ATOM      1  N   UNL     1       2.546   4.722  20.939  0.00  0.00    +0.000 N 
ATOM      2  N   UNL     1       1.790   5.830  21.136  0.00  0.00    +0.000 NA
ATOM      3  C   UNL     1       2.125   6.637  20.127  0.00  0.00    +0.000 A 
ATOM      4  C   UNL     1       3.113   6.052  19.324  0.00  0.00    +0.000 A 
ATOM      5  C   UNL     1       3.751   6.536  18.184  0.00  0.00    +0.000 A 
ATOM      6  C   UNL     1       4.694   5.699  17.543  0.00  0.00    +0.000 A 
ATOM      7  C   UNL     1       4.965   4.439  18.128  0.00  0.00    +0.000 A 
ATOM      8  C   UNL     1       4.311   3.954  19.273  0.00  0.00    +0.000 A 
ATOM      9  C   UNL     1       3.379   4.805  19.854  0.00  0.00    +0.000 A 
ATOM     10  C   UNL     1       3.277   7.908  17.808  0.00  0.00    +0.000 C 
ATOM     11  O   UNL     1       3.740   8.519  16.847  0.00  0.00    +0.000 OA
ATOM     12  C   UNL     1       2.189   8.585  18.648  0.00  0.00    +0.000 A 
ATOM     13  C   UNL     1       1.742   9.870  18.283  0.00  0.00    +0.000 A 
ATOM     14  C   UNL     1       0.758  10.523  19.022  0.00  0.00    +0.000 A 
ATOM     15  C   UNL     1       0.193   9.906  20.138  0.00  0.00    +0.000 A 
ATOM     16  C   UNL     1       0.618   8.638  20.519  0.00  0.00    +0.000 A 
ATOM     17  C   UNL     1       1.617   7.961  19.793  0.00  0.00    +0.000 A 
ENDROOT
BRANCH   6  18
ATOM     18  N   UNL     1       5.390   6.111  16.391  0.00  0.00    +0.000 N 
ATOM     19  H   UNL     1       5.337   7.128  16.305  0.00  0.00    +0.000 HD
BRANCH  18  20
ATOM     20  C   UNL     1       6.729   5.567  16.158  0.00  0.00    +0.000 C 
BRANCH  20  21
ATOM     21  C   UNL     1       6.903   5.060  14.729  0.00  0.00    +0.000 C 
BRANCH  21  22
ATOM     22  C   UNL     1       6.089   3.798  14.467  0.00  0.00    +0.000 C 
BRANCH  22  23
ATOM     23  N   UNL     1       6.233   3.361  13.084  0.00  0.00    +0.000 NA
ATOM     24  H   UNL     1       7.134   3.653  12.712  0.00  0.00    +0.000 HD
ATOM     25  H   UNL     1       5.521   3.815  12.513  0.00  0.00    +0.000 HD
ENDBRANCH  22  23
ENDBRANCH  21  22
ENDBRANCH  20  21
ENDBRANCH  18  20
ENDBRANCH   6  18
BRANCH  13  26
ATOM     26  O   UNL     1       2.225  10.562  17.205  0.00  0.00    +0.000 OA
ATOM     27  H   UNL     1       3.213  10.498  17.230  0.00  0.00    +0.000 HD
ENDBRANCH  13  26
BRANCH  16  28
ATOM     28  O   UNL     1       0.031   8.063  21.618  0.00  0.00    +0.000 OA
ATOM     29  H   UNL     1       0.712   7.780  22.250  0.00  0.00    +0.000 HD
ENDBRANCH  16  28
BRANCH   1  30
ATOM     30  C   UNL     1       2.380   3.594  21.833  0.00  0.00    +0.000 C 
BRANCH  30  31
ATOM     31  C   UNL     1       1.483   2.507  21.245  0.00  0.00    +0.000 C 
BRANCH  31  32
ATOM     32  C   UNL     1       0.532   3.029  20.157  0.00  0.00    +0.000 C 
BRANCH  32  34
ATOM     33  C   UNL     1       1.051   3.502  17.828  0.00  0.00    +0.000 C 
ATOM     34  N   UNL     1       0.800   2.458  18.824  0.00  0.00    +0.000 NA
ATOM     35  C   UNL     1       1.957   1.557  18.888  0.00  0.00    +0.000 C 
ENDBRANCH  32  34
ENDBRANCH  31  32
ENDBRANCH  30  31
ENDBRANCH   1  30
TORSDOF 11
ENDMDL
MODEL 8
REMARK VINA RESULT:      -6.5      1.271      6.939
REMARK  Name = 
REMARK  13 active torsions:
REMARK  status: ('A' for Active; 'I' for Inactive)
REMARK    1  A    between atoms: C_1  and  N_2
REMARK    2  A    between atoms: N_2  and  C_3
REMARK    3  A    between atoms: N_2  and  C_4
REMARK    4  A    between atoms: C_4  and  C_5
REMARK    5  A    between atoms: C_5  and  C_6
REMARK    6  A    between atoms: C_6  and  N_7
REMARK    7  A    between atoms: C_12  and  N_13
REMARK    8  A    between atoms: N_13  and  C_14
REMARK    9  A    between atoms: C_14  and  C_15
REMARK   10  A    between atoms: C_15  and  C_16
REMARK   11  A    between atoms: C_16  and  N_17
REMARK   12  A    between atoms: C_24  and  O_25
REMARK   13  A    between atoms: C_28  and  O_29
REMARK                            x       y       z     vdW  Elec       q    Type
REMARK                         _______ _______ _______ _____ _____    ______ ____
ROOT
ATOM      1  N   UNL     1       5.516   4.176  15.922  0.00  0.00    +0.000 N 
ATOM      2  N   UNL     1       5.003   3.155  16.652  0.00  0.00    +0.000 NA
ATOM      3  C   UNL     1       4.145   3.748  17.486  0.00  0.00    +0.000 A 
ATOM      4  C   UNL     1       4.151   5.138  17.304  0.00  0.00    +0.000 A 
ATOM      5  C   UNL     1       3.426   6.134  17.954  0.00  0.00    +0.000 A 
ATOM      6  C   UNL     1       3.604   7.471  17.529  0.00  0.00    +0.000 A 
ATOM      7  C   UNL     1       4.545   7.719  16.500  0.00  0.00    +0.000 A 
ATOM      8  C   UNL     1       5.266   6.708  15.844  0.00  0.00    +0.000 A 
ATOM      9  C   UNL     1       5.040   5.409  16.283  0.00  0.00    +0.000 A 
ATOM     10  C   UNL     1       2.522   5.579  19.013  0.00  0.00    +0.000 C 
ATOM     11  O   UNL     1       1.820   6.301  19.718  0.00  0.00    +0.000 OA
ATOM     12  C   UNL     1       2.472   4.065  19.242  0.00  0.00    +0.000 A 
ATOM     13  C   UNL     1       1.614   3.550  20.233  0.00  0.00    +0.000 A 
ATOM     14  C   UNL     1       1.540   2.179  20.476  0.00  0.00    +0.000 A 
ATOM     15  C   UNL     1       2.318   1.292  19.732  0.00  0.00    +0.000 A 
ATOM     16  C   UNL     1       3.174   1.777  18.748  0.00  0.00    +0.000 A 
ATOM     17  C   UNL     1       3.271   3.157  18.490  0.00  0.00    +0.000 A 
ENDROOT
BRANCH   6  18
ATOM     18  N   UNL     1       2.918   8.541  18.135  0.00  0.00    +0.000 N 
ATOM     19  H   UNL     1       3.571   9.304  18.323  0.00  0.00    +0.000 HD
BRANCH  18  20
ATOM     20  C   UNL     1       1.653   8.978  17.541  0.00  0.00    +0.000 C 
BRANCH  20  21
ATOM     21  C   UNL     1       0.892   9.938  18.452  0.00  0.00    +0.000 C 
BRANCH  21  22
ATOM     22  C   UNL     1       1.558  11.307  18.526  0.00  0.00    +0.000 C 
BRANCH  22  23
ATOM     23  N   UNL     1       2.501  11.489  17.428  0.00  0.00    +0.000 NA
ATOM     24  H   UNL     1       2.802  12.460  17.378  0.00  0.00    +0.000 HD
ATOM     25  H   UNL     1       2.032  11.283  16.547  0.00  0.00    +0.000 HD
ENDBRANCH  22  23
ENDBRANCH  21  22
ENDBRANCH  20  21
ENDBRANCH  18  20
ENDBRANCH   6  18
BRANCH  13  26
ATOM     26  O   UNL     1       0.805   4.330  21.016  0.00  0.00    +0.000 OA
ATOM     27  H   UNL     1       0.032   3.775  21.287  0.00  0.00    +0.000 HD
ENDBRANCH  13  26
BRANCH  16  28
ATOM     28  O   UNL     1       3.915   0.870  18.033  0.00  0.00    +0.000 OA
ATOM     29  H   UNL     1       3.434   0.604  17.233  0.00  0.00    +0.000 HD
ENDBRANCH  16  28
BRANCH   1  30
ATOM     30  C   UNL     1       6.450   3.874  14.856  0.00  0.00    +0.000 C 
BRANCH  30  31
ATOM     31  C   UNL     1       5.972   4.381  13.498  0.00  0.00    +0.000 C 
BRANCH  31  32
ATOM     32  C   UNL     1       6.415   3.490  12.328  0.00  0.00    +0.000 C 
BRANCH  32  34
ATOM     33  C   UNL     1       4.293   3.052  11.221  0.00  0.00    +0.000 C 
ATOM     34  N   UNL     1       5.415   2.469  11.960  0.00  0.00    +0.000 NA
ATOM     35  C   UNL     1       6.045   1.423  11.145  0.00  0.00    +0.000 C 
ENDBRANCH  32  34
ENDBRANCH  31  32
ENDBRANCH  30  31
ENDBRANCH   1  30
TORSDOF 11
ENDMDL
MODEL 9
REMARK VINA RESULT:      -6.4      1.341      1.547
REMARK  Name = 
REMARK  13 active torsions:
REMARK  status: ('A' for Active; 'I' for Inactive)
REMARK    1  A    between atoms: C_1  and  N_2
REMARK    2  A    between atoms: N_2  and  C_3
REMARK    3  A    between atoms: N_2  and  C_4
REMARK    4  A    between atoms: C_4  and  C_5
REMARK    5  A    between atoms: C_5  and  C_6
REMARK    6  A    between atoms: C_6  and  N_7
REMARK    7  A    between atoms: C_12  and  N_13
REMARK    8  A    between atoms: N_13  and  C_14
REMARK    9  A    between atoms: C_14  and  C_15
REMARK   10  A    between atoms: C_15  and  C_16
REMARK   11  A    between atoms: C_16  and  N_17
REMARK   12  A    between atoms: C_24  and  O_25
REMARK   13  A    between atoms: C_28  and  O_29
REMARK                            x       y       z     vdW  Elec       q    Type
REMARK                         _______ _______ _______ _____ _____    ______ ____
ROOT
ATOM      1  N   UNL     1       2.395   7.684  18.086  0.00  0.00    +0.000 N 
ATOM      2  N   UNL     1       1.864   6.798  18.964  0.00  0.00    +0.000 NA
ATOM      3  C   UNL     1       2.782   5.831  19.047  0.00  0.00    +0.000 A 
ATOM      4  C   UNL     1       3.864   6.094  18.196  0.00  0.00    +0.000 A 
ATOM      5  C   UNL     1       5.025   5.360  17.963  0.00  0.00    +0.000 A 
ATOM      6  C   UNL     1       5.981   5.894  17.068  0.00  0.00    +0.000 A 
ATOM      7  C   UNL     1       5.677   7.120  16.428  0.00  0.00    +0.000 A 
ATOM      8  C   UNL     1       4.507   7.857  16.675  0.00  0.00    +0.000 A 
ATOM      9  C   UNL     1       3.609   7.301  17.578  0.00  0.00    +0.000 A 
ATOM     10  C   UNL     1       5.067   4.094  18.765  0.00  0.00    +0.000 C 
ATOM     11  O   UNL     1       5.998   3.295  18.678  0.00  0.00    +0.000 OA
ATOM     12  C   UNL     1       3.913   3.768  19.719  0.00  0.00    +0.000 A 
ATOM     13  C   UNL     1       3.964   2.582  20.476  0.00  0.00    +0.000 A 
ATOM     14  C   UNL     1       2.933   2.246  21.352  0.00  0.00    +0.000 A 
ATOM     15  C   UNL     1       1.832   3.090  21.496  0.00  0.00    +0.000 A 
ATOM     16  C   UNL     1       1.759   4.267  20.759  0.00  0.00    +0.000 A 
ATOM     17  C   UNL     1       2.783   4.624  19.862  0.00  0.00    +0.000 A 
ENDROOT
BRANCH   6  18
ATOM     18  N   UNL     1       7.178   5.216  16.769  0.00  0.00    +0.000 N 
ATOM     19  H   UNL     1       7.353   4.501  17.478  0.00  0.00    +0.000 HD
BRANCH  18  20
ATOM     20  C   UNL     1       7.387   4.750  15.397  0.00  0.00    +0.000 C 
BRANCH  20  21
ATOM     21  C   UNL     1       6.295   3.782  14.946  0.00  0.00    +0.000 C 
BRANCH  21  22
ATOM     22  C   UNL     1       5.874   4.029  13.502  0.00  0.00    +0.000 C 
BRANCH  22  23
ATOM     23  N   UNL     1       6.304   2.936  12.638  0.00  0.00    +0.000 NA
ATOM     24  H   UNL     1       5.681   2.137  12.740  0.00  0.00    +0.000 HD
ATOM     25  H   UNL     1       7.229   2.623  12.930  0.00  0.00    +0.000 HD
ENDBRANCH  22  23
ENDBRANCH  21  22
ENDBRANCH  20  21
ENDBRANCH  18  20
ENDBRANCH   6  18
BRANCH  13  26
ATOM     26  O   UNL     1       4.998   1.687  20.414  0.00  0.00    +0.000 OA
ATOM     27  H   UNL     1       4.648   0.857  20.004  0.00  0.00    +0.000 HD
ENDBRANCH  13  26
BRANCH  16  28
ATOM     28  O   UNL     1       0.663   5.073  20.937  0.00  0.00    +0.000 OA
ATOM     29  H   UNL     1      -0.057   4.571  21.352  0.00  0.00    +0.000 HD
ENDBRANCH  16  28
BRANCH   1  30
ATOM     30  C   UNL     1       1.676   8.911  17.810  0.00  0.00    +0.000 C 
BRANCH  30  31
ATOM     31  C   UNL     1       1.351   9.697  19.078  0.00  0.00    +0.000 C 
BRANCH  31  32
ATOM     32  C   UNL     1      -0.152   9.958  19.261  0.00  0.00    +0.000 C 
BRANCH  32  34
ATOM     33  C   UNL     1      -1.918  10.117  17.595  0.00  0.00    +0.000 C 
ATOM     34  N   UNL     1      -0.741  10.767  18.176  0.00  0.00    +0.000 NA
ATOM     35  C   UNL     1      -1.116  12.091  18.686  0.00  0.00    +0.000 C 
ENDBRANCH  32  34
ENDBRANCH  31  32
ENDBRANCH  30  31
ENDBRANCH   1  30
TORSDOF 11
ENDMDL
