MODEL 1
REMARK VINA RESULT:      -7.6      0.000      0.000
REMARK  Name = 
REMARK  3 active torsions:
REMARK  status: ('A' for Active; 'I' for Inactive)
REMARK    1  A    between atoms: O_1  and  C_2
REMARK    2  A    between atoms: C_2  and  C_3
REMARK    3  A    between atoms: N_5  and  C_6
REMARK                            x       y       z     vdW  Elec       q    Type
REMARK                         _______ _______ _______ _____ _____    ______ ____
ROOT
ATOM      1  C   UNL     1       2.794   6.313  19.271  0.00  0.00    +0.000 A 
ATOM      2  C   UNL     1       2.077   6.812  20.335  0.00  0.00    +0.000 A 
ATOM      3  N   UNL     1       1.684   8.070  19.950  0.00  0.00    +0.000 N 
ATOM      4  N   UNL     1       2.156   8.327  18.708  0.00  0.00    +0.000 NA
ATOM      5  N   UNL     1       2.812   7.258  18.279  0.00  0.00    +0.000 NA
ENDROOT
BRANCH   1   6
ATOM      6  C   UNL     1       3.391   4.950  19.060  0.00  0.00    +0.000 C 
ATOM      7  C   UNL     1       2.966   3.939  20.178  0.00  0.00    +0.000 C 
ATOM      8  N   UNL     1       2.353   2.695  19.631  0.00  0.00    +0.000 NA
ATOM      9  C   UNL     1       1.152   3.077  18.856  0.00  0.00    +0.000 C 
ATOM     10  C   UNL     1       1.505   3.969  17.656  0.00  0.00    +0.000 C 
ATOM     11  C   UNL     1       3.009   4.305  17.691  0.00  0.00    +0.000 C 
ATOM     12  C   UNL     1       3.745   2.954  17.568  0.00  0.00    +0.000 C 
ATOM     13  C   UNL     1       3.330   2.042  18.733  0.00  0.00    +0.000 C 
BRANCH   6  14
ATOM     14  O   UNL     1       4.826   5.084  19.068  0.00  0.00    +0.000 OA
ATOM     15  H   UNL     1       5.028   5.809  19.687  0.00  0.00    +0.000 HD
ENDBRANCH   6  14
ENDBRANCH   1   6
BRANCH   3  16
ATOM     16  C   UNL     1       0.890   8.997  20.667  0.00  0.00    +0.000 A 
ATOM     17  C   UNL     1       0.794   8.919  22.062  0.00  0.00    +0.000 A 
ATOM     18  C   UNL     1      -0.005   9.827  22.759  0.00  0.00    +0.000 A 
ATOM     19  C   UNL     1      -0.710  10.806  22.062  0.00  0.00    +0.000 A 
ATOM     20 BR   UNL     1      -1.801  12.022  23.015  0.00  0.00    +0.000 Br
ATOM     21  C   UNL     1      -0.620  10.895  20.675  0.00  0.00    +0.000 A 
ATOM     22  C   UNL     1       0.187   9.995  19.972  0.00  0.00    +0.000 A 
ENDBRANCH   3  16
TORSDOF 3
ENDMDL
MODEL 2
REMARK VINA RESULT:      -7.6      0.103      1.062
REMARK  Name = 
REMARK  3 active torsions:
REMARK  status: ('A' for Active; 'I' for Inactive)
REMARK    1  A    between atoms: O_1  and  C_2
REMARK    2  A    between atoms: C_2  and  C_3
REMARK    3  A    between atoms: N_5  and  C_6
REMARK                            x       y       z     vdW  Elec       q    Type
REMARK                         _______ _______ _______ _____ _____    ______ ____
ROOT
ATOM      1  C   UNL     1       2.822   6.401  19.239  0.00  0.00    +0.000 A 
ATOM      2  C   UNL     1       2.078   6.882  20.292  0.00  0.00    +0.000 A 
ATOM      3  N   UNL     1       1.675   8.137  19.908  0.00  0.00    +0.000 N 
ATOM      4  N   UNL     1       2.167   8.409  18.677  0.00  0.00    +0.000 NA
ATOM      5  N   UNL     1       2.846   7.353  18.254  0.00  0.00    +0.000 NA
ENDROOT
BRANCH   1   6
ATOM      6  C   UNL     1       3.442   5.048  19.030  0.00  0.00    +0.000 C 
ATOM      7  C   UNL     1       3.047   4.035  20.158  0.00  0.00    +0.000 C 
ATOM      8  N   UNL     1       2.452   2.777  19.624  0.00  0.00    +0.000 NA
ATOM      9  C   UNL     1       1.237   3.132  18.858  0.00  0.00    +0.000 C 
ATOM     10  C   UNL     1       1.562   4.024  17.650  0.00  0.00    +0.000 C 
ATOM     11  C   UNL     1       3.059   4.388  17.668  0.00  0.00    +0.000 C 
ATOM     12  C   UNL     1       3.819   3.050  17.546  0.00  0.00    +0.000 C 
ATOM     13  C   UNL     1       3.433   2.137  18.720  0.00  0.00    +0.000 C 
BRANCH   6  14
ATOM     14  O   UNL     1       4.874   5.209  19.023  0.00  0.00    +0.000 OA
ATOM     15  H   UNL     1       5.192   4.858  19.874  0.00  0.00    +0.000 HD
ENDBRANCH   6  14
ENDBRANCH   1   6
BRANCH   3  16
ATOM     16  C   UNL     1       0.854   9.047  20.617  0.00  0.00    +0.000 A 
ATOM     17  C   UNL     1       0.199  10.085  19.942  0.00  0.00    +0.000 A 
ATOM     18  C   UNL     1      -0.595  10.988  20.651  0.00  0.00    +0.000 A 
ATOM     19  C   UNL     1      -0.727  10.858  22.032  0.00  0.00    +0.000 A 
ATOM     20 BR   UNL     1      -1.792  12.096  22.985  0.00  0.00    +0.000 Br
ATOM     21  C   UNL     1      -0.082   9.828  22.713  0.00  0.00    +0.000 A 
ATOM     22  C   UNL     1       0.705   8.914  22.007  0.00  0.00    +0.000 A 
ENDBRANCH   3  16
TORSDOF 3
ENDMDL
MODEL 3
REMARK VINA RESULT:      -7.3      0.930      1.059
REMARK  Name = 
REMARK  3 active torsions:
REMARK  status: ('A' for Active; 'I' for Inactive)
REMARK    1  A    between atoms: O_1  and  C_2
REMARK    2  A    between atoms: C_2  and  C_3
REMARK    3  A    between atoms: N_5  and  C_6
REMARK                            x       y       z     vdW  Elec       q    Type
REMARK                         _______ _______ _______ _____ _____    ______ ____
ROOT
ATOM      1  C   UNL     1       2.743   6.997  18.617  0.00  0.00    +0.000 A 
ATOM      2  C   UNL     1       2.097   7.356  19.779  0.00  0.00    +0.000 A 
ATOM      3  N   UNL     1       1.577   8.603  19.534  0.00  0.00    +0.000 N 
ATOM      4  N   UNL     1       1.907   8.988  18.280  0.00  0.00    +0.000 NA
ATOM      5  N   UNL     1       2.595   8.011  17.708  0.00  0.00    +0.000 NA
ENDROOT
BRANCH   1   6
ATOM      6  C   UNL     1       3.415   5.706  18.243  0.00  0.00    +0.000 C 
ATOM      7  C   UNL     1       4.196   5.076  19.446  0.00  0.00    +0.000 C 
ATOM      8  N   UNL     1       3.795   3.667  19.722  0.00  0.00    +0.000 NA
ATOM      9  C   UNL     1       2.349   3.655  20.037  0.00  0.00    +0.000 C 
ATOM     10  C   UNL     1       1.501   4.139  18.851  0.00  0.00    +0.000 C 
ATOM     11  C   UNL     1       2.429   4.617  17.718  0.00  0.00    +0.000 C 
ATOM     12  C   UNL     1       3.251   3.380  17.297  0.00  0.00    +0.000 C 
ATOM     13  C   UNL     1       4.040   2.859  18.508  0.00  0.00    +0.000 C 
BRANCH   6  14
ATOM     14  O   UNL     1       4.340   5.978  17.172  0.00  0.00    +0.000 OA
ATOM     15  H   UNL     1       5.072   5.344  17.276  0.00  0.00    +0.000 HD
ENDBRANCH   6  14
ENDBRANCH   1   6
BRANCH   3  16
ATOM     16  C   UNL     1       0.789   9.407  20.393  0.00  0.00    +0.000 A 
ATOM     17  C   UNL     1       0.705   9.113  21.760  0.00  0.00    +0.000 A 
ATOM     18  C   UNL     1      -0.087   9.902  22.596  0.00  0.00    +0.000 A 
ATOM     19  C   UNL     1      -0.798  10.977  22.066  0.00  0.00    +0.000 A 
ATOM     20 BR   UNL     1      -1.880  12.029  23.205  0.00  0.00    +0.000 Br
ATOM     21  C   UNL     1      -0.719  11.279  20.708  0.00  0.00    +0.000 A 
ATOM     22  C   UNL     1       0.081  10.500  19.868  0.00  0.00    +0.000 A 
ENDBRANCH   3  16
TORSDOF 3
ENDMDL
MODEL 4
REMARK VINA RESULT:      -7.1      2.440      3.228
REMARK  Name = 
REMARK  3 active torsions:
REMARK  status: ('A' for Active; 'I' for Inactive)
REMARK    1  A    between atoms: O_1  and  C_2
REMARK    2  A    between atoms: C_2  and  C_3
REMARK    3  A    between atoms: N_5  and  C_6
REMARK                            x       y       z     vdW  Elec       q    Type
REMARK                         _______ _______ _______ _____ _____    ______ ____
ROOT
ATOM      1  C   UNL     1       3.876   5.341  18.839  0.00  0.00    +0.000 A 
ATOM      2  C   UNL     1       3.395   6.621  18.680  0.00  0.00    +0.000 A 
ATOM      3  N   UNL     1       2.454   6.780  19.667  0.00  0.00    +0.000 N 
ATOM      4  N   UNL     1       2.360   5.637  20.386  0.00  0.00    +0.000 NA
ATOM      5  N   UNL     1       3.235   4.766  19.904  0.00  0.00    +0.000 NA
ENDROOT
BRANCH   1   6
ATOM      6  C   UNL     1       4.989   4.630  18.122  0.00  0.00    +0.000 C 
ATOM      7  C   UNL     1       4.546   4.104  16.715  0.00  0.00    +0.000 C 
ATOM      8  N   UNL     1       5.436   4.573  15.615  0.00  0.00    +0.000 NA
ATOM      9  C   UNL     1       5.406   6.052  15.599  0.00  0.00    +0.000 C 
ATOM     10  C   UNL     1       5.952   6.649  16.905  0.00  0.00    +0.000 C 
ATOM     11  C   UNL     1       6.256   5.514  17.901  0.00  0.00    +0.000 C 
ATOM     12  C   UNL     1       7.344   4.647  17.232  0.00  0.00    +0.000 C 
ATOM     13  C   UNL     1       6.813   4.112  15.892  0.00  0.00    +0.000 C 
BRANCH   6  14
ATOM     14  O   UNL     1       5.401   3.513  18.934  0.00  0.00    +0.000 OA
ATOM     15  H   UNL     1       6.357   3.404  18.783  0.00  0.00    +0.000 HD
ENDBRANCH   6  14
ENDBRANCH   1   6
BRANCH   3  16
ATOM     16  C   UNL     1       1.685   7.931  19.967  0.00  0.00    +0.000 A 
ATOM     17  C   UNL     1       1.093   8.080  21.227  0.00  0.00    +0.000 A 
ATOM     18  C   UNL     1       0.323   9.210  21.508  0.00  0.00    +0.000 A 
ATOM     19  C   UNL     1       0.140  10.184  20.529  0.00  0.00    +0.000 A 
ATOM     20 BR   UNL     1      -0.919  11.703  20.914  0.00  0.00    +0.000 Br
ATOM     21  C   UNL     1       0.725  10.046  19.272  0.00  0.00    +0.000 A 
ATOM     22  C   UNL     1       1.507   8.923  18.989  0.00  0.00    +0.000 A 
ENDBRANCH   3  16
TORSDOF 3
ENDMDL
MODEL 5
REMARK VINA RESULT:      -7.1      2.477      3.413
REMARK  Name = 
REMARK  3 active torsions:
REMARK  status: ('A' for Active; 'I' for Inactive)
REMARK    1  A    between atoms: O_1  and  C_2
REMARK    2  A    between atoms: C_2  and  C_3
REMARK    3  A    between atoms: N_5  and  C_6
REMARK                            x       y       z     vdW  Elec       q    Type
REMARK                         _______ _______ _______ _____ _____    ______ ____
ROOT
ATOM      1  C   UNL     1       3.945   5.351  18.843  0.00  0.00    +0.000 A 
ATOM      2  C   UNL     1       3.435   6.619  18.675  0.00  0.00    +0.000 A 
ATOM      3  N   UNL     1       2.476   6.756  19.647  0.00  0.00    +0.000 N 
ATOM      4  N   UNL     1       2.399   5.612  20.366  0.00  0.00    +0.000 NA
ATOM      5  N   UNL     1       3.302   4.762  19.899  0.00  0.00    +0.000 NA
ENDROOT
BRANCH   1   6
ATOM      6  C   UNL     1       5.086   4.666  18.144  0.00  0.00    +0.000 C 
ATOM      7  C   UNL     1       4.661   4.075  16.757  0.00  0.00    +0.000 C 
ATOM      8  N   UNL     1       5.526   4.546  15.638  0.00  0.00    +0.000 NA
ATOM      9  C   UNL     1       5.432   6.022  15.575  0.00  0.00    +0.000 C 
ATOM     10  C   UNL     1       5.955   6.684  16.857  0.00  0.00    +0.000 C 
ATOM     11  C   UNL     1       6.312   5.597  17.889  0.00  0.00    +0.000 C 
ATOM     12  C   UNL     1       7.434   4.756  17.243  0.00  0.00    +0.000 C 
ATOM     13  C   UNL     1       6.923   4.156  15.924  0.00  0.00    +0.000 C 
BRANCH   6  14
ATOM     14  O   UNL     1       5.549   3.595  18.990  0.00  0.00    +0.000 OA
ATOM     15  H   UNL     1       5.374   2.769  18.505  0.00  0.00    +0.000 HD
ENDBRANCH   6  14
ENDBRANCH   1   6
BRANCH   3  16
ATOM     16  C   UNL     1       1.675   7.888  19.933  0.00  0.00    +0.000 A 
ATOM     17  C   UNL     1       1.478   8.881  18.964  0.00  0.00    +0.000 A 
ATOM     18  C   UNL     1       0.700  10.002  19.261  0.00  0.00    +0.000 A 
ATOM     19  C   UNL     1       0.127  10.132  20.524  0.00  0.00    +0.000 A 
ATOM     20 BR   UNL     1      -0.911  11.662  20.920  0.00  0.00    +0.000 Br
ATOM     21  C   UNL     1       0.315   9.150  21.494  0.00  0.00    +0.000 A 
ATOM     22  C   UNL     1       1.083   8.021  21.200  0.00  0.00    +0.000 A 
ENDBRANCH   3  16
TORSDOF 3
ENDMDL
MODEL 6
REMARK VINA RESULT:      -7.1      1.009      1.186
REMARK  Name = 
REMARK  3 active torsions:
REMARK  status: ('A' for Active; 'I' for Inactive)
REMARK    1  A    between atoms: O_1  and  C_2
REMARK    2  A    between atoms: C_2  and  C_3
REMARK    3  A    between atoms: N_5  and  C_6
REMARK                            x       y       z     vdW  Elec       q    Type
REMARK                         _______ _______ _______ _____ _____    ______ ____
ROOT
ATOM      1  C   UNL     1       2.908   6.732  18.935  0.00  0.00    +0.000 A 
ATOM      2  C   UNL     1       1.997   7.385  19.736  0.00  0.00    +0.000 A 
ATOM      3  N   UNL     1       1.731   8.567  19.093  0.00  0.00    +0.000 N 
ATOM      4  N   UNL     1       2.462   8.634  17.955  0.00  0.00    +0.000 NA
ATOM      5  N   UNL     1       3.162   7.514  17.840  0.00  0.00    +0.000 NA
ENDROOT
BRANCH   1   6
ATOM      6  C   UNL     1       3.496   5.354  19.062  0.00  0.00    +0.000 C 
ATOM      7  C   UNL     1       2.931   4.583  20.303  0.00  0.00    +0.000 C 
ATOM      8  N   UNL     1       2.356   3.255  19.947  0.00  0.00    +0.000 NA
ATOM      9  C   UNL     1       1.254   3.476  18.984  0.00  0.00    +0.000 C 
ATOM     10  C   UNL     1       1.753   4.114  17.680  0.00  0.00    +0.000 C 
ATOM     11  C   UNL     1       3.250   4.452  17.813  0.00  0.00    +0.000 C 
ATOM     12  C   UNL     1       3.968   3.104  18.038  0.00  0.00    +0.000 C 
ATOM     13  C   UNL     1       3.410   2.439  19.307  0.00  0.00    +0.000 C 
BRANCH   6  14
ATOM     14  O   UNL     1       4.923   5.489  19.201  0.00  0.00    +0.000 OA
ATOM     15  H   UNL     1       5.163   6.324  18.759  0.00  0.00    +0.000 HD
ENDBRANCH   6  14
ENDBRANCH   1   6
BRANCH   3  16
ATOM     16  C   UNL     1       0.831   9.590  19.478  0.00  0.00    +0.000 A 
ATOM     17  C   UNL     1       0.765  10.012  20.811  0.00  0.00    +0.000 A 
ATOM     18  C   UNL     1      -0.137  11.010  21.185  0.00  0.00    +0.000 A 
ATOM     19  C   UNL     1      -0.975  11.579  20.229  0.00  0.00    +0.000 A 
ATOM     20 BR   UNL     1      -2.205  12.919  20.749  0.00  0.00    +0.000 Br
ATOM     21  C   UNL     1      -0.917  11.168  18.899  0.00  0.00    +0.000 A 
ATOM     22  C   UNL     1      -0.008  10.178  18.517  0.00  0.00    +0.000 A 
ENDBRANCH   3  16
TORSDOF 3
ENDMDL
MODEL 7
REMARK VINA RESULT:      -7.0      1.042      1.589
REMARK  Name = 
REMARK  3 active torsions:
REMARK  status: ('A' for Active; 'I' for Inactive)
REMARK    1  A    between atoms: O_1  and  C_2
REMARK    2  A    between atoms: C_2  and  C_3
REMARK    3  A    between atoms: N_5  and  C_6
REMARK                            x       y       z     vdW  Elec       q    Type
REMARK                         _______ _______ _______ _____ _____    ______ ____
ROOT
ATOM      1  C   UNL     1       2.921   6.705  18.941  0.00  0.00    +0.000 A 
ATOM      2  C   UNL     1       2.001   7.367  19.723  0.00  0.00    +0.000 A 
ATOM      3  N   UNL     1       1.748   8.545  19.066  0.00  0.00    +0.000 N 
ATOM      4  N   UNL     1       2.494   8.599  17.938  0.00  0.00    +0.000 NA
ATOM      5  N   UNL     1       3.192   7.477  17.843  0.00  0.00    +0.000 NA
ENDROOT
BRANCH   1   6
ATOM      6  C   UNL     1       3.502   5.326  19.088  0.00  0.00    +0.000 C 
ATOM      7  C   UNL     1       2.908   4.562  20.319  0.00  0.00    +0.000 C 
ATOM      8  N   UNL     1       2.338   3.233  19.955  0.00  0.00    +0.000 NA
ATOM      9  C   UNL     1       1.259   3.452  18.967  0.00  0.00    +0.000 C 
ATOM     10  C   UNL     1       1.788   4.084  17.671  0.00  0.00    +0.000 C 
ATOM     11  C   UNL     1       3.283   4.419  17.837  0.00  0.00    +0.000 C 
ATOM     12  C   UNL     1       3.992   3.070  18.085  0.00  0.00    +0.000 C 
ATOM     13  C   UNL     1       3.405   2.412  19.344  0.00  0.00    +0.000 C 
BRANCH   6  14
ATOM     14  O   UNL     1       4.927   5.459  19.258  0.00  0.00    +0.000 OA
ATOM     15  H   UNL     1       5.285   5.700  18.385  0.00  0.00    +0.000 HD
ENDBRANCH   6  14
ENDBRANCH   1   6
BRANCH   3  16
ATOM     16  C   UNL     1       0.846   9.574  19.430  0.00  0.00    +0.000 A 
ATOM     17  C   UNL     1       0.009  10.157  18.470  0.00  0.00    +0.000 A 
ATOM     18  C   UNL     1      -0.865  11.182  18.835  0.00  0.00    +0.000 A 
ATOM     19  C   UNL     1      -0.897  11.628  20.155  0.00  0.00    +0.000 A 
ATOM     20 BR   UNL     1      -2.073  13.029  20.635  0.00  0.00    +0.000 Br
ATOM     21  C   UNL     1      -0.070  11.054  21.118  0.00  0.00    +0.000 A 
ATOM     22  C   UNL     1       0.799  10.020  20.762  0.00  0.00    +0.000 A 
ENDBRANCH   3  16
TORSDOF 3
ENDMDL
MODEL 8
REMARK VINA RESULT:      -7.0      6.450      7.292
REMARK  Name = 
REMARK  3 active torsions:
REMARK  status: ('A' for Active; 'I' for Inactive)
REMARK    1  A    between atoms: O_1  and  C_2
REMARK    2  A    between atoms: C_2  and  C_3
REMARK    3  A    between atoms: N_5  and  C_6
REMARK                            x       y       z     vdW  Elec       q    Type
REMARK                         _______ _______ _______ _____ _____    ______ ____
ROOT
ATOM      1  C   UNL     1       7.547   7.120  17.619  0.00  0.00    +0.000 A 
ATOM      2  C   UNL     1       7.704   8.468  17.392  0.00  0.00    +0.000 A 
ATOM      3  N   UNL     1       8.463   8.927  18.440  0.00  0.00    +0.000 N 
ATOM      4  N   UNL     1       8.742   7.899  19.274  0.00  0.00    +0.000 NA
ATOM      5  N   UNL     1       8.209   6.794  18.772  0.00  0.00    +0.000 NA
ENDROOT
BRANCH   1   6
ATOM      6  C   UNL     1       6.898   6.064  16.767  0.00  0.00    +0.000 C 
ATOM      7  C   UNL     1       6.790   4.689  17.510  0.00  0.00    +0.000 C 
ATOM      8  N   UNL     1       5.400   4.153  17.536  0.00  0.00    +0.000 NA
ATOM      9  C   UNL     1       4.541   5.137  18.232  0.00  0.00    +0.000 C 
ATOM     10  C   UNL     1       4.491   6.479  17.488  0.00  0.00    +0.000 C 
ATOM     11  C   UNL     1       5.461   6.440  16.291  0.00  0.00    +0.000 C 
ATOM     12  C   UNL     1       4.945   5.316  15.368  0.00  0.00    +0.000 C 
ATOM     13  C   UNL     1       4.930   3.989  16.143  0.00  0.00    +0.000 C 
BRANCH   6  14
ATOM     14  O   UNL     1       7.697   5.896  15.580  0.00  0.00    +0.000 OA
ATOM     15  H   UNL     1       8.176   6.735  15.452  0.00  0.00    +0.000 HD
ENDBRANCH   6  14
ENDBRANCH   1   6
BRANCH   3  16
ATOM     16  C   UNL     1       8.939  10.240  18.667  0.00  0.00    +0.000 A 
ATOM     17  C   UNL     1       8.676  11.260  17.744  0.00  0.00    +0.000 A 
ATOM     18  C   UNL     1       9.165  12.548  17.968  0.00  0.00    +0.000 A 
ATOM     19  C   UNL     1       9.919  12.814  19.108  0.00  0.00    +0.000 A 
ATOM     20 BR   UNL     1      10.590  14.559  19.394  0.00  0.00    +0.000 Br
ATOM     21  C   UNL     1      10.186  11.808  20.034  0.00  0.00    +0.000 A 
ATOM     22  C   UNL     1       9.690  10.519  19.821  0.00  0.00    +0.000 A 
ENDBRANCH   3  16
TORSDOF 3
ENDMDL
MODEL 9
REMARK VINA RESULT:      -7.0      2.518      3.606
REMARK  Name = 
REMARK  3 active torsions:
REMARK  status: ('A' for Active; 'I' for Inactive)
REMARK    1  A    between atoms: O_1  and  C_2
REMARK    2  A    between atoms: C_2  and  C_3
REMARK    3  A    between atoms: N_5  and  C_6
REMARK                            x       y       z     vdW  Elec       q    Type
REMARK                         _______ _______ _______ _____ _____    ______ ____
ROOT
ATOM      1  C   UNL     1       3.595   5.914  18.294  0.00  0.00    +0.000 A 
ATOM      2  C   UNL     1       3.023   7.165  18.353  0.00  0.00    +0.000 A 
ATOM      3  N   UNL     1       2.311   7.183  19.526  0.00  0.00    +0.000 N 
ATOM      4  N   UNL     1       2.436   5.986  20.146  0.00  0.00    +0.000 NA
ATOM      5  N   UNL     1       3.232   5.217  19.416  0.00  0.00    +0.000 NA
ENDROOT
BRANCH   1   6
ATOM      6  C   UNL     1       4.564   5.339  17.299  0.00  0.00    +0.000 C 
ATOM      7  C   UNL     1       4.979   6.382  16.207  0.00  0.00    +0.000 C 
ATOM      8  N   UNL     1       6.457   6.547  16.096  0.00  0.00    +0.000 NA
ATOM      9  C   UNL     1       6.967   7.005  17.407  0.00  0.00    +0.000 C 
ATOM     10  C   UNL     1       6.712   5.970  18.513  0.00  0.00    +0.000 C 
ATOM     11  C   UNL     1       5.880   4.804  17.945  0.00  0.00    +0.000 C 
ATOM     12  C   UNL     1       6.746   4.173  16.833  0.00  0.00    +0.000 C 
ATOM     13  C   UNL     1       7.056   5.236  15.767  0.00  0.00    +0.000 C 
BRANCH   6  14
ATOM     14  O   UNL     1       3.931   4.214  16.659  0.00  0.00    +0.000 OA
ATOM     15  H   UNL     1       4.145   3.434  17.203  0.00  0.00    +0.000 HD
ENDBRANCH   6  14
ENDBRANCH   1   6
BRANCH   3  16
ATOM     16  C   UNL     1       1.565   8.251  20.081  0.00  0.00    +0.000 A 
ATOM     17  C   UNL     1       1.192   9.343  19.288  0.00  0.00    +0.000 A 
ATOM     18  C   UNL     1       0.470  10.399  19.848  0.00  0.00    +0.000 A 
ATOM     19  C   UNL     1       0.128  10.365  21.198  0.00  0.00    +0.000 A 
ATOM     20 BR   UNL     1      -0.836  11.808  21.950  0.00  0.00    +0.000 Br
ATOM     21  C   UNL     1       0.493   9.283  21.996  0.00  0.00    +0.000 A 
ATOM     22  C   UNL     1       1.205   8.218  21.439  0.00  0.00    +0.000 A 
ENDBRANCH   3  16
TORSDOF 3
ENDMDL
