MODEL 1
REMARK VINA RESULT:      -6.8      0.000      0.000
REMARK  Name = 
REMARK  2 active torsions:
REMARK  status: ('A' for Active; 'I' for Inactive)
REMARK    1  A    between atoms: N_10  and  C_11
REMARK    2  A    between atoms: C_11  and  C_12
REMARK                            x       y       z     vdW  Elec       q    Type
REMARK                         _______ _______ _______ _____ _____    ______ ____
ROOT
ATOM      1  C   UNL     1       7.197   4.181  11.967  0.00  0.00    +0.000 A 
ATOM      2  C   UNL     1       7.983   5.086  12.635  0.00  0.00    +0.000 A 
ATOM      3  N   UNL     1       7.776   5.462  13.912  0.00  0.00    +0.000 NA
ATOM      4  C   UNL     1       6.739   4.904  14.558  0.00  0.00    +0.000 A 
ATOM      5  N   UNL     1       6.558   5.186  15.889  0.00  0.00    +0.000 N 
ATOM      6  C   UNL     1       7.130   6.373  16.490  0.00  0.00    +0.000 C 
ATOM      7  C   UNL     1       6.685   6.280  17.959  0.00  0.00    +0.000 C 
ATOM      8  C   UNL     1       5.518   5.286  17.957  0.00  0.00    +0.000 C 
ATOM      9  C   UNL     1       5.739   4.044  18.870  0.00  0.00    +0.000 C 
ATOM     10  N   UNL     1       4.249   3.961  18.963  0.00  0.00    +0.000 NA
ATOM     11  C   UNL     1       4.242   5.453  18.857  0.00  0.00    +0.000 C 
ATOM     12  C   UNL     1       5.276   4.893  16.495  0.00  0.00    +0.000 C 
ATOM     13  N   UNL     1       5.905   4.023  13.973  0.00  0.00    +0.000 NA
ATOM     14  C   UNL     1       6.153   3.675  12.697  0.00  0.00    +0.000 A 
ENDROOT
BRANCH  10  15
ATOM     15  C   UNL     1       3.861   3.440  20.267  0.00  0.00    +0.000 C 
BRANCH  15  16
ATOM     16  C   UNL     1       2.460   2.827  20.262  0.00  0.00    +0.000 C 
ATOM     17  C   UNL     1       1.301   3.797  20.409  0.00  0.00    +0.000 C 
ATOM     18  C   UNL     1       0.151   3.012  19.805  0.00  0.00    +0.000 C 
ATOM     19  O   UNL     1       0.710   2.163  18.794  0.00  0.00    +0.000 OA
ATOM     20  C   UNL     1       2.138   2.194  18.916  0.00  0.00    +0.000 C 
ENDBRANCH  15  16
ENDBRANCH  10  15
TORSDOF 2
ENDMDL
MODEL 2
REMARK VINA RESULT:      -6.7      2.272      6.884
REMARK  Name = 
REMARK  2 active torsions:
REMARK  status: ('A' for Active; 'I' for Inactive)
REMARK    1  A    between atoms: N_10  and  C_11
REMARK    2  A    between atoms: C_11  and  C_12
REMARK                            x       y       z     vdW  Elec       q    Type
REMARK                         _______ _______ _______ _____ _____    ______ ____
ROOT
ATOM      1  C   UNL     1       0.737   3.111  19.852  0.00  0.00    +0.000 A 
ATOM      2  C   UNL     1       1.559   4.001  20.498  0.00  0.00    +0.000 A 
ATOM      3  N   UNL     1       2.727   4.446  19.994  0.00  0.00    +0.000 NA
ATOM      4  C   UNL     1       3.091   3.989  18.784  0.00  0.00    +0.000 A 
ATOM      5  N   UNL     1       4.222   4.497  18.197  0.00  0.00    +0.000 N 
ATOM      6  C   UNL     1       5.258   5.132  18.985  0.00  0.00    +0.000 C 
ATOM      7  C   UNL     1       6.305   5.542  17.936  0.00  0.00    +0.000 C 
ATOM      8  C   UNL     1       5.981   4.694  16.701  0.00  0.00    +0.000 C 
ATOM      9  C   UNL     1       5.671   5.526  15.422  0.00  0.00    +0.000 C 
ATOM     10  N   UNL     1       6.130   4.334  14.645  0.00  0.00    +0.000 NA
ATOM     11  C   UNL     1       7.081   4.071  15.770  0.00  0.00    +0.000 C 
ATOM     12  C   UNL     1       4.815   3.777  17.090  0.00  0.00    +0.000 C 
ATOM     13  N   UNL     1       2.355   3.100  18.090  0.00  0.00    +0.000 NA
ATOM     14  C   UNL     1       1.195   2.686  18.632  0.00  0.00    +0.000 A 
ENDROOT
BRANCH  10  15
ATOM     15  C   UNL     1       6.759   4.762  13.402  0.00  0.00    +0.000 C 
BRANCH  15  16
ATOM     16  C   UNL     1       6.298   3.941  12.198  0.00  0.00    +0.000 C 
ATOM     17  C   UNL     1       6.828   2.520  12.111  0.00  0.00    +0.000 C 
ATOM     18  C   UNL     1       5.795   1.851  11.223  0.00  0.00    +0.000 C 
ATOM     19  O   UNL     1       4.545   2.511  11.464  0.00  0.00    +0.000 OA
ATOM     20  C   UNL     1       4.798   3.688  12.240  0.00  0.00    +0.000 C 
ENDBRANCH  15  16
ENDBRANCH  10  15
TORSDOF 2
ENDMDL
MODEL 3
REMARK VINA RESULT:      -6.5      3.695      7.335
REMARK  Name = 
REMARK  2 active torsions:
REMARK  status: ('A' for Active; 'I' for Inactive)
REMARK    1  A    between atoms: N_10  and  C_11
REMARK    2  A    between atoms: C_11  and  C_12
REMARK                            x       y       z     vdW  Elec       q    Type
REMARK                         _______ _______ _______ _____ _____    ______ ____
ROOT
ATOM      1  C   UNL     1       0.769  10.144  19.661  0.00  0.00    +0.000 A 
ATOM      2  C   UNL     1       0.992   9.287  20.711  0.00  0.00    +0.000 A 
ATOM      3  N   UNL     1       1.591   8.086  20.586  0.00  0.00    +0.000 NA
ATOM      4  C   UNL     1       1.993   7.723  19.356  0.00  0.00    +0.000 A 
ATOM      5  N   UNL     1       2.695   6.554  19.207  0.00  0.00    +0.000 N 
ATOM      6  C   UNL     1       2.621   5.502  20.200  0.00  0.00    +0.000 C 
ATOM      7  C   UNL     1       3.548   4.412  19.635  0.00  0.00    +0.000 C 
ATOM      8  C   UNL     1       3.705   4.757  18.149  0.00  0.00    +0.000 C 
ATOM      9  C   UNL     1       5.178   4.993  17.704  0.00  0.00    +0.000 C 
ATOM     10  N   UNL     1       4.735   4.585  16.337  0.00  0.00    +0.000 NA
ATOM     11  C   UNL     1       3.762   3.674  17.015  0.00  0.00    +0.000 C 
ATOM     12  C   UNL     1       2.818   5.979  17.885  0.00  0.00    +0.000 C 
ATOM     13  N   UNL     1       1.796   8.493  18.269  0.00  0.00    +0.000 NA
ATOM     14  C   UNL     1       1.197   9.685  18.443  0.00  0.00    +0.000 A 
ENDROOT
BRANCH  10  15
ATOM     15  C   UNL     1       5.823   3.908  15.643  0.00  0.00    +0.000 C 
BRANCH  15  16
ATOM     16  C   UNL     1       6.125   4.528  14.279  0.00  0.00    +0.000 C 
ATOM     17  C   UNL     1       7.518   5.107  14.096  0.00  0.00    +0.000 C 
ATOM     18  C   UNL     1       7.674   5.088  12.587  0.00  0.00    +0.000 C 
ATOM     19  O   UNL     1       6.907   3.978  12.100  0.00  0.00    +0.000 OA
ATOM     20  C   UNL     1       6.101   3.480  13.175  0.00  0.00    +0.000 C 
ENDBRANCH  15  16
ENDBRANCH  10  15
TORSDOF 2
ENDMDL
MODEL 4
REMARK VINA RESULT:      -6.5      0.960      1.079
REMARK  Name = 
REMARK  2 active torsions:
REMARK  status: ('A' for Active; 'I' for Inactive)
REMARK    1  A    between atoms: N_10  and  C_11
REMARK    2  A    between atoms: C_11  and  C_12
REMARK                            x       y       z     vdW  Elec       q    Type
REMARK                         _______ _______ _______ _____ _____    ______ ____
ROOT
ATOM      1  C   UNL     1       7.021   3.845  12.136  0.00  0.00    +0.000 A 
ATOM      2  C   UNL     1       7.922   4.673  12.759  0.00  0.00    +0.000 A 
ATOM      3  N   UNL     1       7.696   5.272  13.945  0.00  0.00    +0.000 NA
ATOM      4  C   UNL     1       6.518   5.030  14.543  0.00  0.00    +0.000 A 
ATOM      5  N   UNL     1       6.294   5.541  15.797  0.00  0.00    +0.000 N 
ATOM      6  C   UNL     1       7.049   6.674  16.292  0.00  0.00    +0.000 C 
ATOM      7  C   UNL     1       6.479   6.894  17.703  0.00  0.00    +0.000 C 
ATOM      8  C   UNL     1       5.135   6.155  17.707  0.00  0.00    +0.000 C 
ATOM      9  C   UNL     1       5.022   5.049  18.796  0.00  0.00    +0.000 C 
ATOM     10  N   UNL     1       3.545   5.270  18.737  0.00  0.00    +0.000 NA
ATOM     11  C   UNL     1       3.855   6.701  18.433  0.00  0.00    +0.000 C 
ATOM     12  C   UNL     1       4.935   5.597  16.293  0.00  0.00    +0.000 C 
ATOM     13  N   UNL     1       5.569   4.247  13.993  0.00  0.00    +0.000 NA
ATOM     14  C   UNL     1       5.840   3.668  12.810  0.00  0.00    +0.000 A 
ENDROOT
BRANCH  10  15
ATOM     15  C   UNL     1       2.955   5.039  20.050  0.00  0.00    +0.000 C 
BRANCH  15  16
ATOM     16  C   UNL     1       1.829   4.005  20.014  0.00  0.00    +0.000 C 
ATOM     17  C   UNL     1       1.244   3.695  18.647  0.00  0.00    +0.000 C 
ATOM     18  C   UNL     1       0.638   2.321  18.866  0.00  0.00    +0.000 C 
ATOM     19  O   UNL     1       1.438   1.664  19.859  0.00  0.00    +0.000 OA
ATOM     20  C   UNL     1       2.326   2.629  20.435  0.00  0.00    +0.000 C 
ENDBRANCH  15  16
ENDBRANCH  10  15
TORSDOF 2
ENDMDL
MODEL 5
REMARK VINA RESULT:      -6.4      4.156      7.258
REMARK  Name = 
REMARK  2 active torsions:
REMARK  status: ('A' for Active; 'I' for Inactive)
REMARK    1  A    between atoms: N_10  and  C_11
REMARK    2  A    between atoms: C_11  and  C_12
REMARK                            x       y       z     vdW  Elec       q    Type
REMARK                         _______ _______ _______ _____ _____    ______ ____
ROOT
ATOM      1  C   UNL     1       1.000  11.501  19.303  0.00  0.00    +0.000 A 
ATOM      2  C   UNL     1       0.633  10.781  20.413  0.00  0.00    +0.000 A 
ATOM      3  N   UNL     1       0.915   9.475  20.588  0.00  0.00    +0.000 NA
ATOM      4  C   UNL     1       1.601   8.856  19.612  0.00  0.00    +0.000 A 
ATOM      5  N   UNL     1       1.992   7.555  19.800  0.00  0.00    +0.000 N 
ATOM      6  C   UNL     1       1.325   6.701  20.761  0.00  0.00    +0.000 C 
ATOM      7  C   UNL     1       2.080   5.367  20.639  0.00  0.00    +0.000 C 
ATOM      8  C   UNL     1       2.809   5.446  19.292  0.00  0.00    +0.000 C 
ATOM      9  C   UNL     1       4.355   5.293  19.396  0.00  0.00    +0.000 C 
ATOM     10  N   UNL     1       4.309   4.792  17.989  0.00  0.00    +0.000 NA
ATOM     11  C   UNL     1       2.968   4.221  18.324  0.00  0.00    +0.000 C 
ATOM     12  C   UNL     1       2.403   6.778  18.649  0.00  0.00    +0.000 C 
ATOM     13  N   UNL     1       1.982   9.481  18.481  0.00  0.00    +0.000 NA
ATOM     14  C   UNL     1       1.682  10.786  18.352  0.00  0.00    +0.000 A 
ENDROOT
BRANCH  10  15
ATOM     15  C   UNL     1       5.358   3.802  17.779  0.00  0.00    +0.000 C 
BRANCH  15  16
ATOM     16  C   UNL     1       6.018   3.929  16.406  0.00  0.00    +0.000 C 
ATOM     17  C   UNL     1       5.255   4.726  15.363  0.00  0.00    +0.000 C 
ATOM     18  C   UNL     1       6.358   5.137  14.407  0.00  0.00    +0.000 C 
ATOM     19  O   UNL     1       7.558   5.267  15.182  0.00  0.00    +0.000 OA
ATOM     20  C   UNL     1       7.314   4.724  16.485  0.00  0.00    +0.000 C 
ENDBRANCH  15  16
ENDBRANCH  10  15
TORSDOF 2
ENDMDL
MODEL 6
REMARK VINA RESULT:      -6.2      4.140      8.028
REMARK  Name = 
REMARK  2 active torsions:
REMARK  status: ('A' for Active; 'I' for Inactive)
REMARK    1  A    between atoms: N_10  and  C_11
REMARK    2  A    between atoms: C_11  and  C_12
REMARK                            x       y       z     vdW  Elec       q    Type
REMARK                         _______ _______ _______ _____ _____    ______ ____
ROOT
ATOM      1  C   UNL     1      -0.041  10.233  21.662  0.00  0.00    +0.000 A 
ATOM      2  C   UNL     1      -0.342   9.007  22.203  0.00  0.00    +0.000 A 
ATOM      3  N   UNL     1       0.209   7.849  21.790  0.00  0.00    +0.000 NA
ATOM      4  C   UNL     1       1.110   7.915  20.795  0.00  0.00    +0.000 A 
ATOM      5  N   UNL     1       1.766   6.770  20.418  0.00  0.00    +0.000 N 
ATOM      6  C   UNL     1       1.218   5.461  20.708  0.00  0.00    +0.000 C 
ATOM      7  C   UNL     1       2.264   4.499  20.120  0.00  0.00    +0.000 C 
ATOM      8  C   UNL     1       3.085   5.352  19.146  0.00  0.00    +0.000 C 
ATOM      9  C   UNL     1       4.607   5.398  19.468  0.00  0.00    +0.000 C 
ATOM     10  N   UNL     1       4.814   5.672  18.014  0.00  0.00    +0.000 NA
ATOM     11  C   UNL     1       3.611   4.819  17.766  0.00  0.00    +0.000 C 
ATOM     12  C   UNL     1       2.452   6.749  19.144  0.00  0.00    +0.000 C 
ATOM     13  N   UNL     1       1.449   9.073  20.195  0.00  0.00    +0.000 NA
ATOM     14  C   UNL     1       0.875  10.204  20.643  0.00  0.00    +0.000 A 
ENDROOT
BRANCH  10  15
ATOM     15  C   UNL     1       6.075   5.091  17.573  0.00  0.00    +0.000 C 
BRANCH  15  16
ATOM     16  C   UNL     1       7.191   6.129  17.454  0.00  0.00    +0.000 C 
ATOM     17  C   UNL     1       6.752   7.565  17.221  0.00  0.00    +0.000 C 
ATOM     18  C   UNL     1       7.953   8.348  17.717  0.00  0.00    +0.000 C 
ATOM     19  O   UNL     1       8.556   7.573  18.761  0.00  0.00    +0.000 OA
ATOM     20  C   UNL     1       7.959   6.270  18.760  0.00  0.00    +0.000 C 
ENDBRANCH  15  16
ENDBRANCH  10  15
TORSDOF 2
ENDMDL
MODEL 7
REMARK VINA RESULT:      -6.1      4.855      7.949
REMARK  Name = 
REMARK  2 active torsions:
REMARK  status: ('A' for Active; 'I' for Inactive)
REMARK    1  A    between atoms: N_10  and  C_11
REMARK    2  A    between atoms: C_11  and  C_12
REMARK                            x       y       z     vdW  Elec       q    Type
REMARK                         _______ _______ _______ _____ _____    ______ ____
ROOT
ATOM      1  C   UNL     1      -0.848  10.557  23.100  0.00  0.00    +0.000 A 
ATOM      2  C   UNL     1      -0.851  11.242  21.910  0.00  0.00    +0.000 A 
ATOM      3  N   UNL     1      -0.216  10.820  20.799  0.00  0.00    +0.000 NA
ATOM      4  C   UNL     1       0.449   9.655  20.874  0.00  0.00    +0.000 A 
ATOM      5  N   UNL     1       1.022   9.145  19.737  0.00  0.00    +0.000 N 
ATOM      6  C   UNL     1       1.334   9.996  18.606  0.00  0.00    +0.000 C 
ATOM      7  C   UNL     1       1.943   9.022  17.584  0.00  0.00    +0.000 C 
ATOM      8  C   UNL     1       2.343   7.788  18.401  0.00  0.00    +0.000 C 
ATOM      9  C   UNL     1       1.668   6.467  17.929  0.00  0.00    +0.000 C 
ATOM     10  N   UNL     1       2.848   5.761  18.515  0.00  0.00    +0.000 NA
ATOM     11  C   UNL     1       3.651   6.964  18.133  0.00  0.00    +0.000 C 
ATOM     12  C   UNL     1       2.024   8.108  19.866  0.00  0.00    +0.000 C 
ATOM     13  N   UNL     1       0.522   8.929  22.007  0.00  0.00    +0.000 NA
ATOM     14  C   UNL     1      -0.131   9.388  23.090  0.00  0.00    +0.000 A 
ENDROOT
BRANCH  10  15
ATOM     15  C   UNL     1       3.143   4.561  17.743  0.00  0.00    +0.000 C 
BRANCH  15  16
ATOM     16  C   UNL     1       3.215   3.306  18.614  0.00  0.00    +0.000 C 
ATOM     17  C   UNL     1       3.432   1.992  17.884  0.00  0.00    +0.000 C 
ATOM     18  C   UNL     1       4.012   1.114  18.977  0.00  0.00    +0.000 C 
ATOM     19  O   UNL     1       4.739   1.975  19.863  0.00  0.00    +0.000 OA
ATOM     20  C   UNL     1       4.432   3.334  19.527  0.00  0.00    +0.000 C 
ENDBRANCH  15  16
ENDBRANCH  10  15
TORSDOF 2
ENDMDL
MODEL 8
REMARK VINA RESULT:      -6.0      2.580      7.081
REMARK  Name = 
REMARK  2 active torsions:
REMARK  status: ('A' for Active; 'I' for Inactive)
REMARK    1  A    between atoms: N_10  and  C_11
REMARK    2  A    between atoms: C_11  and  C_12
REMARK                            x       y       z     vdW  Elec       q    Type
REMARK                         _______ _______ _______ _____ _____    ______ ____
ROOT
ATOM      1  C   UNL     1       1.231   2.973  21.013  0.00  0.00    +0.000 A 
ATOM      2  C   UNL     1       1.750   4.212  21.299  0.00  0.00    +0.000 A 
ATOM      3  N   UNL     1       2.731   4.798  20.586  0.00  0.00    +0.000 NA
ATOM      4  C   UNL     1       3.216   4.120  19.531  0.00  0.00    +0.000 A 
ATOM      5  N   UNL     1       4.144   4.727  18.723  0.00  0.00    +0.000 N 
ATOM      6  C   UNL     1       4.941   5.839  19.199  0.00  0.00    +0.000 C 
ATOM      7  C   UNL     1       5.819   6.194  17.987  0.00  0.00    +0.000 C 
ATOM      8  C   UNL     1       5.764   4.957  17.082  0.00  0.00    +0.000 C 
ATOM      9  C   UNL     1       5.220   5.240  15.651  0.00  0.00    +0.000 C 
ATOM     10  N   UNL     1       6.015   4.052  15.213  0.00  0.00    +0.000 NA
ATOM     11  C   UNL     1       7.000   4.423  16.275  0.00  0.00    +0.000 C 
ATOM     12  C   UNL     1       4.925   3.908  17.822  0.00  0.00    +0.000 C 
ATOM     13  N   UNL     1       2.779   2.892  19.192  0.00  0.00    +0.000 NA
ATOM     14  C   UNL     1       1.796   2.348  19.931  0.00  0.00    +0.000 A 
ENDROOT
BRANCH  10  15
ATOM     15  C   UNL     1       6.487   4.247  13.848  0.00  0.00    +0.000 C 
BRANCH  15  16
ATOM     16  C   UNL     1       6.102   3.092  12.924  0.00  0.00    +0.000 C 
ATOM     17  C   UNL     1       4.833   3.276  12.109  0.00  0.00    +0.000 C 
ATOM     18  C   UNL     1       5.050   2.311  10.959  0.00  0.00    +0.000 C 
ATOM     19  O   UNL     1       6.464   2.243  10.731  0.00  0.00    +0.000 OA
ATOM     20  C   UNL     1       7.130   2.900  11.818  0.00  0.00    +0.000 C 
ENDBRANCH  15  16
ENDBRANCH  10  15
TORSDOF 2
ENDMDL
MODEL 9
REMARK VINA RESULT:      -5.9      1.309      1.576
REMARK  Name = 
REMARK  2 active torsions:
REMARK  status: ('A' for Active; 'I' for Inactive)
REMARK    1  A    between atoms: N_10  and  C_11
REMARK    2  A    between atoms: C_11  and  C_12
REMARK                            x       y       z     vdW  Elec       q    Type
REMARK                         _______ _______ _______ _____ _____    ______ ____
ROOT
ATOM      1  C   UNL     1       5.691   2.942  11.320  0.00  0.00    +0.000 A 
ATOM      2  C   UNL     1       6.927   3.235  11.842  0.00  0.00    +0.000 A 
ATOM      3  N   UNL     1       7.117   3.784  13.058  0.00  0.00    +0.000 NA
ATOM      4  C   UNL     1       6.024   4.049  13.793  0.00  0.00    +0.000 A 
ATOM      5  N   UNL     1       6.184   4.514  15.074  0.00  0.00    +0.000 N 
ATOM      6  C   UNL     1       7.414   5.153  15.493  0.00  0.00    +0.000 C 
ATOM      7  C   UNL     1       7.152   5.500  16.968  0.00  0.00    +0.000 C 
ATOM      8  C   UNL     1       5.628   5.439  17.125  0.00  0.00    +0.000 C 
ATOM      9  C   UNL     1       5.140   4.423  18.198  0.00  0.00    +0.000 C 
ATOM     10  N   UNL     1       3.923   5.282  18.326  0.00  0.00    +0.000 NA
ATOM     11  C   UNL     1       4.812   6.443  18.013  0.00  0.00    +0.000 C 
ATOM     12  C   UNL     1       5.055   5.133  15.736  0.00  0.00    +0.000 C 
ATOM     13  N   UNL     1       4.774   3.812  13.350  0.00  0.00    +0.000 NA
ATOM     14  C   UNL     1       4.633   3.260  12.132  0.00  0.00    +0.000 A 
ENDROOT
BRANCH  10  15
ATOM     15  C   UNL     1       3.430   5.243  19.697  0.00  0.00    +0.000 C 
BRANCH  15  16
ATOM     16  C   UNL     1       2.161   4.403  19.841  0.00  0.00    +0.000 C 
ATOM     17  C   UNL     1       1.589   3.822  18.559  0.00  0.00    +0.000 C 
ATOM     18  C   UNL     1       0.771   2.654  19.076  0.00  0.00    +0.000 C 
ATOM     19  O   UNL     1       1.421   2.182  20.265  0.00  0.00    +0.000 OA
ATOM     20  C   UNL     1       2.424   3.134  20.640  0.00  0.00    +0.000 C 
ENDBRANCH  15  16
ENDBRANCH  10  15
TORSDOF 2
ENDMDL
