MODEL 1
REMARK VINA RESULT:      -7.9      0.000      0.000
REMARK  Name = 
REMARK  9 active torsions:
REMARK  status: ('A' for Active; 'I' for Inactive)
REMARK    1  A    between atoms: N_1  and  C_2
REMARK    2  A    between atoms: C_2  and  C_3
REMARK    3  A    between atoms: C_3  and  C_4
REMARK    4  A    between atoms: C_4  and  N_5
REMARK    5  A    between atoms: N_5  and  C_6
REMARK    6  A    between atoms: N_5  and  C_14
REMARK    7  A    between atoms: C_6  and  C_7
REMARK    8  A    between atoms: C_7  and  C_8
REMARK    9  A    between atoms: C_18  and  O_19
REMARK                            x       y       z     vdW  Elec       q    Type
REMARK                         _______ _______ _______ _____ _____    ______ ____
ROOT
ATOM      1  N   UNL     1       5.878   5.472  17.261  0.00  0.00    +0.000 NA
ENDROOT
BRANCH   1   2
ATOM      2  C   UNL     1       4.389   5.528  17.092  0.00  0.00    +0.000 C 
ATOM      3  C   UNL     1       3.844   6.702  17.965  0.00  0.00    +0.000 C 
ATOM      4  C   UNL     1       2.364   6.591  18.233  0.00  0.00    +0.000 C 
ATOM      5  C   UNL     1       2.147   5.290  18.923  0.00  0.00    +0.000 A 
ATOM      6  C   UNL     1       1.681   5.169  20.218  0.00  0.00    +0.000 A 
ATOM      7  C   UNL     1       1.057   4.006  20.633  0.00  0.00    +0.000 A 
ATOM      8  C   UNL     1       0.943   2.952  19.726  0.00  0.00    +0.000 A 
ATOM      9  C   UNL     1       1.659   2.995  18.520  0.00  0.00    +0.000 A 
ATOM     10  C   UNL     1       2.398   4.140  18.186  0.00  0.00    +0.000 A 
ATOM     11  C   UNL     1       3.482   4.204  17.121  0.00  0.00    +0.000 C 
BRANCH   6  12
ATOM     12  O   UNL     1       1.935   6.150  21.130  0.00  0.00    +0.000 OA
ATOM     13  H   UNL     1       2.778   6.554  20.844  0.00  0.00    +0.000 HD
ENDBRANCH   6  12
ENDBRANCH   1   2
BRANCH   1  14
ATOM     14  C   UNL     1       6.336   5.630  18.669  0.00  0.00    +0.000 C 
BRANCH  14  15
ATOM     15  C   UNL     1       7.829   6.002  18.804  0.00  0.00    +0.000 C 
BRANCH  15  16
ATOM     16  C   UNL     1       8.129   7.458  18.435  0.00  0.00    +0.000 C 
BRANCH  16  17
ATOM     17  N   UNL     1       7.663   7.762  17.086  0.00  0.00    +0.000 NA
ATOM     18  H   UNL     1       7.483   6.893  16.583  0.00  0.00    +0.000 HD
ATOM     19  H   UNL     1       8.400   8.241  16.570  0.00  0.00    +0.000 HD
ENDBRANCH  16  17
ENDBRANCH  15  16
ENDBRANCH  14  15
ENDBRANCH   1  14
BRANCH   1  20
ATOM     20  C   UNL     1       6.572   4.335  16.630  0.00  0.00    +0.000 C 
BRANCH  20  21
ATOM     21  C   UNL     1       5.958   3.584  15.433  0.00  0.00    +0.000 C 
BRANCH  21  22
ATOM     22  C   UNL     1       6.442   4.001  14.070  0.00  0.00    +0.000 A 
ATOM     23  C   UNL     1       7.381   5.053  13.907  0.00  0.00    +0.000 A 
ATOM     24  C   UNL     1       7.871   5.381  12.637  0.00  0.00    +0.000 A 
ATOM     25  C   UNL     1       7.447   4.668  11.517  0.00  0.00    +0.000 A 
ATOM     26  C   UNL     1       6.521   3.637  11.663  0.00  0.00    +0.000 A 
ATOM     27  C   UNL     1       6.024   3.310  12.927  0.00  0.00    +0.000 A 
ENDBRANCH  21  22
ENDBRANCH  20  21
ENDBRANCH   1  20
TORSDOF 9
ENDMDL
MODEL 2
REMARK VINA RESULT:      -7.8      3.539      8.129
REMARK  Name = 
REMARK  9 active torsions:
REMARK  status: ('A' for Active; 'I' for Inactive)
REMARK    1  A    between atoms: N_1  and  C_2
REMARK    2  A    between atoms: C_2  and  C_3
REMARK    3  A    between atoms: C_3  and  C_4
REMARK    4  A    between atoms: C_4  and  N_5
REMARK    5  A    between atoms: N_5  and  C_6
REMARK    6  A    between atoms: N_5  and  C_14
REMARK    7  A    between atoms: C_6  and  C_7
REMARK    8  A    between atoms: C_7  and  C_8
REMARK    9  A    between atoms: C_18  and  O_19
REMARK                            x       y       z     vdW  Elec       q    Type
REMARK                         _______ _______ _______ _____ _____    ______ ____
ROOT
ATOM      1  N   UNL     1       2.265   5.769  19.316  0.00  0.00    +0.000 NA
ENDROOT
BRANCH   1   2
ATOM      2  C   UNL     1       3.365   5.324  18.399  0.00  0.00    +0.000 C 
ATOM      3  C   UNL     1       4.305   4.365  19.196  0.00  0.00    +0.000 C 
ATOM      4  C   UNL     1       5.659   4.205  18.550  0.00  0.00    +0.000 C 
ATOM      5  C   UNL     1       6.259   5.565  18.466  0.00  0.00    +0.000 A 
ATOM      6  C   UNL     1       7.403   5.949  19.139  0.00  0.00    +0.000 A 
ATOM      7  C   UNL     1       8.166   7.006  18.677  0.00  0.00    +0.000 A 
ATOM      8  C   UNL     1       7.736   7.692  17.541  0.00  0.00    +0.000 A 
ATOM      9  C   UNL     1       6.445   7.463  17.041  0.00  0.00    +0.000 A 
ATOM     10  C   UNL     1       5.636   6.474  17.620  0.00  0.00    +0.000 A 
ATOM     11  C   UNL     1       4.133   6.352  17.434  0.00  0.00    +0.000 C 
BRANCH   6  12
ATOM     12  O   UNL     1       7.724   5.365  20.328  0.00  0.00    +0.000 OA
ATOM     13  H   UNL     1       8.397   4.691  20.109  0.00  0.00    +0.000 HD
ENDBRANCH   6  12
ENDBRANCH   1   2
BRANCH   1  14
ATOM     14  C   UNL     1       2.152   4.966  20.565  0.00  0.00    +0.000 C 
BRANCH  14  15
ATOM     15  C   UNL     1       1.002   3.935  20.545  0.00  0.00    +0.000 C 
BRANCH  15  16
ATOM     16  C   UNL     1       1.378   2.592  21.176  0.00  0.00    +0.000 C 
BRANCH  16  17
ATOM     17  N   UNL     1       2.514   2.739  22.080  0.00  0.00    +0.000 NA
ATOM     18  H   UNL     1       2.649   1.872  22.601  0.00  0.00    +0.000 HD
ATOM     19  H   UNL     1       2.309   3.458  22.773  0.00  0.00    +0.000 HD
ENDBRANCH  16  17
ENDBRANCH  15  16
ENDBRANCH  14  15
ENDBRANCH   1  14
BRANCH   1  20
ATOM     20  C   UNL     1       2.213   7.207  19.635  0.00  0.00    +0.000 C 
BRANCH  20  21
ATOM     21  C   UNL     1       1.838   7.703  21.046  0.00  0.00    +0.000 C 
BRANCH  21  22
ATOM     22  C   UNL     1       0.897   8.875  21.107  0.00  0.00    +0.000 A 
ATOM     23  C   UNL     1       0.297   9.282  22.327  0.00  0.00    +0.000 A 
ATOM     24  C   UNL     1      -0.523  10.416  22.376  0.00  0.00    +0.000 A 
ATOM     25  C   UNL     1      -0.749  11.168  21.224  0.00  0.00    +0.000 A 
ATOM     26  C   UNL     1      -0.171  10.775  20.018  0.00  0.00    +0.000 A 
ATOM     27  C   UNL     1       0.642   9.640  19.962  0.00  0.00    +0.000 A 
ENDBRANCH  21  22
ENDBRANCH  20  21
ENDBRANCH   1  20
TORSDOF 9
ENDMDL
MODEL 3
REMARK VINA RESULT:      -7.8      0.906      1.339
REMARK  Name = 
REMARK  9 active torsions:
REMARK  status: ('A' for Active; 'I' for Inactive)
REMARK    1  A    between atoms: N_1  and  C_2
REMARK    2  A    between atoms: C_2  and  C_3
REMARK    3  A    between atoms: C_3  and  C_4
REMARK    4  A    between atoms: C_4  and  N_5
REMARK    5  A    between atoms: N_5  and  C_6
REMARK    6  A    between atoms: N_5  and  C_14
REMARK    7  A    between atoms: C_6  and  C_7
REMARK    8  A    between atoms: C_7  and  C_8
REMARK    9  A    between atoms: C_18  and  O_19
REMARK                            x       y       z     vdW  Elec       q    Type
REMARK                         _______ _______ _______ _____ _____    ______ ____
ROOT
ATOM      1  N   UNL     1       5.963   5.091  16.970  0.00  0.00    +0.000 NA
ENDROOT
BRANCH   1   2
ATOM      2  C   UNL     1       4.476   5.251  16.856  0.00  0.00    +0.000 C 
ATOM      3  C   UNL     1       4.043   6.446  17.762  0.00  0.00    +0.000 C 
ATOM      4  C   UNL     1       2.570   6.433  18.082  0.00  0.00    +0.000 C 
ATOM      5  C   UNL     1       2.289   5.140  18.765  0.00  0.00    +0.000 A 
ATOM      6  C   UNL     1       1.861   5.032  20.074  0.00  0.00    +0.000 A 
ATOM      7  C   UNL     1       1.174   3.909  20.496  0.00  0.00    +0.000 A 
ATOM      8  C   UNL     1       0.956   2.878  19.582  0.00  0.00    +0.000 A 
ATOM      9  C   UNL     1       1.631   2.889  18.351  0.00  0.00    +0.000 A 
ATOM     10  C   UNL     1       2.434   3.986  18.005  0.00  0.00    +0.000 A 
ATOM     11  C   UNL     1       3.481   3.992  16.903  0.00  0.00    +0.000 C 
BRANCH   6  12
ATOM     12  O   UNL     1       2.214   5.980  20.988  0.00  0.00    +0.000 OA
ATOM     13  H   UNL     1       2.671   5.492  21.700  0.00  0.00    +0.000 HD
ENDBRANCH   6  12
ENDBRANCH   1   2
BRANCH   1  14
ATOM     14  C   UNL     1       6.424   4.642  18.314  0.00  0.00    +0.000 C 
BRANCH  14  15
ATOM     15  C   UNL     1       7.373   5.638  19.015  0.00  0.00    +0.000 C 
BRANCH  15  16
ATOM     16  C   UNL     1       7.725   6.853  18.151  0.00  0.00    +0.000 C 
BRANCH  16  17
ATOM     17  N   UNL     1       8.571   7.788  18.885  0.00  0.00    +0.000 NA
ATOM     18  H   UNL     1       9.138   8.323  18.227  0.00  0.00    +0.000 HD
ATOM     19  H   UNL     1       9.227   7.270  19.469  0.00  0.00    +0.000 HD
ENDBRANCH  16  17
ENDBRANCH  15  16
ENDBRANCH  14  15
ENDBRANCH   1  14
BRANCH   1  20
ATOM     20  C   UNL     1       6.625   4.298  15.919  0.00  0.00    +0.000 C 
BRANCH  20  21
ATOM     21  C   UNL     1       6.885   4.883  14.517  0.00  0.00    +0.000 C 
BRANCH  21  22
ATOM     22  C   UNL     1       6.354   4.083  13.358  0.00  0.00    +0.000 A 
ATOM     23  C   UNL     1       7.218   3.330  12.519  0.00  0.00    +0.000 A 
ATOM     24  C   UNL     1       6.699   2.539  11.488  0.00  0.00    +0.000 A 
ATOM     25  C   UNL     1       5.322   2.472  11.281  0.00  0.00    +0.000 A 
ATOM     26  C   UNL     1       4.464   3.211  12.093  0.00  0.00    +0.000 A 
ATOM     27  C   UNL     1       4.977   4.008  13.119  0.00  0.00    +0.000 A 
ENDBRANCH  21  22
ENDBRANCH  20  21
ENDBRANCH   1  20
TORSDOF 9
ENDMDL
MODEL 4
REMARK VINA RESULT:      -7.8      2.173      5.651
REMARK  Name = 
REMARK  9 active torsions:
REMARK  status: ('A' for Active; 'I' for Inactive)
REMARK    1  A    between atoms: N_1  and  C_2
REMARK    2  A    between atoms: C_2  and  C_3
REMARK    3  A    between atoms: C_3  and  C_4
REMARK    4  A    between atoms: C_4  and  N_5
REMARK    5  A    between atoms: N_5  and  C_6
REMARK    6  A    between atoms: N_5  and  C_14
REMARK    7  A    between atoms: C_6  and  C_7
REMARK    8  A    between atoms: C_7  and  C_8
REMARK    9  A    between atoms: C_18  and  O_19
REMARK                            x       y       z     vdW  Elec       q    Type
REMARK                         _______ _______ _______ _____ _____    ______ ____
ROOT
ATOM      1  N   UNL     1       5.518   5.473  17.277  0.00  0.00    +0.000 NA
ENDROOT
BRANCH   1   2
ATOM      2  C   UNL     1       5.183   4.184  17.968  0.00  0.00    +0.000 C 
ATOM      3  C   UNL     1       4.193   3.388  17.062  0.00  0.00    +0.000 C 
ATOM      4  C   UNL     1       3.447   2.315  17.814  0.00  0.00    +0.000 C 
ATOM      5  C   UNL     1       2.708   2.994  18.913  0.00  0.00    +0.000 A 
ATOM      6  C   UNL     1       1.330   3.039  19.008  0.00  0.00    +0.000 A 
ATOM      7  C   UNL     1       0.718   3.239  20.232  0.00  0.00    +0.000 A 
ATOM      8  C   UNL     1       1.523   3.429  21.357  0.00  0.00    +0.000 A 
ATOM      9  C   UNL     1       2.899   3.652  21.194  0.00  0.00    +0.000 A 
ATOM     10  C   UNL     1       3.473   3.577  19.916  0.00  0.00    +0.000 A 
ATOM     11  C   UNL     1       4.838   4.128  19.535  0.00  0.00    +0.000 C 
BRANCH   6  12
ATOM     12  O   UNL     1       0.567   3.002  17.880  0.00  0.00    +0.000 OA
ATOM     13  H   UNL     1       1.160   2.664  17.180  0.00  0.00    +0.000 HD
ENDBRANCH   6  12
ENDBRANCH   1   2
BRANCH   1  14
ATOM     14  C   UNL     1       5.625   5.358  15.796  0.00  0.00    +0.000 C 
BRANCH  14  15
ATOM     15  C   UNL     1       6.918   4.663  15.314  0.00  0.00    +0.000 C 
BRANCH  15  16
ATOM     16  C   UNL     1       7.031   4.580  13.790  0.00  0.00    +0.000 C 
BRANCH  16  17
ATOM     17  N   UNL     1       6.279   3.443  13.270  0.00  0.00    +0.000 NA
ATOM     18  H   UNL     1       5.451   3.779  12.778  0.00  0.00    +0.000 HD
ATOM     19  H   UNL     1       5.938   2.875  14.045  0.00  0.00    +0.000 HD
ENDBRANCH  16  17
ENDBRANCH  15  16
ENDBRANCH  14  15
ENDBRANCH   1  14
BRANCH   1  20
ATOM     20  C   UNL     1       4.700   6.646  17.633  0.00  0.00    +0.000 C 
BRANCH  20  21
ATOM     21  C   UNL     1       3.169   6.639  17.460  0.00  0.00    +0.000 C 
BRANCH  21  22
ATOM     22  C   UNL     1       2.389   7.480  18.435  0.00  0.00    +0.000 A 
ATOM     23  C   UNL     1       2.202   7.073  19.782  0.00  0.00    +0.000 A 
ATOM     24  C   UNL     1       1.531   7.901  20.690  0.00  0.00    +0.000 A 
ATOM     25  C   UNL     1       1.049   9.144  20.283  0.00  0.00    +0.000 A 
ATOM     26  C   UNL     1       1.221   9.552  18.961  0.00  0.00    +0.000 A 
ATOM     27  C   UNL     1       1.883   8.727  18.048  0.00  0.00    +0.000 A 
ENDBRANCH  21  22
ENDBRANCH  20  21
ENDBRANCH   1  20
TORSDOF 9
ENDMDL
MODEL 5
REMARK VINA RESULT:      -7.8      0.201      1.003
REMARK  Name = 
REMARK  9 active torsions:
REMARK  status: ('A' for Active; 'I' for Inactive)
REMARK    1  A    between atoms: N_1  and  C_2
REMARK    2  A    between atoms: C_2  and  C_3
REMARK    3  A    between atoms: C_3  and  C_4
REMARK    4  A    between atoms: C_4  and  N_5
REMARK    5  A    between atoms: N_5  and  C_6
REMARK    6  A    between atoms: N_5  and  C_14
REMARK    7  A    between atoms: C_6  and  C_7
REMARK    8  A    between atoms: C_7  and  C_8
REMARK    9  A    between atoms: C_18  and  O_19
REMARK                            x       y       z     vdW  Elec       q    Type
REMARK                         _______ _______ _______ _____ _____    ______ ____
ROOT
ATOM      1  N   UNL     1       5.889   5.305  17.304  0.00  0.00    +0.000 NA
ENDROOT
BRANCH   1   2
ATOM      2  C   UNL     1       4.407   5.486  17.161  0.00  0.00    +0.000 C 
ATOM      3  C   UNL     1       3.962   6.635  18.120  0.00  0.00    +0.000 C 
ATOM      4  C   UNL     1       2.481   6.619  18.402  0.00  0.00    +0.000 C 
ATOM      5  C   UNL     1       2.171   5.294  19.006  0.00  0.00    +0.000 A 
ATOM      6  C   UNL     1       1.709   5.120  20.296  0.00  0.00    +0.000 A 
ATOM      7  C   UNL     1       1.002   3.983  20.640  0.00  0.00    +0.000 A 
ATOM      8  C   UNL     1       0.799   3.005  19.666  0.00  0.00    +0.000 A 
ATOM      9  C   UNL     1       1.504   3.076  18.455  0.00  0.00    +0.000 A 
ATOM     10  C   UNL     1       2.326   4.181  18.189  0.00  0.00    +0.000 A 
ATOM     11  C   UNL     1       3.401   4.236  17.115  0.00  0.00    +0.000 C 
BRANCH   6  12
ATOM     12  O   UNL     1       2.047   6.014  21.269  0.00  0.00    +0.000 OA
ATOM     13  H   UNL     1       2.812   5.616  21.728  0.00  0.00    +0.000 HD
ENDBRANCH   6  12
ENDBRANCH   1   2
BRANCH   1  14
ATOM     14  C   UNL     1       6.379   5.388  18.708  0.00  0.00    +0.000 C 
BRANCH  14  15
ATOM     15  C   UNL     1       7.765   6.054  18.849  0.00  0.00    +0.000 C 
BRANCH  15  16
ATOM     16  C   UNL     1       7.823   7.466  18.259  0.00  0.00    +0.000 C 
BRANCH  16  17
ATOM     17  N   UNL     1       7.839   7.423  16.801  0.00  0.00    +0.000 NA
ATOM     18  H   UNL     1       7.535   6.503  16.483  0.00  0.00    +0.000 HD
ATOM     19  H   UNL     1       8.795   7.537  16.465  0.00  0.00    +0.000 HD
ENDBRANCH  16  17
ENDBRANCH  15  16
ENDBRANCH  14  15
ENDBRANCH   1  14
BRANCH   1  20
ATOM     20  C   UNL     1       6.479   4.133  16.633  0.00  0.00    +0.000 C 
BRANCH  20  21
ATOM     21  C   UNL     1       5.855   3.542  15.353  0.00  0.00    +0.000 C 
BRANCH  21  22
ATOM     22  C   UNL     1       6.485   3.965  14.054  0.00  0.00    +0.000 A 
ATOM     23  C   UNL     1       6.136   3.347  12.824  0.00  0.00    +0.000 A 
ATOM     24  C   UNL     1       6.682   3.799  11.618  0.00  0.00    +0.000 A 
ATOM     25  C   UNL     1       7.569   4.875  11.609  0.00  0.00    +0.000 A 
ATOM     26  C   UNL     1       7.925   5.487  12.810  0.00  0.00    +0.000 A 
ATOM     27  C   UNL     1       7.388   5.034  14.018  0.00  0.00    +0.000 A 
ENDBRANCH  21  22
ENDBRANCH  20  21
ENDBRANCH   1  20
TORSDOF 9
ENDMDL
MODEL 6
REMARK VINA RESULT:      -7.7      0.795      1.336
REMARK  Name = 
REMARK  9 active torsions:
REMARK  status: ('A' for Active; 'I' for Inactive)
REMARK    1  A    between atoms: N_1  and  C_2
REMARK    2  A    between atoms: C_2  and  C_3
REMARK    3  A    between atoms: C_3  and  C_4
REMARK    4  A    between atoms: C_4  and  N_5
REMARK    5  A    between atoms: N_5  and  C_6
REMARK    6  A    between atoms: N_5  and  C_14
REMARK    7  A    between atoms: C_6  and  C_7
REMARK    8  A    between atoms: C_7  and  C_8
REMARK    9  A    between atoms: C_18  and  O_19
REMARK                            x       y       z     vdW  Elec       q    Type
REMARK                         _______ _______ _______ _____ _____    ______ ____
ROOT
ATOM      1  N   UNL     1       5.891   5.080  17.021  0.00  0.00    +0.000 NA
ENDROOT
BRANCH   1   2
ATOM      2  C   UNL     1       4.398   5.175  16.911  0.00  0.00    +0.000 C 
ATOM      3  C   UNL     1       3.922   6.384  17.776  0.00  0.00    +0.000 C 
ATOM      4  C   UNL     1       2.452   6.322  18.107  0.00  0.00    +0.000 C 
ATOM      5  C   UNL     1       2.228   5.045  18.838  0.00  0.00    +0.000 A 
ATOM      6  C   UNL     1       1.812   4.969  20.154  0.00  0.00    +0.000 A 
ATOM      7  C   UNL     1       1.175   3.834  20.622  0.00  0.00    +0.000 A 
ATOM      8  C   UNL     1       0.994   2.762  19.748  0.00  0.00    +0.000 A 
ATOM      9  C   UNL     1       1.661   2.756  18.512  0.00  0.00    +0.000 A 
ATOM     10  C   UNL     1       2.417   3.871  18.120  0.00  0.00    +0.000 A 
ATOM     11  C   UNL     1       3.456   3.879  17.011  0.00  0.00    +0.000 C 
BRANCH   6  12
ATOM     12  O   UNL     1       2.131   5.963  21.029  0.00  0.00    +0.000 OA
ATOM     13  H   UNL     1       2.161   5.533  21.907  0.00  0.00    +0.000 HD
ENDBRANCH   6  12
ENDBRANCH   1   2
BRANCH   1  14
ATOM     14  C   UNL     1       6.379   4.739  18.386  0.00  0.00    +0.000 C 
BRANCH  14  15
ATOM     15  C   UNL     1       7.121   5.895  19.092  0.00  0.00    +0.000 C 
BRANCH  15  16
ATOM     16  C   UNL     1       7.982   6.734  18.144  0.00  0.00    +0.000 C 
BRANCH  16  17
ATOM     17  N   UNL     1       7.162   7.675  17.388  0.00  0.00    +0.000 NA
ATOM     18  H   UNL     1       7.336   8.623  17.722  0.00  0.00    +0.000 HD
ATOM     19  H   UNL     1       6.175   7.488  17.566  0.00  0.00    +0.000 HD
ENDBRANCH  16  17
ENDBRANCH  15  16
ENDBRANCH  14  15
ENDBRANCH   1  14
BRANCH   1  20
ATOM     20  C   UNL     1       6.576   4.246  16.018  0.00  0.00    +0.000 C 
BRANCH  20  21
ATOM     21  C   UNL     1       6.902   4.786  14.612  0.00  0.00    +0.000 C 
BRANCH  21  22
ATOM     22  C   UNL     1       6.344   4.003  13.455  0.00  0.00    +0.000 A 
ATOM     23  C   UNL     1       4.946   3.906  13.230  0.00  0.00    +0.000 A 
ATOM     24  C   UNL     1       4.448   3.229  12.110  0.00  0.00    +0.000 A 
ATOM     25  C   UNL     1       5.325   2.651  11.194  0.00  0.00    +0.000 A 
ATOM     26  C   UNL     1       6.700   2.733  11.407  0.00  0.00    +0.000 A 
ATOM     27  C   UNL     1       7.202   3.401  12.527  0.00  0.00    +0.000 A 
ENDBRANCH  21  22
ENDBRANCH  20  21
ENDBRANCH   1  20
TORSDOF 9
ENDMDL
MODEL 7
REMARK VINA RESULT:      -7.7      1.603      2.193
REMARK  Name = 
REMARK  9 active torsions:
REMARK  status: ('A' for Active; 'I' for Inactive)
REMARK    1  A    between atoms: N_1  and  C_2
REMARK    2  A    between atoms: C_2  and  C_3
REMARK    3  A    between atoms: C_3  and  C_4
REMARK    4  A    between atoms: C_4  and  N_5
REMARK    5  A    between atoms: N_5  and  C_6
REMARK    6  A    between atoms: N_5  and  C_14
REMARK    7  A    between atoms: C_6  and  C_7
REMARK    8  A    between atoms: C_7  and  C_8
REMARK    9  A    between atoms: C_18  and  O_19
REMARK                            x       y       z     vdW  Elec       q    Type
REMARK                         _______ _______ _______ _____ _____    ______ ____
ROOT
ATOM      1  N   UNL     1       6.455   5.844  15.753  0.00  0.00    +0.000 NA
ENDROOT
BRANCH   1   2
ATOM      2  C   UNL     1       4.993   5.566  15.936  0.00  0.00    +0.000 C 
ATOM      3  C   UNL     1       4.426   6.594  16.965  0.00  0.00    +0.000 C 
ATOM      4  C   UNL     1       3.112   6.158  17.563  0.00  0.00    +0.000 C 
ATOM      5  C   UNL     1       3.354   4.846  18.224  0.00  0.00    +0.000 A 
ATOM      6  C   UNL     1       3.244   4.632  19.584  0.00  0.00    +0.000 A 
ATOM      7  C   UNL     1       3.005   3.362  20.077  0.00  0.00    +0.000 A 
ATOM      8  C   UNL     1       2.913   2.303  19.173  0.00  0.00    +0.000 A 
ATOM      9  C   UNL     1       3.297   2.497  17.837  0.00  0.00    +0.000 A 
ATOM     10  C   UNL     1       3.668   3.776  17.395  0.00  0.00    +0.000 A 
ATOM     11  C   UNL     1       4.429   4.073  16.113  0.00  0.00    +0.000 C 
BRANCH   6  12
ATOM     12  O   UNL     1       3.486   5.651  20.457  0.00  0.00    +0.000 OA
ATOM     13  H   UNL     1       3.888   5.227  21.241  0.00  0.00    +0.000 HD
ENDBRANCH   6  12
ENDBRANCH   1   2
BRANCH   1  14
ATOM     14  C   UNL     1       7.170   6.188  17.013  0.00  0.00    +0.000 C 
BRANCH  14  15
ATOM     15  C   UNL     1       7.342   4.997  17.982  0.00  0.00    +0.000 C 
BRANCH  15  16
ATOM     16  C   UNL     1       6.868   5.299  19.406  0.00  0.00    +0.000 C 
BRANCH  16  17
ATOM     17  N   UNL     1       8.001   5.448  20.313  0.00  0.00    +0.000 NA
ATOM     18  H   UNL     1       7.801   4.969  21.191  0.00  0.00    +0.000 HD
ATOM     19  H   UNL     1       8.124   6.432  20.547  0.00  0.00    +0.000 HD
ENDBRANCH  16  17
ENDBRANCH  15  16
ENDBRANCH  14  15
ENDBRANCH   1  14
BRANCH   1  20
ATOM     20  C   UNL     1       7.227   4.846  14.992  0.00  0.00    +0.000 C 
BRANCH  20  21
ATOM     21  C   UNL     1       7.413   4.968  13.467  0.00  0.00    +0.000 C 
BRANCH  21  22
ATOM     22  C   UNL     1       6.671   3.963  12.627  0.00  0.00    +0.000 A 
ATOM     23  C   UNL     1       7.352   2.927  11.936  0.00  0.00    +0.000 A 
ATOM     24  C   UNL     1       6.639   1.961  11.216  0.00  0.00    +0.000 A 
ATOM     25  C   UNL     1       5.246   2.001  11.179  0.00  0.00    +0.000 A 
ATOM     26  C   UNL     1       4.565   3.016  11.848  0.00  0.00    +0.000 A 
ATOM     27  C   UNL     1       5.273   3.987  12.563  0.00  0.00    +0.000 A 
ENDBRANCH  21  22
ENDBRANCH  20  21
ENDBRANCH   1  20
TORSDOF 9
ENDMDL
MODEL 8
REMARK VINA RESULT:      -7.7      2.180      5.624
REMARK  Name = 
REMARK  9 active torsions:
REMARK  status: ('A' for Active; 'I' for Inactive)
REMARK    1  A    between atoms: N_1  and  C_2
REMARK    2  A    between atoms: C_2  and  C_3
REMARK    3  A    between atoms: C_3  and  C_4
REMARK    4  A    between atoms: C_4  and  N_5
REMARK    5  A    between atoms: N_5  and  C_6
REMARK    6  A    between atoms: N_5  and  C_14
REMARK    7  A    between atoms: C_6  and  C_7
REMARK    8  A    between atoms: C_7  and  C_8
REMARK    9  A    between atoms: C_18  and  O_19
REMARK                            x       y       z     vdW  Elec       q    Type
REMARK                         _______ _______ _______ _____ _____    ______ ____
ROOT
ATOM      1  N   UNL     1       5.475   5.812  17.111  0.00  0.00    +0.000 NA
ENDROOT
BRANCH   1   2
ATOM      2  C   UNL     1       5.189   4.492  17.762  0.00  0.00    +0.000 C 
ATOM      3  C   UNL     1       4.172   3.718  16.866  0.00  0.00    +0.000 C 
ATOM      4  C   UNL     1       3.474   2.604  17.605  0.00  0.00    +0.000 C 
ATOM      5  C   UNL     1       2.773   3.226  18.762  0.00  0.00    +0.000 A 
ATOM      6  C   UNL     1       1.400   3.245  18.916  0.00  0.00    +0.000 A 
ATOM      7  C   UNL     1       0.839   3.386  20.172  0.00  0.00    +0.000 A 
ATOM      8  C   UNL     1       1.688   3.543  21.268  0.00  0.00    +0.000 A 
ATOM      9  C   UNL     1       3.053   3.794  21.057  0.00  0.00    +0.000 A 
ATOM     10  C   UNL     1       3.572   3.780  19.754  0.00  0.00    +0.000 A 
ATOM     11  C   UNL     1       4.912   4.367  19.339  0.00  0.00    +0.000 C 
BRANCH   6  12
ATOM     12  O   UNL     1       0.590   3.242  17.821  0.00  0.00    +0.000 OA
ATOM     13  H   UNL     1      -0.320   3.202  18.175  0.00  0.00    +0.000 HD
ENDBRANCH   6  12
ENDBRANCH   1   2
BRANCH   1  14
ATOM     14  C   UNL     1       5.716   5.727  15.643  0.00  0.00    +0.000 C 
BRANCH  14  15
ATOM     15  C   UNL     1       6.974   4.915  15.262  0.00  0.00    +0.000 C 
BRANCH  15  16
ATOM     16  C   UNL     1       7.185   4.796  13.750  0.00  0.00    +0.000 C 
BRANCH  16  17
ATOM     17  N   UNL     1       8.228   5.708  13.294  0.00  0.00    +0.000 NA
ATOM     18  H   UNL     1       8.667   5.331  12.454  0.00  0.00    +0.000 HD
ATOM     19  H   UNL     1       8.963   5.766  13.998  0.00  0.00    +0.000 HD
ENDBRANCH  16  17
ENDBRANCH  15  16
ENDBRANCH  14  15
ENDBRANCH   1  14
BRANCH   1  20
ATOM     20  C   UNL     1       4.539   6.911  17.404  0.00  0.00    +0.000 C 
BRANCH  20  21
ATOM     21  C   UNL     1       3.044   6.643  17.668  0.00  0.00    +0.000 C 
BRANCH  21  22
ATOM     22  C   UNL     1       2.343   7.627  18.565  0.00  0.00    +0.000 A 
ATOM     23  C   UNL     1       1.863   8.869  18.073  0.00  0.00    +0.000 A 
ATOM     24  C   UNL     1       1.154   9.741  18.907  0.00  0.00    +0.000 A 
ATOM     25  C   UNL     1       0.901   9.392  20.233  0.00  0.00    +0.000 A 
ATOM     26  C   UNL     1       1.372   8.178  20.731  0.00  0.00    +0.000 A 
ATOM     27  C   UNL     1       2.086   7.307  19.904  0.00  0.00    +0.000 A 
ENDBRANCH  21  22
ENDBRANCH  20  21
ENDBRANCH   1  20
TORSDOF 9
ENDMDL
MODEL 9
REMARK VINA RESULT:      -7.7      2.821      7.312
REMARK  Name = 
REMARK  9 active torsions:
REMARK  status: ('A' for Active; 'I' for Inactive)
REMARK    1  A    between atoms: N_1  and  C_2
REMARK    2  A    between atoms: C_2  and  C_3
REMARK    3  A    between atoms: C_3  and  C_4
REMARK    4  A    between atoms: C_4  and  N_5
REMARK    5  A    between atoms: N_5  and  C_6
REMARK    6  A    between atoms: N_5  and  C_14
REMARK    7  A    between atoms: C_6  and  C_7
REMARK    8  A    between atoms: C_7  and  C_8
REMARK    9  A    between atoms: C_18  and  O_19
REMARK                            x       y       z     vdW  Elec       q    Type
REMARK                         _______ _______ _______ _____ _____    ______ ____
ROOT
ATOM      1  N   UNL     1       3.158   4.721  19.120  0.00  0.00    +0.000 NA
ENDROOT
BRANCH   1   2
ATOM      2  C   UNL     1       4.385   4.006  18.637  0.00  0.00    +0.000 C 
ATOM      3  C   UNL     1       5.629   4.878  18.994  0.00  0.00    +0.000 C 
ATOM      4  C   UNL     1       6.851   4.507  18.192  0.00  0.00    +0.000 C 
ATOM      5  C   UNL     1       6.494   4.681  16.757  0.00  0.00    +0.000 A 
ATOM      6  C   UNL     1       7.085   5.606  15.919  0.00  0.00    +0.000 A 
ATOM      7  C   UNL     1       7.080   5.415  14.549  0.00  0.00    +0.000 A 
ATOM      8  C   UNL     1       6.436   4.288  14.036  0.00  0.00    +0.000 A 
ATOM      9  C   UNL     1       5.616   3.517  14.875  0.00  0.00    +0.000 A 
ATOM     10  C   UNL     1       5.534   3.820  16.242  0.00  0.00    +0.000 A 
ATOM     11  C   UNL     1       4.451   3.322  17.186  0.00  0.00    +0.000 C 
BRANCH   6  12
ATOM     12  O   UNL     1       7.576   6.772  16.426  0.00  0.00    +0.000 OA
ATOM     13  H   UNL     1       8.531   6.613  16.558  0.00  0.00    +0.000 HD
ENDBRANCH   6  12
ENDBRANCH   1   2
BRANCH   1  14
ATOM     14  C   UNL     1       2.490   4.065  20.279  0.00  0.00    +0.000 C 
BRANCH  14  15
ATOM     15  C   UNL     1       0.984   3.799  20.064  0.00  0.00    +0.000 C 
BRANCH  15  16
ATOM     16  C   UNL     1       0.701   2.710  19.025  0.00  0.00    +0.000 C 
BRANCH  16  17
ATOM     17  N   UNL     1       1.753   1.699  19.027  0.00  0.00    +0.000 NA
ATOM     18  H   UNL     1       1.991   1.457  19.989  0.00  0.00    +0.000 HD
ATOM     19  H   UNL     1       2.601   2.087  18.614  0.00  0.00    +0.000 HD
ENDBRANCH  16  17
ENDBRANCH  15  16
ENDBRANCH  14  15
ENDBRANCH   1  14
BRANCH   1  20
ATOM     20  C   UNL     1       3.290   6.167  19.367  0.00  0.00    +0.000 C 
BRANCH  20  21
ATOM     21  C   UNL     1       2.815   7.205  18.331  0.00  0.00    +0.000 C 
BRANCH  21  22
ATOM     22  C   UNL     1       1.889   8.275  18.842  0.00  0.00    +0.000 A 
ATOM     23  C   UNL     1       1.301   9.226  17.968  0.00  0.00    +0.000 A 
ATOM     24  C   UNL     1       0.389  10.172  18.452  0.00  0.00    +0.000 A 
ATOM     25  C   UNL     1       0.039  10.181  19.801  0.00  0.00    +0.000 A 
ATOM     26  C   UNL     1       0.614   9.257  20.671  0.00  0.00    +0.000 A 
ATOM     27  C   UNL     1       1.530   8.315  20.194  0.00  0.00    +0.000 A 
ENDBRANCH  21  22
ENDBRANCH  20  21
ENDBRANCH   1  20
TORSDOF 9
ENDMDL
