MODEL 1
REMARK VINA RESULT:      -7.2      0.000      0.000
REMARK  Name = 
REMARK  7 active torsions:
REMARK  status: ('A' for Active; 'I' for Inactive)
REMARK    1  A    between atoms: N_5  and  C_6
REMARK    2  A    between atoms: C_8  and  C_9
REMARK    3  A    between atoms: C_9  and  O_10
REMARK    4  A    between atoms: N_11  and  C_12
REMARK    5  A    between atoms: C_12  and  P_13
REMARK    6  A    between atoms: P_13  and  O_15
REMARK    7  A    between atoms: P_13  and  O_16
REMARK                            x       y       z     vdW  Elec       q    Type
REMARK                         _______ _______ _______ _____ _____    ______ ____
ROOT
ATOM      1  C   UNL     1       5.558   5.090  18.025  0.00  0.00    +0.000 C 
ATOM      2  C   UNL     1       4.493   6.182  18.111  0.00  0.00    +0.000 C 
ATOM      3  C   UNL     1       3.656   5.821  19.325  0.00  0.00    +0.000 C 
ATOM      4  N   UNL     1       3.542   4.340  19.268  0.00  0.00    +0.000 NA
ATOM      5  C   UNL     1       4.858   3.885  18.727  0.00  0.00    +0.000 C 
ENDROOT
BRANCH   1  10
ATOM      6  O   UNL     1       7.243   4.576  12.806  0.00  0.00    +0.000 OA
ATOM      7  C   UNL     1       6.891   4.677  13.974  0.00  0.00    +0.000 A 
ATOM      8  C   UNL     1       5.705   3.971  14.470  0.00  0.00    +0.000 A 
ATOM      9  C   UNL     1       5.356   4.119  15.748  0.00  0.00    +0.000 A 
ATOM     10  N   UNL     1       6.075   4.907  16.642  0.00  0.00    +0.000 N 
ATOM     11  C   UNL     1       7.113   5.711  16.171  0.00  0.00    +0.000 A 
ATOM     12  O   UNL     1       7.655   6.607  16.815  0.00  0.00    +0.000 OA
ATOM     13  N   UNL     1       7.531   5.457  14.889  0.00  0.00    +0.000 N 
ATOM     14  H   UNL     1       8.302   6.009  14.551  0.00  0.00    +0.000 HD
ENDBRANCH   1  10
BRANCH   3  15
ATOM     15  C   UNL     1       2.389   6.707  19.386  0.00  0.00    +0.000 C 
BRANCH  15  16
ATOM     16  O   UNL     1       2.152   7.246  20.688  0.00  0.00    +0.000 OA
ATOM     17  H   UNL     1       2.790   7.963  20.841  0.00  0.00    +0.000 HD
ENDBRANCH  15  16
ENDBRANCH   3  15
BRANCH   4  18
ATOM     18  C   UNL     1       2.441   3.875  18.397  0.00  0.00    +0.000 C 
BRANCH  18  19
ATOM     19  P   UNL     1       1.177   2.944  19.302  0.00  0.00    +0.000 P 
ATOM     20  O   UNL     1       0.236   2.103  18.503  0.00  0.00    +0.000 OA
BRANCH  19  21
ATOM     21  O   UNL     1       2.047   2.062  20.335  0.00  0.00    +0.000 OA
ATOM     22  H   UNL     1       2.257   1.162  20.025  0.00  0.00    +0.000 HD
ENDBRANCH  19  21
BRANCH  19  23
ATOM     23  O   UNL     1       0.430   3.887  20.359  0.00  0.00    +0.000 OA
ATOM     24  H   UNL     1       1.026   4.069  21.113  0.00  0.00    +0.000 HD
ENDBRANCH  19  23
ENDBRANCH  18  19
ENDBRANCH   4  18
TORSDOF 7
ENDMDL
MODEL 2
REMARK VINA RESULT:      -7.2      0.544      1.211
REMARK  Name = 
REMARK  7 active torsions:
REMARK  status: ('A' for Active; 'I' for Inactive)
REMARK    1  A    between atoms: N_5  and  C_6
REMARK    2  A    between atoms: C_8  and  C_9
REMARK    3  A    between atoms: C_9  and  O_10
REMARK    4  A    between atoms: N_11  and  C_12
REMARK    5  A    between atoms: C_12  and  P_13
REMARK    6  A    between atoms: P_13  and  O_15
REMARK    7  A    between atoms: P_13  and  O_16
REMARK                            x       y       z     vdW  Elec       q    Type
REMARK                         _______ _______ _______ _____ _____    ______ ____
ROOT
ATOM      1  C   UNL     1       5.475   5.213  18.097  0.00  0.00    +0.000 C 
ATOM      2  C   UNL     1       4.414   6.312  18.145  0.00  0.00    +0.000 C 
ATOM      3  C   UNL     1       3.610   6.028  19.401  0.00  0.00    +0.000 C 
ATOM      4  N   UNL     1       3.492   4.547  19.438  0.00  0.00    +0.000 NA
ATOM      5  C   UNL     1       4.792   4.055  18.889  0.00  0.00    +0.000 C 
ENDROOT
BRANCH   1  10
ATOM      6  O   UNL     1       7.022   4.390  12.874  0.00  0.00    +0.000 OA
ATOM      7  C   UNL     1       6.700   4.558  14.043  0.00  0.00    +0.000 A 
ATOM      8  C   UNL     1       5.488   3.940  14.591  0.00  0.00    +0.000 A 
ATOM      9  C   UNL     1       5.173   4.160  15.867  0.00  0.00    +0.000 A 
ATOM     10  N   UNL     1       5.952   4.944  16.713  0.00  0.00    +0.000 N 
ATOM     11  C   UNL     1       7.023   5.669  16.190  0.00  0.00    +0.000 A 
ATOM     12  O   UNL     1       7.625   6.560  16.785  0.00  0.00    +0.000 OA
ATOM     13  N   UNL     1       7.400   5.339  14.912  0.00  0.00    +0.000 N 
ATOM     14  H   UNL     1       8.193   5.833  14.537  0.00  0.00    +0.000 HD
ENDBRANCH   1  10
BRANCH   3  15
ATOM     15  C   UNL     1       2.347   6.920  19.443  0.00  0.00    +0.000 C 
BRANCH  15  16
ATOM     16  O   UNL     1       1.889   7.171  20.774  0.00  0.00    +0.000 OA
ATOM     17  H   UNL     1       1.344   6.418  21.054  0.00  0.00    +0.000 HD
ENDBRANCH  15  16
ENDBRANCH   3  15
BRANCH   4  18
ATOM     18  C   UNL     1       2.366   4.033  18.628  0.00  0.00    +0.000 C 
BRANCH  18  19
ATOM     19  P   UNL     1       1.736   2.445  19.231  0.00  0.00    +0.000 P 
ATOM     20  O   UNL     1       1.588   2.277  20.707  0.00  0.00    +0.000 OA
BRANCH  19  21
ATOM     21  O   UNL     1       0.325   2.300  18.461  0.00  0.00    +0.000 OA
ATOM     22  H   UNL     1       0.324   1.657  17.730  0.00  0.00    +0.000 HD
ENDBRANCH  19  21
BRANCH  19  23
ATOM     23  O   UNL     1       2.515   1.230  18.537  0.00  0.00    +0.000 OA
ATOM     24  H   UNL     1       3.467   1.446  18.472  0.00  0.00    +0.000 HD
ENDBRANCH  19  23
ENDBRANCH  18  19
ENDBRANCH   4  18
TORSDOF 7
ENDMDL
MODEL 3
REMARK VINA RESULT:      -7.0      1.030      1.111
REMARK  Name = 
REMARK  7 active torsions:
REMARK  status: ('A' for Active; 'I' for Inactive)
REMARK    1  A    between atoms: N_5  and  C_6
REMARK    2  A    between atoms: C_8  and  C_9
REMARK    3  A    between atoms: C_9  and  O_10
REMARK    4  A    between atoms: N_11  and  C_12
REMARK    5  A    between atoms: C_12  and  P_13
REMARK    6  A    between atoms: P_13  and  O_15
REMARK    7  A    between atoms: P_13  and  O_16
REMARK                            x       y       z     vdW  Elec       q    Type
REMARK                         _______ _______ _______ _____ _____    ______ ____
ROOT
ATOM      1  C   UNL     1       5.377   5.125  18.476  0.00  0.00    +0.000 C 
ATOM      2  C   UNL     1       4.351   6.253  18.570  0.00  0.00    +0.000 C 
ATOM      3  C   UNL     1       3.448   5.869  19.728  0.00  0.00    +0.000 C 
ATOM      4  N   UNL     1       3.281   4.398  19.595  0.00  0.00    +0.000 NA
ATOM      5  C   UNL     1       4.602   3.917  19.088  0.00  0.00    +0.000 C 
ENDROOT
BRANCH   1  10
ATOM      6  O   UNL     1       7.518   4.909  13.405  0.00  0.00    +0.000 OA
ATOM      7  C   UNL     1       7.041   4.929  14.533  0.00  0.00    +0.000 A 
ATOM      8  C   UNL     1       5.686   5.435  14.772  0.00  0.00    +0.000 A 
ATOM      9  C   UNL     1       5.214   5.447  16.019  0.00  0.00    +0.000 A 
ATOM     10  N   UNL     1       5.947   4.987  17.108  0.00  0.00    +0.000 N 
ATOM     11  C   UNL     1       7.289   4.644  16.942  0.00  0.00    +0.000 A 
ATOM     12  O   UNL     1       8.083   4.452  17.859  0.00  0.00    +0.000 OA
ATOM     13  N   UNL     1       7.718   4.525  15.643  0.00  0.00    +0.000 N 
ATOM     14  H   UNL     1       8.676   4.245  15.512  0.00  0.00    +0.000 HD
ENDBRANCH   1  10
BRANCH   3  15
ATOM     15  C   UNL     1       2.213   6.800  19.778  0.00  0.00    +0.000 C 
BRANCH  15  16
ATOM     16  O   UNL     1       1.802   7.104  21.113  0.00  0.00    +0.000 OA
ATOM     17  H   UNL     1       1.447   8.008  21.124  0.00  0.00    +0.000 HD
ENDBRANCH  15  16
ENDBRANCH   3  15
BRANCH   4  18
ATOM     18  C   UNL     1       2.203   4.018  18.656  0.00  0.00    +0.000 C 
BRANCH  18  19
ATOM     19  P   UNL     1       1.434   2.432  19.077  0.00  0.00    +0.000 P 
ATOM     20  O   UNL     1       0.076   2.155  18.520  0.00  0.00    +0.000 OA
BRANCH  19  21
ATOM     21  O   UNL     1       2.524   1.356  18.573  0.00  0.00    +0.000 OA
ATOM     22  H   UNL     1       2.594   1.269  17.605  0.00  0.00    +0.000 HD
ENDBRANCH  19  21
BRANCH  19  23
ATOM     23  O   UNL     1       1.533   2.157  20.651  0.00  0.00    +0.000 OA
ATOM     24  H   UNL     1       0.811   2.630  21.112  0.00  0.00    +0.000 HD
ENDBRANCH  19  23
ENDBRANCH  18  19
ENDBRANCH   4  18
TORSDOF 7
ENDMDL
MODEL 4
REMARK VINA RESULT:      -6.9      2.756      6.227
REMARK  Name = 
REMARK  7 active torsions:
REMARK  status: ('A' for Active; 'I' for Inactive)
REMARK    1  A    between atoms: N_5  and  C_6
REMARK    2  A    between atoms: C_8  and  C_9
REMARK    3  A    between atoms: C_9  and  O_10
REMARK    4  A    between atoms: N_11  and  C_12
REMARK    5  A    between atoms: C_12  and  P_13
REMARK    6  A    between atoms: P_13  and  O_15
REMARK    7  A    between atoms: P_13  and  O_16
REMARK                            x       y       z     vdW  Elec       q    Type
REMARK                         _______ _______ _______ _____ _____    ______ ____
ROOT
ATOM      1  C   UNL     1       3.497   5.496  19.612  0.00  0.00    +0.000 C 
ATOM      2  C   UNL     1       2.873   4.337  18.836  0.00  0.00    +0.000 C 
ATOM      3  C   UNL     1       3.953   3.272  18.783  0.00  0.00    +0.000 C 
ATOM      4  N   UNL     1       5.212   4.031  18.570  0.00  0.00    +0.000 NA
ATOM      5  C   UNL     1       5.021   5.296  19.343  0.00  0.00    +0.000 C 
ENDROOT
BRANCH   1  10
ATOM      6  O   UNL     1       1.027  10.204  18.167  0.00  0.00    +0.000 OA
ATOM      7  C   UNL     1       1.592   9.171  18.507  0.00  0.00    +0.000 A 
ATOM      8  C   UNL     1       2.486   8.461  17.587  0.00  0.00    +0.000 A 
ATOM      9  C   UNL     1       3.070   7.335  17.998  0.00  0.00    +0.000 A 
ATOM     10  N   UNL     1       2.880   6.806  19.271  0.00  0.00    +0.000 N 
ATOM     11  C   UNL     1       1.921   7.368  20.115  0.00  0.00    +0.000 A 
ATOM     12  O   UNL     1       1.508   6.852  21.151  0.00  0.00    +0.000 OA
ATOM     13  N   UNL     1       1.421   8.585  19.724  0.00  0.00    +0.000 N 
ATOM     14  H   UNL     1       0.753   9.015  20.343  0.00  0.00    +0.000 HD
ENDBRANCH   1  10
BRANCH   3  15
ATOM     15  C   UNL     1       3.542   2.138  17.813  0.00  0.00    +0.000 C 
BRANCH  15  16
ATOM     16  O   UNL     1       3.946   0.845  18.269  0.00  0.00    +0.000 OA
ATOM     17  H   UNL     1       4.411   0.953  19.115  0.00  0.00    +0.000 HD
ENDBRANCH  15  16
ENDBRANCH   3  15
BRANCH   4  18
ATOM     18  C   UNL     1       5.474   4.335  17.147  0.00  0.00    +0.000 C 
BRANCH  18  19
ATOM     19  P   UNL     1       7.195   4.808  16.835  0.00  0.00    +0.000 P 
ATOM     20  O   UNL     1       8.252   4.148  17.658  0.00  0.00    +0.000 OA
BRANCH  19  21
ATOM     21  O   UNL     1       7.375   4.503  15.262  0.00  0.00    +0.000 OA
ATOM     22  H   UNL     1       8.158   3.968  15.038  0.00  0.00    +0.000 HD
ENDBRANCH  19  21
BRANCH  19  23
ATOM     23  O   UNL     1       7.341   6.402  16.791  0.00  0.00    +0.000 OA
ATOM     24  H   UNL     1       6.905   6.749  15.987  0.00  0.00    +0.000 HD
ENDBRANCH  19  23
ENDBRANCH  18  19
ENDBRANCH   4  18
TORSDOF 7
ENDMDL
MODEL 5
REMARK VINA RESULT:      -6.8      2.437      6.053
REMARK  Name = 
REMARK  7 active torsions:
REMARK  status: ('A' for Active; 'I' for Inactive)
REMARK    1  A    between atoms: N_5  and  C_6
REMARK    2  A    between atoms: C_8  and  C_9
REMARK    3  A    between atoms: C_9  and  O_10
REMARK    4  A    between atoms: N_11  and  C_12
REMARK    5  A    between atoms: C_12  and  P_13
REMARK    6  A    between atoms: P_13  and  O_15
REMARK    7  A    between atoms: P_13  and  O_16
REMARK                            x       y       z     vdW  Elec       q    Type
REMARK                         _______ _______ _______ _____ _____    ______ ____
ROOT
ATOM      1  C   UNL     1       4.341   5.757  18.602  0.00  0.00    +0.000 C 
ATOM      2  C   UNL     1       5.532   5.201  19.379  0.00  0.00    +0.000 C 
ATOM      3  C   UNL     1       6.740   5.938  18.829  0.00  0.00    +0.000 C 
ATOM      4  N   UNL     1       6.479   6.037  17.369  0.00  0.00    +0.000 NA
ATOM      5  C   UNL     1       5.000   6.221  17.266  0.00  0.00    +0.000 C 
ENDROOT
BRANCH   1  10
ATOM      6  O   UNL     1       0.306   2.008  18.506  0.00  0.00    +0.000 OA
ATOM      7  C   UNL     1       1.185   2.860  18.517  0.00  0.00    +0.000 A 
ATOM      8  C   UNL     1       2.349   2.757  17.631  0.00  0.00    +0.000 A 
ATOM      9  C   UNL     1       3.286   3.704  17.686  0.00  0.00    +0.000 A 
ATOM     10  N   UNL     1       3.204   4.799  18.540  0.00  0.00    +0.000 N 
ATOM     11  C   UNL     1       2.193   4.850  19.501  0.00  0.00    +0.000 A 
ATOM     12  O   UNL     1       2.161   5.636  20.445  0.00  0.00    +0.000 OA
ATOM     13  N   UNL     1       1.181   3.936  19.351  0.00  0.00    +0.000 N 
ATOM     14  H   UNL     1       0.430   3.986  20.020  0.00  0.00    +0.000 HD
ENDBRANCH   1  10
BRANCH   3  15
ATOM     15  C   UNL     1       8.046   5.295  19.354  0.00  0.00    +0.000 C 
BRANCH  15  16
ATOM     16  O   UNL     1       8.169   5.372  20.776  0.00  0.00    +0.000 OA
ATOM     17  H   UNL     1       8.319   4.475  21.117  0.00  0.00    +0.000 HD
ENDBRANCH  15  16
ENDBRANCH   3  15
BRANCH   4  18
ATOM     18  C   UNL     1       6.901   4.833  16.620  0.00  0.00    +0.000 C 
BRANCH  18  19
ATOM     19  P   UNL     1       6.531   4.944  14.850  0.00  0.00    +0.000 P 
ATOM     20  O   UNL     1       5.430   5.862  14.431  0.00  0.00    +0.000 OA
BRANCH  19  21
ATOM     21  O   UNL     1       7.950   5.371  14.210  0.00  0.00    +0.000 OA
ATOM     22  H   UNL     1       8.287   6.235  14.507  0.00  0.00    +0.000 HD
ENDBRANCH  19  21
BRANCH  19  23
ATOM     23  O   UNL     1       6.406   3.482  14.208  0.00  0.00    +0.000 OA
ATOM     24  H   UNL     1       7.267   3.022  14.272  0.00  0.00    +0.000 HD
ENDBRANCH  19  23
ENDBRANCH  18  19
ENDBRANCH   4  18
TORSDOF 7
ENDMDL
MODEL 6
REMARK VINA RESULT:      -6.8      2.895      6.357
REMARK  Name = 
REMARK  7 active torsions:
REMARK  status: ('A' for Active; 'I' for Inactive)
REMARK    1  A    between atoms: N_5  and  C_6
REMARK    2  A    between atoms: C_8  and  C_9
REMARK    3  A    between atoms: C_9  and  O_10
REMARK    4  A    between atoms: N_11  and  C_12
REMARK    5  A    between atoms: C_12  and  P_13
REMARK    6  A    between atoms: P_13  and  O_15
REMARK    7  A    between atoms: P_13  and  O_16
REMARK                            x       y       z     vdW  Elec       q    Type
REMARK                         _______ _______ _______ _____ _____    ______ ____
ROOT
ATOM      1  C   UNL     1       2.844   6.087  19.523  0.00  0.00    +0.000 C 
ATOM      2  C   UNL     1       2.122   5.058  18.654  0.00  0.00    +0.000 C 
ATOM      3  C   UNL     1       3.111   3.917  18.492  0.00  0.00    +0.000 C 
ATOM      4  N   UNL     1       4.427   4.588  18.331  0.00  0.00    +0.000 NA
ATOM      5  C   UNL     1       4.345   5.789  19.216  0.00  0.00    +0.000 C 
ENDROOT
BRANCH   1  10
ATOM      6  O   UNL     1       0.738  11.087  18.567  0.00  0.00    +0.000 OA
ATOM      7  C   UNL     1       1.225   9.987  18.796  0.00  0.00    +0.000 A 
ATOM      8  C   UNL     1       1.926   9.237  17.749  0.00  0.00    +0.000 A 
ATOM      9  C   UNL     1       2.430   8.039  18.043  0.00  0.00    +0.000 A 
ATOM     10  N   UNL     1       2.334   7.468  19.309  0.00  0.00    +0.000 N 
ATOM     11  C   UNL     1       1.545   8.081  20.283  0.00  0.00    +0.000 A 
ATOM     12  O   UNL     1       1.203   7.557  21.341  0.00  0.00    +0.000 OA
ATOM     13  N   UNL     1       1.136   9.360  20.002  0.00  0.00    +0.000 N 
ATOM     14  H   UNL     1       0.594   9.824  20.713  0.00  0.00    +0.000 HD
ENDBRANCH   1  10
BRANCH   3  15
ATOM     15  C   UNL     1       2.603   2.913  17.430  0.00  0.00    +0.000 C 
BRANCH  15  16
ATOM     16  O   UNL     1       2.694   1.554  17.863  0.00  0.00    +0.000 OA
ATOM     17  H   UNL     1       3.529   1.185  17.531  0.00  0.00    +0.000 HD
ENDBRANCH  15  16
ENDBRANCH   3  15
BRANCH   4  18
ATOM     18  C   UNL     1       4.704   4.997  16.937  0.00  0.00    +0.000 C 
BRANCH  18  19
ATOM     19  P   UNL     1       6.400   4.623  16.421  0.00  0.00    +0.000 P 
ATOM     20  O   UNL     1       7.199   5.733  15.820  0.00  0.00    +0.000 OA
BRANCH  19  21
ATOM     21  O   UNL     1       7.074   4.057  17.773  0.00  0.00    +0.000 OA
ATOM     22  H   UNL     1       6.442   3.722  18.434  0.00  0.00    +0.000 HD
ENDBRANCH  19  21
BRANCH  19  23
ATOM     23  O   UNL     1       6.441   3.280  15.550  0.00  0.00    +0.000 OA
ATOM     24  H   UNL     1       7.365   3.080  15.299  0.00  0.00    +0.000 HD
ENDBRANCH  19  23
ENDBRANCH  18  19
ENDBRANCH   4  18
TORSDOF 7
ENDMDL
MODEL 7
REMARK VINA RESULT:      -6.8      2.717      6.293
REMARK  Name = 
REMARK  7 active torsions:
REMARK  status: ('A' for Active; 'I' for Inactive)
REMARK    1  A    between atoms: N_5  and  C_6
REMARK    2  A    between atoms: C_8  and  C_9
REMARK    3  A    between atoms: C_9  and  O_10
REMARK    4  A    between atoms: N_11  and  C_12
REMARK    5  A    between atoms: C_12  and  P_13
REMARK    6  A    between atoms: P_13  and  O_15
REMARK    7  A    between atoms: P_13  and  O_16
REMARK                            x       y       z     vdW  Elec       q    Type
REMARK                         _______ _______ _______ _____ _____    ______ ____
ROOT
ATOM      1  C   UNL     1       3.103   5.773  19.599  0.00  0.00    +0.000 C 
ATOM      2  C   UNL     1       2.481   4.695  18.713  0.00  0.00    +0.000 C 
ATOM      3  C   UNL     1       3.529   3.600  18.630  0.00  0.00    +0.000 C 
ATOM      4  N   UNL     1       4.819   4.330  18.528  0.00  0.00    +0.000 NA
ATOM      5  C   UNL     1       4.631   5.541  19.382  0.00  0.00    +0.000 C 
ENDROOT
BRANCH   1  10
ATOM      6  O   UNL     1       0.820  10.648  18.428  0.00  0.00    +0.000 OA
ATOM      7  C   UNL     1       1.346   9.577  18.706  0.00  0.00    +0.000 A 
ATOM      8  C   UNL     1       2.128   8.838  17.710  0.00  0.00    +0.000 A 
ATOM      9  C   UNL     1       2.672   7.671  18.056  0.00  0.00    +0.000 A 
ATOM     10  N   UNL     1       2.542   7.124  19.329  0.00  0.00    +0.000 N 
ATOM     11  C   UNL     1       1.681   7.721  20.251  0.00  0.00    +0.000 A 
ATOM     12  O   UNL     1       1.314   7.205  21.304  0.00  0.00    +0.000 OA
ATOM     13  N   UNL     1       1.228   8.973  19.921  0.00  0.00    +0.000 N 
ATOM     14  H   UNL     1       0.633   9.427  20.595  0.00  0.00    +0.000 HD
ENDBRANCH   1  10
BRANCH   3  15
ATOM     15  C   UNL     1       3.129   2.554  17.561  0.00  0.00    +0.000 C 
BRANCH  15  16
ATOM     16  O   UNL     1       2.087   1.681  18.003  0.00  0.00    +0.000 OA
ATOM     17  H   UNL     1       1.918   1.862  18.943  0.00  0.00    +0.000 HD
ENDBRANCH  15  16
ENDBRANCH   3  15
BRANCH   4  18
ATOM     18  C   UNL     1       5.155   4.727  17.143  0.00  0.00    +0.000 C 
BRANCH  18  19
ATOM     19  P   UNL     1       6.937   4.926  16.883  0.00  0.00    +0.000 P 
ATOM     20  O   UNL     1       7.473   4.628  15.521  0.00  0.00    +0.000 OA
BRANCH  19  21
ATOM     21  O   UNL     1       7.196   6.459  17.312  0.00  0.00    +0.000 OA
ATOM     22  H   UNL     1       6.440   6.895  17.745  0.00  0.00    +0.000 HD
ENDBRANCH  19  21
BRANCH  19  23
ATOM     23  O   UNL     1       7.761   4.205  18.052  0.00  0.00    +0.000 OA
ATOM     24  H   UNL     1       8.176   3.390  17.705  0.00  0.00    +0.000 HD
ENDBRANCH  19  23
ENDBRANCH  18  19
ENDBRANCH   4  18
TORSDOF 7
ENDMDL
MODEL 8
REMARK VINA RESULT:      -6.7      1.205      1.613
REMARK  Name = 
REMARK  7 active torsions:
REMARK  status: ('A' for Active; 'I' for Inactive)
REMARK    1  A    between atoms: N_5  and  C_6
REMARK    2  A    between atoms: C_8  and  C_9
REMARK    3  A    between atoms: C_9  and  O_10
REMARK    4  A    between atoms: N_11  and  C_12
REMARK    5  A    between atoms: C_12  and  P_13
REMARK    6  A    between atoms: P_13  and  O_15
REMARK    7  A    between atoms: P_13  and  O_16
REMARK                            x       y       z     vdW  Elec       q    Type
REMARK                         _______ _______ _______ _____ _____    ______ ____
ROOT
ATOM      1  C   UNL     1       5.216   5.229  18.684  0.00  0.00    +0.000 C 
ATOM      2  C   UNL     1       4.211   6.378  18.753  0.00  0.00    +0.000 C 
ATOM      3  C   UNL     1       3.269   6.010  19.885  0.00  0.00    +0.000 C 
ATOM      4  N   UNL     1       3.076   4.543  19.744  0.00  0.00    +0.000 NA
ATOM      5  C   UNL     1       4.400   4.036  19.272  0.00  0.00    +0.000 C 
ENDROOT
BRANCH   1  10
ATOM      6  O   UNL     1       7.491   4.977  13.673  0.00  0.00    +0.000 OA
ATOM      7  C   UNL     1       6.983   5.005  14.787  0.00  0.00    +0.000 A 
ATOM      8  C   UNL     1       5.636   5.547  14.992  0.00  0.00    +0.000 A 
ATOM      9  C   UNL     1       5.131   5.567  16.225  0.00  0.00    +0.000 A 
ATOM     10  N   UNL     1       5.820   5.081  17.332  0.00  0.00    +0.000 N 
ATOM     11  C   UNL     1       7.156   4.701  17.201  0.00  0.00    +0.000 A 
ATOM     12  O   UNL     1       7.919   4.483  18.139  0.00  0.00    +0.000 OA
ATOM     13  N   UNL     1       7.617   4.577  15.914  0.00  0.00    +0.000 N 
ATOM     14  H   UNL     1       8.571   4.271  15.808  0.00  0.00    +0.000 HD
ENDBRANCH   1  10
BRANCH   3  15
ATOM     15  C   UNL     1       2.053   6.967  19.904  0.00  0.00    +0.000 C 
BRANCH  15  16
ATOM     16  O   UNL     1       1.790   7.502  21.203  0.00  0.00    +0.000 OA
ATOM     17  H   UNL     1       1.187   6.896  21.665  0.00  0.00    +0.000 HD
ENDBRANCH  15  16
ENDBRANCH   3  15
BRANCH   4  18
ATOM     18  C   UNL     1       2.016   4.187  18.777  0.00  0.00    +0.000 C 
BRANCH  18  19
ATOM     19  P   UNL     1       1.653   2.412  18.755  0.00  0.00    +0.000 P 
ATOM     20  O   UNL     1       1.995   1.623  19.976  0.00  0.00    +0.000 OA
BRANCH  19  21
ATOM     21  O   UNL     1       0.074   2.369  18.431  0.00  0.00    +0.000 OA
ATOM     22  H   UNL     1      -0.170   1.819  17.664  0.00  0.00    +0.000 HD
ENDBRANCH  19  21
BRANCH  19  23
ATOM     23  O   UNL     1       2.196   1.742  17.405  0.00  0.00    +0.000 OA
ATOM     24  H   UNL     1       3.147   1.945  17.299  0.00  0.00    +0.000 HD
ENDBRANCH  19  23
ENDBRANCH  18  19
ENDBRANCH   4  18
TORSDOF 7
ENDMDL
MODEL 9
REMARK VINA RESULT:      -6.6      3.033      6.018
REMARK  Name = 
REMARK  7 active torsions:
REMARK  status: ('A' for Active; 'I' for Inactive)
REMARK    1  A    between atoms: N_5  and  C_6
REMARK    2  A    between atoms: C_8  and  C_9
REMARK    3  A    between atoms: C_9  and  O_10
REMARK    4  A    between atoms: N_11  and  C_12
REMARK    5  A    between atoms: C_12  and  P_13
REMARK    6  A    between atoms: P_13  and  O_15
REMARK    7  A    between atoms: P_13  and  O_16
REMARK                            x       y       z     vdW  Elec       q    Type
REMARK                         _______ _______ _______ _____ _____    ______ ____
ROOT
ATOM      1  C   UNL     1       3.509   5.480  19.574  0.00  0.00    +0.000 C 
ATOM      2  C   UNL     1       2.844   4.228  19.005  0.00  0.00    +0.000 C 
ATOM      3  C   UNL     1       3.953   3.195  18.922  0.00  0.00    +0.000 C 
ATOM      4  N   UNL     1       5.143   3.965  18.475  0.00  0.00    +0.000 NA
ATOM      5  C   UNL     1       4.995   5.298  19.135  0.00  0.00    +0.000 C 
ENDROOT
BRANCH   1  10
ATOM      6  O   UNL     1       1.066  10.253  18.313  0.00  0.00    +0.000 OA
ATOM      7  C   UNL     1       1.592   9.179  18.575  0.00  0.00    +0.000 A 
ATOM      8  C   UNL     1       1.414   8.550  19.887  0.00  0.00    +0.000 A 
ATOM      9  C   UNL     1       2.015   7.385  20.130  0.00  0.00    +0.000 A 
ATOM     10  N   UNL     1       2.799   6.728  19.186  0.00  0.00    +0.000 N 
ATOM     11  C   UNL     1       3.115   7.368  17.986  0.00  0.00    +0.000 A 
ATOM     12  O   UNL     1       3.974   6.989  17.194  0.00  0.00    +0.000 OA
ATOM     13  N   UNL     1       2.396   8.503  17.708  0.00  0.00    +0.000 N 
ATOM     14  H   UNL     1       2.593   8.954  16.829  0.00  0.00    +0.000 HD
ENDBRANCH   1  10
BRANCH   3  15
ATOM     15  C   UNL     1       3.474   1.955  18.131  0.00  0.00    +0.000 C 
BRANCH  15  16
ATOM     16  O   UNL     1       4.233   0.780  18.429  0.00  0.00    +0.000 OA
ATOM     17  H   UNL     1       4.996   1.041  18.971  0.00  0.00    +0.000 HD
ENDBRANCH  15  16
ENDBRANCH   3  15
BRANCH   4  18
ATOM     18  C   UNL     1       5.213   4.126  17.006  0.00  0.00    +0.000 C 
BRANCH  18  19
ATOM     19  P   UNL     1       6.815   4.760  16.445  0.00  0.00    +0.000 P 
ATOM     20  O   UNL     1       8.029   4.332  17.201  0.00  0.00    +0.000 OA
BRANCH  19  21
ATOM     21  O   UNL     1       6.868   4.294  14.902  0.00  0.00    +0.000 OA
ATOM     22  H   UNL     1       7.163   4.983  14.279  0.00  0.00    +0.000 HD
ENDBRANCH  19  21
BRANCH  19  23
ATOM     23  O   UNL     1       6.745   6.344  16.217  0.00  0.00    +0.000 OA
ATOM     24  H   UNL     1       7.539   6.640  15.729  0.00  0.00    +0.000 HD
ENDBRANCH  19  23
ENDBRANCH  18  19
ENDBRANCH   4  18
TORSDOF 7
ENDMDL
