MODEL 1
REMARK VINA RESULT:      -8.7      0.000      0.000
REMARK  Name = 
REMARK  5 active torsions:
REMARK  status: ('A' for Active; 'I' for Inactive)
REMARK    1  A    between atoms: C_1  and  C_2
REMARK    2  A    between atoms: C_2  and  C_3
REMARK    3  A    between atoms: C_3  and  C_4
REMARK    4  A    between atoms: C_4  and  C_5
REMARK    5  A    between atoms: C_5  and  O_6
REMARK                            x       y       z     vdW  Elec       q    Type
REMARK                         _______ _______ _______ _____ _____    ______ ____
ROOT
ATOM      1  C   UNL     1       6.440   5.296  17.676  0.00  0.00    +0.000 C 
ATOM      2  C   UNL     1       6.422   4.877  16.222  0.00  0.00    +0.000 A 
ATOM      3  C   UNL     1       7.378   5.090  15.238  0.00  0.00    +0.000 A 
ATOM      4  C   UNL     1       7.113   4.630  13.947  0.00  0.00    +0.000 A 
ATOM      5  C   UNL     1       5.909   3.969  13.657  0.00  0.00    +0.000 A 
ATOM      6  C   UNL     1       4.953   3.755  14.653  0.00  0.00    +0.000 A 
ATOM      7  C   UNL     1       5.223   4.213  15.930  0.00  0.00    +0.000 A 
ATOM      8  N   UNL     1       4.430   4.129  17.085  0.00  0.00    +0.000 N 
ATOM      9  C   UNL     1       5.083   4.722  18.159  0.00  0.00    +0.000 A 
ATOM     10  N   UNL     1       4.613   4.790  19.362  0.00  0.00    +0.000 NA
ATOM     11  C   UNL     1       3.340   4.244  19.577  0.00  0.00    +0.000 A 
ATOM     12  C   UNL     1       2.787   4.340  20.857  0.00  0.00    +0.000 A 
ATOM     13  C   UNL     1       1.515   3.829  21.123  0.00  0.00    +0.000 A 
ATOM     14  C   UNL     1       0.784   3.212  20.108  0.00  0.00    +0.000 A 
ATOM     15  C   UNL     1       1.321   3.112  18.825  0.00  0.00    +0.000 A 
ATOM     16  C   UNL     1       2.597   3.629  18.564  0.00  0.00    +0.000 A 
ATOM     17  C   UNL     1       3.180   3.553  17.203  0.00  0.00    +0.000 A 
ATOM     18  O   UNL     1       2.541   3.021  16.299  0.00  0.00    +0.000 OA
ENDROOT
BRANCH   1  19
ATOM     19  O   UNL     1       7.535   4.679  18.329  0.00  0.00    +0.000 OA
ATOM     20  H   UNL     1       8.113   4.302  17.646  0.00  0.00    +0.000 HD
ENDBRANCH   1  19
BRANCH   1  21
ATOM     21  C   UNL     1       6.491   6.830  17.810  0.00  0.00    +0.000 C 
BRANCH  21  22
ATOM     22  C   UNL     1       7.892   7.369  18.116  0.00  0.00    +0.000 C 
BRANCH  22  24
ATOM     23  C   UNL     1       8.901   9.559  18.774  0.00  0.00    +0.000 C 
ATOM     24  C   UNL     1       8.036   8.843  17.746  0.00  0.00    +0.000 C 
ENDBRANCH  22  24
ENDBRANCH  21  22
ENDBRANCH   1  21
TORSDOF 4
ENDMDL
MODEL 2
REMARK VINA RESULT:      -7.5      3.091      6.833
REMARK  Name = 
REMARK  5 active torsions:
REMARK  status: ('A' for Active; 'I' for Inactive)
REMARK    1  A    between atoms: C_1  and  C_2
REMARK    2  A    between atoms: C_2  and  C_3
REMARK    3  A    between atoms: C_3  and  C_4
REMARK    4  A    between atoms: C_4  and  C_5
REMARK    5  A    between atoms: C_5  and  O_6
REMARK                            x       y       z     vdW  Elec       q    Type
REMARK                         _______ _______ _______ _____ _____    ______ ____
ROOT
ATOM      1  C   UNL     1       2.021   5.449  20.471  0.00  0.00    +0.000 C 
ATOM      2  C   UNL     1       1.510   6.870  20.560  0.00  0.00    +0.000 A 
ATOM      3  C   UNL     1       0.642   7.432  21.487  0.00  0.00    +0.000 A 
ATOM      4  C   UNL     1       0.290   8.775  21.336  0.00  0.00    +0.000 A 
ATOM      5  C   UNL     1       0.805   9.533  20.273  0.00  0.00    +0.000 A 
ATOM      6  C   UNL     1       1.680   8.962  19.345  0.00  0.00    +0.000 A 
ATOM      7  C   UNL     1       2.024   7.632  19.501  0.00  0.00    +0.000 A 
ATOM      8  N   UNL     1       2.868   6.838  18.708  0.00  0.00    +0.000 N 
ATOM      9  C   UNL     1       2.936   5.549  19.224  0.00  0.00    +0.000 A 
ATOM     10  N   UNL     1       3.644   4.590  18.721  0.00  0.00    +0.000 NA
ATOM     11  C   UNL     1       4.370   4.881  17.557  0.00  0.00    +0.000 A 
ATOM     12  C   UNL     1       5.111   3.854  16.966  0.00  0.00    +0.000 A 
ATOM     13  C   UNL     1       5.838   4.084  15.796  0.00  0.00    +0.000 A 
ATOM     14  C   UNL     1       5.833   5.348  15.207  0.00  0.00    +0.000 A 
ATOM     15  C   UNL     1       5.095   6.382  15.784  0.00  0.00    +0.000 A 
ATOM     16  C   UNL     1       4.366   6.144  16.956  0.00  0.00    +0.000 A 
ATOM     17  C   UNL     1       3.557   7.222  17.575  0.00  0.00    +0.000 A 
ATOM     18  O   UNL     1       3.537   8.337  17.059  0.00  0.00    +0.000 OA
ENDROOT
BRANCH   1  19
ATOM     19  O   UNL     1       2.758   5.141  21.641  0.00  0.00    +0.000 OA
ATOM     20  H   UNL     1       3.487   5.779  21.708  0.00  0.00    +0.000 HD
ENDBRANCH   1  19
BRANCH   1  21
ATOM     21  C   UNL     1       0.863   4.457  20.251  0.00  0.00    +0.000 C 
BRANCH  21  22
ATOM     22  C   UNL     1       1.101   3.090  20.900  0.00  0.00    +0.000 C 
BRANCH  22  24
ATOM     23  C   UNL     1       0.929   2.260  18.549  0.00  0.00    +0.000 C 
ATOM     24  C   UNL     1       1.605   2.056  19.896  0.00  0.00    +0.000 C 
ENDBRANCH  22  24
ENDBRANCH  21  22
ENDBRANCH   1  21
TORSDOF 4
ENDMDL
MODEL 3
REMARK VINA RESULT:      -7.4      1.781      3.956
REMARK  Name = 
REMARK  5 active torsions:
REMARK  status: ('A' for Active; 'I' for Inactive)
REMARK    1  A    between atoms: C_1  and  C_2
REMARK    2  A    between atoms: C_2  and  C_3
REMARK    3  A    between atoms: C_3  and  C_4
REMARK    4  A    between atoms: C_4  and  C_5
REMARK    5  A    between atoms: C_5  and  O_6
REMARK                            x       y       z     vdW  Elec       q    Type
REMARK                         _______ _______ _______ _____ _____    ______ ____
ROOT
ATOM      1  C   UNL     1       4.720   6.653  16.940  0.00  0.00    +0.000 C 
ATOM      2  C   UNL     1       6.047   6.696  17.665  0.00  0.00    +0.000 A 
ATOM      3  C   UNL     1       7.130   7.541  17.459  0.00  0.00    +0.000 A 
ATOM      4  C   UNL     1       8.270   7.359  18.245  0.00  0.00    +0.000 A 
ATOM      5  C   UNL     1       8.314   6.347  19.217  0.00  0.00    +0.000 A 
ATOM      6  C   UNL     1       7.220   5.503  19.421  0.00  0.00    +0.000 A 
ATOM      7  C   UNL     1       6.094   5.689  18.639  0.00  0.00    +0.000 A 
ATOM      8  N   UNL     1       4.885   4.976  18.646  0.00  0.00    +0.000 N 
ATOM      9  C   UNL     1       4.016   5.495  17.693  0.00  0.00    +0.000 A 
ATOM     10  N   UNL     1       2.820   5.058  17.470  0.00  0.00    +0.000 NA
ATOM     11  C   UNL     1       2.390   3.966  18.236  0.00  0.00    +0.000 A 
ATOM     12  C   UNL     1       1.118   3.444  17.989  0.00  0.00    +0.000 A 
ATOM     13  C   UNL     1       0.646   2.345  18.711  0.00  0.00    +0.000 A 
ATOM     14  C   UNL     1       1.445   1.759  19.692  0.00  0.00    +0.000 A 
ATOM     15  C   UNL     1       2.719   2.267  19.947  0.00  0.00    +0.000 A 
ATOM     16  C   UNL     1       3.187   3.368  19.218  0.00  0.00    +0.000 A 
ATOM     17  C   UNL     1       4.546   3.910  19.457  0.00  0.00    +0.000 A 
ATOM     18  O   UNL     1       5.263   3.396  20.312  0.00  0.00    +0.000 OA
ENDROOT
BRANCH   1  19
ATOM     19  O   UNL     1       4.045   7.885  17.122  0.00  0.00    +0.000 OA
ATOM     20  H   UNL     1       3.292   7.904  16.510  0.00  0.00    +0.000 HD
ENDBRANCH   1  19
BRANCH   1  21
ATOM     21  C   UNL     1       4.915   6.328  15.446  0.00  0.00    +0.000 C 
BRANCH  21  22
ATOM     22  C   UNL     1       5.344   4.880  15.189  0.00  0.00    +0.000 C 
BRANCH  22  24
ATOM     23  C   UNL     1       6.410   3.855  13.174  0.00  0.00    +0.000 C 
ATOM     24  C   UNL     1       6.618   4.797  14.350  0.00  0.00    +0.000 C 
ENDBRANCH  22  24
ENDBRANCH  21  22
ENDBRANCH   1  21
TORSDOF 4
ENDMDL
MODEL 4
REMARK VINA RESULT:      -7.1      1.133      1.628
REMARK  Name = 
REMARK  5 active torsions:
REMARK  status: ('A' for Active; 'I' for Inactive)
REMARK    1  A    between atoms: C_1  and  C_2
REMARK    2  A    between atoms: C_2  and  C_3
REMARK    3  A    between atoms: C_3  and  C_4
REMARK    4  A    between atoms: C_4  and  C_5
REMARK    5  A    between atoms: C_5  and  O_6
REMARK                            x       y       z     vdW  Elec       q    Type
REMARK                         _______ _______ _______ _____ _____    ______ ____
ROOT
ATOM      1  C   UNL     1       6.627   4.802  17.673  0.00  0.00    +0.000 C 
ATOM      2  C   UNL     1       6.480   4.589  16.183  0.00  0.00    +0.000 A 
ATOM      3  C   UNL     1       7.384   4.864  15.166  0.00  0.00    +0.000 A 
ATOM      4  C   UNL     1       6.997   4.607  13.849  0.00  0.00    +0.000 A 
ATOM      5  C   UNL     1       5.726   4.084  13.566  0.00  0.00    +0.000 A 
ATOM      6  C   UNL     1       4.821   3.807  14.595  0.00  0.00    +0.000 A 
ATOM      7  C   UNL     1       5.212   4.064  15.897  0.00  0.00    +0.000 A 
ATOM      8  N   UNL     1       4.491   3.881  17.088  0.00  0.00    +0.000 N 
ATOM      9  C   UNL     1       5.261   4.270  18.178  0.00  0.00    +0.000 A 
ATOM     10  N   UNL     1       4.878   4.207  19.412  0.00  0.00    +0.000 NA
ATOM     11  C   UNL     1       3.580   3.733  19.649  0.00  0.00    +0.000 A 
ATOM     12  C   UNL     1       3.121   3.694  20.968  0.00  0.00    +0.000 A 
ATOM     13  C   UNL     1       1.830   3.247  21.260  0.00  0.00    +0.000 A 
ATOM     14  C   UNL     1       0.985   2.833  20.231  0.00  0.00    +0.000 A 
ATOM     15  C   UNL     1       1.428   2.870  18.909  0.00  0.00    +0.000 A 
ATOM     16  C   UNL     1       2.723   3.321  18.623  0.00  0.00    +0.000 A 
ATOM     17  C   UNL     1       3.208   3.390  17.223  0.00  0.00    +0.000 A 
ATOM     18  O   UNL     1       2.469   3.036  16.308  0.00  0.00    +0.000 OA
ENDROOT
BRANCH   1  19
ATOM     19  O   UNL     1       7.706   4.020  18.155  0.00  0.00    +0.000 OA
ATOM     20  H   UNL     1       7.805   3.256  17.564  0.00  0.00    +0.000 HD
ENDBRANCH   1  19
BRANCH   1  21
ATOM     21  C   UNL     1       6.816   6.295  18.004  0.00  0.00    +0.000 C 
BRANCH  21  22
ATOM     22  C   UNL     1       5.858   7.214  17.238  0.00  0.00    +0.000 C 
BRANCH  22  24
ATOM     23  C   UNL     1       3.362   7.303  17.162  0.00  0.00    +0.000 C 
ATOM     24  C   UNL     1       4.591   7.516  18.034  0.00  0.00    +0.000 C 
ENDBRANCH  22  24
ENDBRANCH  21  22
ENDBRANCH   1  21
TORSDOF 4
ENDMDL
MODEL 5
REMARK VINA RESULT:      -7.1      1.716      2.243
REMARK  Name = 
REMARK  5 active torsions:
REMARK  status: ('A' for Active; 'I' for Inactive)
REMARK    1  A    between atoms: C_1  and  C_2
REMARK    2  A    between atoms: C_2  and  C_3
REMARK    3  A    between atoms: C_3  and  C_4
REMARK    4  A    between atoms: C_4  and  C_5
REMARK    5  A    between atoms: C_5  and  O_6
REMARK                            x       y       z     vdW  Elec       q    Type
REMARK                         _______ _______ _______ _____ _____    ______ ____
ROOT
ATOM      1  C   UNL     1       5.727   5.997  17.966  0.00  0.00    +0.000 C 
ATOM      2  C   UNL     1       6.040   5.309  16.656  0.00  0.00    +0.000 A 
ATOM      3  C   UNL     1       6.924   5.690  15.655  0.00  0.00    +0.000 A 
ATOM      4  C   UNL     1       7.012   4.895  14.511  0.00  0.00    +0.000 A 
ATOM      5  C   UNL     1       6.225   3.740  14.381  0.00  0.00    +0.000 A 
ATOM      6  C   UNL     1       5.340   3.360  15.393  0.00  0.00    +0.000 A 
ATOM      7  C   UNL     1       5.259   4.152  16.524  0.00  0.00    +0.000 A 
ATOM      8  N   UNL     1       4.451   3.990  17.661  0.00  0.00    +0.000 N 
ATOM      9  C   UNL     1       4.683   5.020  18.565  0.00  0.00    +0.000 A 
ATOM     10  N   UNL     1       4.100   5.139  19.713  0.00  0.00    +0.000 NA
ATOM     11  C   UNL     1       3.149   4.164  20.045  0.00  0.00    +0.000 A 
ATOM     12  C   UNL     1       2.471   4.289  21.260  0.00  0.00    +0.000 A 
ATOM     13  C   UNL     1       1.500   3.356  21.633  0.00  0.00    +0.000 A 
ATOM     14  C   UNL     1       1.202   2.285  20.792  0.00  0.00    +0.000 A 
ATOM     15  C   UNL     1       1.868   2.149  19.574  0.00  0.00    +0.000 A 
ATOM     16  C   UNL     1       2.839   3.089  19.205  0.00  0.00    +0.000 A 
ATOM     17  C   UNL     1       3.544   2.978  17.906  0.00  0.00    +0.000 A 
ATOM     18  O   UNL     1       3.282   2.044  17.152  0.00  0.00    +0.000 OA
ENDROOT
BRANCH   1  19
ATOM     19  O   UNL     1       6.902   6.060  18.755  0.00  0.00    +0.000 OA
ATOM     20  H   UNL     1       7.157   6.994  18.832  0.00  0.00    +0.000 HD
ENDBRANCH   1  19
BRANCH   1  21
ATOM     21  C   UNL     1       5.128   7.397  17.727  0.00  0.00    +0.000 C 
BRANCH  21  22
ATOM     22  C   UNL     1       3.698   7.361  17.179  0.00  0.00    +0.000 C 
BRANCH  22  24
ATOM     23  C   UNL     1       2.028   9.131  17.751  0.00  0.00    +0.000 C 
ATOM     24  C   UNL     1       2.674   7.832  18.209  0.00  0.00    +0.000 C 
ENDBRANCH  22  24
ENDBRANCH  21  22
ENDBRANCH   1  21
TORSDOF 4
ENDMDL
MODEL 6
REMARK VINA RESULT:      -7.1      2.888      3.454
REMARK  Name = 
REMARK  5 active torsions:
REMARK  status: ('A' for Active; 'I' for Inactive)
REMARK    1  A    between atoms: C_1  and  C_2
REMARK    2  A    between atoms: C_2  and  C_3
REMARK    3  A    between atoms: C_3  and  C_4
REMARK    4  A    between atoms: C_4  and  C_5
REMARK    5  A    between atoms: C_5  and  O_6
REMARK                            x       y       z     vdW  Elec       q    Type
REMARK                         _______ _______ _______ _____ _____    ______ ____
ROOT
ATOM      1  C   UNL     1       4.519   4.233  18.356  0.00  0.00    +0.000 C 
ATOM      2  C   UNL     1       5.033   4.596  16.980  0.00  0.00    +0.000 A 
ATOM      3  C   UNL     1       5.875   3.877  16.142  0.00  0.00    +0.000 A 
ATOM      4  C   UNL     1       6.237   4.447  14.920  0.00  0.00    +0.000 A 
ATOM      5  C   UNL     1       5.759   5.715  14.553  0.00  0.00    +0.000 A 
ATOM      6  C   UNL     1       4.910   6.432  15.400  0.00  0.00    +0.000 A 
ATOM      7  C   UNL     1       4.555   5.861  16.609  0.00  0.00    +0.000 A 
ATOM      8  N   UNL     1       3.733   6.377  17.623  0.00  0.00    +0.000 N 
ATOM      9  C   UNL     1       3.642   5.472  18.674  0.00  0.00    +0.000 A 
ATOM     10  N   UNL     1       2.946   5.656  19.748  0.00  0.00    +0.000 NA
ATOM     11  C   UNL     1       2.257   6.873  19.856  0.00  0.00    +0.000 A 
ATOM     12  C   UNL     1       1.530   7.119  21.024  0.00  0.00    +0.000 A 
ATOM     13  C   UNL     1       0.840   8.322  21.192  0.00  0.00    +0.000 A 
ATOM     14  C   UNL     1       0.869   9.290  20.189  0.00  0.00    +0.000 A 
ATOM     15  C   UNL     1       1.594   9.060  19.019  0.00  0.00    +0.000 A 
ATOM     16  C   UNL     1       2.286   7.852  18.858  0.00  0.00    +0.000 A 
ATOM     17  C   UNL     1       3.080   7.594  17.633  0.00  0.00    +0.000 A 
ATOM     18  O   UNL     1       3.121   8.444  16.747  0.00  0.00    +0.000 OA
ENDROOT
BRANCH   1  19
ATOM     19  O   UNL     1       3.745   3.050  18.270  0.00  0.00    +0.000 OA
ATOM     20  H   UNL     1       3.149   3.140  17.508  0.00  0.00    +0.000 HD
ENDBRANCH   1  19
BRANCH   1  21
ATOM     21  C   UNL     1       5.678   4.082  19.359  0.00  0.00    +0.000 C 
BRANCH  21  22
ATOM     22  C   UNL     1       6.428   5.392  19.626  0.00  0.00    +0.000 C 
BRANCH  22  24
ATOM     23  C   UNL     1       7.791   6.849  18.121  0.00  0.00    +0.000 C 
ATOM     24  C   UNL     1       7.715   5.495  18.811  0.00  0.00    +0.000 C 
ENDBRANCH  22  24
ENDBRANCH  21  22
ENDBRANCH   1  21
TORSDOF 4
ENDMDL
MODEL 7
REMARK VINA RESULT:      -7.0      3.447      5.655
REMARK  Name = 
REMARK  5 active torsions:
REMARK  status: ('A' for Active; 'I' for Inactive)
REMARK    1  A    between atoms: C_1  and  C_2
REMARK    2  A    between atoms: C_2  and  C_3
REMARK    3  A    between atoms: C_3  and  C_4
REMARK    4  A    between atoms: C_4  and  C_5
REMARK    5  A    between atoms: C_5  and  O_6
REMARK                            x       y       z     vdW  Elec       q    Type
REMARK                         _______ _______ _______ _____ _____    ______ ____
ROOT
ATOM      1  C   UNL     1       4.193   5.165  18.315  0.00  0.00    +0.000 C 
ATOM      2  C   UNL     1       3.778   4.214  19.416  0.00  0.00    +0.000 A 
ATOM      3  C   UNL     1       4.212   2.918  19.663  0.00  0.00    +0.000 A 
ATOM      4  C   UNL     1       3.646   2.224  20.735  0.00  0.00    +0.000 A 
ATOM      5  C   UNL     1       2.665   2.826  21.538  0.00  0.00    +0.000 A 
ATOM      6  C   UNL     1       2.235   4.131  21.285  0.00  0.00    +0.000 A 
ATOM      7  C   UNL     1       2.800   4.812  20.222  0.00  0.00    +0.000 A 
ATOM      8  N   UNL     1       2.534   6.113  19.765  0.00  0.00    +0.000 N 
ATOM      9  C   UNL     1       3.328   6.404  18.661  0.00  0.00    +0.000 A 
ATOM     10  N   UNL     1       3.322   7.530  18.025  0.00  0.00    +0.000 NA
ATOM     11  C   UNL     1       2.426   8.509  18.478  0.00  0.00    +0.000 A 
ATOM     12  C   UNL     1       2.366   9.721  17.784  0.00  0.00    +0.000 A 
ATOM     13  C   UNL     1       1.479  10.725  18.181  0.00  0.00    +0.000 A 
ATOM     14  C   UNL     1       0.645  10.525  19.281  0.00  0.00    +0.000 A 
ATOM     15  C   UNL     1       0.692   9.319  19.980  0.00  0.00    +0.000 A 
ATOM     16  C   UNL     1       1.581   8.315  19.576  0.00  0.00    +0.000 A 
ATOM     17  C   UNL     1       1.633   7.018  20.290  0.00  0.00    +0.000 A 
ATOM     18  O   UNL     1       0.896   6.827  21.254  0.00  0.00    +0.000 OA
ENDROOT
BRANCH   1  19
ATOM     19  O   UNL     1       5.577   5.441  18.431  0.00  0.00    +0.000 OA
ATOM     20  H   UNL     1       5.796   6.133  17.786  0.00  0.00    +0.000 HD
ENDBRANCH   1  19
BRANCH   1  21
ATOM     21  C   UNL     1       3.842   4.593  16.928  0.00  0.00    +0.000 C 
BRANCH  21  22
ATOM     22  C   UNL     1       5.048   4.000  16.191  0.00  0.00    +0.000 C 
BRANCH  22  24
ATOM     23  C   UNL     1       6.077   3.984  13.913  0.00  0.00    +0.000 C 
ATOM     24  C   UNL     1       5.478   4.859  15.005  0.00  0.00    +0.000 C 
ENDBRANCH  22  24
ENDBRANCH  21  22
ENDBRANCH   1  21
TORSDOF 4
ENDMDL
MODEL 8
REMARK VINA RESULT:      -6.9      3.107      4.969
REMARK  Name = 
REMARK  5 active torsions:
REMARK  status: ('A' for Active; 'I' for Inactive)
REMARK    1  A    between atoms: C_1  and  C_2
REMARK    2  A    between atoms: C_2  and  C_3
REMARK    3  A    between atoms: C_3  and  C_4
REMARK    4  A    between atoms: C_4  and  C_5
REMARK    5  A    between atoms: C_5  and  O_6
REMARK                            x       y       z     vdW  Elec       q    Type
REMARK                         _______ _______ _______ _____ _____    ______ ____
ROOT
ATOM      1  C   UNL     1       3.382   4.165  18.500  0.00  0.00    +0.000 C 
ATOM      2  C   UNL     1       4.212   4.544  17.293  0.00  0.00    +0.000 A 
ATOM      3  C   UNL     1       5.002   3.737  16.486  0.00  0.00    +0.000 A 
ATOM      4  C   UNL     1       5.706   4.336  15.439  0.00  0.00    +0.000 A 
ATOM      5  C   UNL     1       5.613   5.718  15.213  0.00  0.00    +0.000 A 
ATOM      6  C   UNL     1       4.813   6.523  16.027  0.00  0.00    +0.000 A 
ATOM      7  C   UNL     1       4.118   5.924  17.062  0.00  0.00    +0.000 A 
ATOM      8  N   UNL     1       3.266   6.510  18.011  0.00  0.00    +0.000 N 
ATOM      9  C   UNL     1       2.775   5.541  18.878  0.00  0.00    +0.000 A 
ATOM     10  N   UNL     1       1.955   5.769  19.852  0.00  0.00    +0.000 NA
ATOM     11  C   UNL     1       1.561   7.100  20.050  0.00  0.00    +0.000 A 
ATOM     12  C   UNL     1       0.709   7.385  21.120  0.00  0.00    +0.000 A 
ATOM     13  C   UNL     1       0.299   8.696  21.374  0.00  0.00    +0.000 A 
ATOM     14  C   UNL     1       0.738   9.736  20.555  0.00  0.00    +0.000 A 
ATOM     15  C   UNL     1       1.591   9.468  19.485  0.00  0.00    +0.000 A 
ATOM     16  C   UNL     1       2.001   8.151  19.237  0.00  0.00    +0.000 A 
ATOM     17  C   UNL     1       2.925   7.844  18.119  0.00  0.00    +0.000 A 
ATOM     18  O   UNL     1       3.325   8.754  17.397  0.00  0.00    +0.000 OA
ENDROOT
BRANCH   1  19
ATOM     19  O   UNL     1       2.383   3.239  18.111  0.00  0.00    +0.000 OA
ATOM     20  H   UNL     1       2.813   2.540  17.593  0.00  0.00    +0.000 HD
ENDBRANCH   1  19
BRANCH   1  21
ATOM     21  C   UNL     1       4.269   3.603  19.628  0.00  0.00    +0.000 C 
BRANCH  21  22
ATOM     22  C   UNL     1       3.636   2.422  20.369  0.00  0.00    +0.000 C 
BRANCH  22  24
ATOM     23  C   UNL     1       1.330   2.614  21.314  0.00  0.00    +0.000 C 
ATOM     24  C   UNL     1       2.807   2.872  21.570  0.00  0.00    +0.000 C 
ENDBRANCH  22  24
ENDBRANCH  21  22
ENDBRANCH   1  21
TORSDOF 4
ENDMDL
MODEL 9
REMARK VINA RESULT:      -6.9      9.338     10.910
REMARK  Name = 
REMARK  5 active torsions:
REMARK  status: ('A' for Active; 'I' for Inactive)
REMARK    1  A    between atoms: C_1  and  C_2
REMARK    2  A    between atoms: C_2  and  C_3
REMARK    3  A    between atoms: C_3  and  C_4
REMARK    4  A    between atoms: C_4  and  C_5
REMARK    5  A    between atoms: C_5  and  O_6
REMARK                            x       y       z     vdW  Elec       q    Type
REMARK                         _______ _______ _______ _____ _____    ______ ____
ROOT
ATOM      1  C   UNL     1      -1.735  11.579  18.506  0.00  0.00    +0.000 C 
ATOM      2  C   UNL     1      -0.577  10.677  18.873  0.00  0.00    +0.000 A 
ATOM      3  C   UNL     1       0.243   9.924  18.043  0.00  0.00    +0.000 A 
ATOM      4  C   UNL     1       1.234   9.135  18.630  0.00  0.00    +0.000 A 
ATOM      5  C   UNL     1       1.394   9.110  20.025  0.00  0.00    +0.000 A 
ATOM      6  C   UNL     1       0.568   9.872  20.854  0.00  0.00    +0.000 A 
ATOM      7  C   UNL     1      -0.412  10.651  20.265  0.00  0.00    +0.000 A 
ATOM      8  N   UNL     1      -1.360  11.489  20.873  0.00  0.00    +0.000 N 
ATOM      9  C   UNL     1      -2.161  12.088  19.908  0.00  0.00    +0.000 A 
ATOM     10  N   UNL     1      -3.116  12.923  20.156  0.00  0.00    +0.000 NA
ATOM     11  C   UNL     1      -3.367  13.216  21.504  0.00  0.00    +0.000 A 
ATOM     12  C   UNL     1      -4.421  14.082  21.807  0.00  0.00    +0.000 A 
ATOM     13  C   UNL     1      -4.727  14.395  23.133  0.00  0.00    +0.000 A 
ATOM     14  C   UNL     1      -3.976  13.845  24.172  0.00  0.00    +0.000 A 
ATOM     15  C   UNL     1      -2.923  12.976  23.885  0.00  0.00    +0.000 A 
ATOM     16  C   UNL     1      -2.623  12.664  22.552  0.00  0.00    +0.000 A 
ATOM     17  C   UNL     1      -1.523  11.726  22.224  0.00  0.00    +0.000 A 
ATOM     18  O   UNL     1      -0.861  11.228  23.131  0.00  0.00    +0.000 OA
ENDROOT
BRANCH   1  19
ATOM     19  O   UNL     1      -1.267  12.633  17.684  0.00  0.00    +0.000 OA
ATOM     20  H   UNL     1      -0.665  13.179  18.216  0.00  0.00    +0.000 HD
ENDBRANCH   1  19
BRANCH   1  21
ATOM     21  C   UNL     1      -2.862  10.782  17.822  0.00  0.00    +0.000 C 
BRANCH  21  22
ATOM     22  C   UNL     1      -3.025  11.112  16.334  0.00  0.00    +0.000 C 
BRANCH  22  24
ATOM     23  C   UNL     1      -3.532  10.029  14.140  0.00  0.00    +0.000 C 
ATOM     24  C   UNL     1      -2.757   9.902  15.443  0.00  0.00    +0.000 C 
ENDBRANCH  22  24
ENDBRANCH  21  22
ENDBRANCH   1  21
TORSDOF 4
ENDMDL
