MODEL 1
REMARK VINA RESULT:      -6.7      0.000      0.000
REMARK  Name = 
REMARK  7 active torsions:
REMARK  status: ('A' for Active; 'I' for Inactive)
REMARK    1  A    between atoms: C_1  and  C_2
REMARK    2  A    between atoms: C_2  and  CA_3
REMARK    3  A    between atoms: CA_3  and  C_4
REMARK    4  A    between atoms: CA_3  and  N_6
REMARK    5  A    between atoms: C_4  and  O_5
REMARK    6  A    between atoms: C_7  and  C_9
REMARK    7  A    between atoms: C_15  and  C_16
REMARK                            x       y       z     vdW  Elec       q    Type
REMARK                         _______ _______ _______ _____ _____    ______ ____
ROOT
ATOM      1  C   UNL     1       3.786   3.701  18.160  0.00  0.00    +0.000 A 
ATOM      2  C   UNL     1       3.480   2.343  17.941  0.00  0.00    +0.000 A 
ATOM      3  C   UNL     1       2.195   1.856  18.194  0.00  0.00    +0.000 A 
ATOM      4  C   UNL     1       1.225   2.718  18.677  0.00  0.00    +0.000 A 
ATOM      5  F   UNL     1       0.001   2.249  18.952  0.00  0.00    +0.000 F 
ATOM      6  C   UNL     1       1.504   4.064  18.888  0.00  0.00    +0.000 A 
ATOM      7  C   UNL     1       2.788   4.585  18.612  0.00  0.00    +0.000 A 
ENDROOT
BRANCH   1   9
ATOM      8  N   UNL     1       5.570   4.587  16.759  0.00  0.00    +0.000 N 
ATOM      9  C   UNL     1       5.200   4.129  18.005  0.00  0.00    +0.000 C 
ATOM     10  O   UNL     1       5.966   4.023  18.955  0.00  0.00    +0.000 OA
ATOM     11  H   UNL     1       4.908   4.609  15.992  0.00  0.00    +0.000 HD
BRANCH   8  12
ATOM     12  CA  UNL     1       6.938   5.009  16.456  0.00  0.00    +0.000 C 
BRANCH  12  14
ATOM     13  C   UNL     1       6.138   4.105  14.199  0.00  0.00    +0.000 C 
ATOM     14  C   UNL     1       7.218   4.874  14.946  0.00  0.00    +0.000 C 
ENDBRANCH  12  14
BRANCH  12  15
ATOM     15  C   UNL     1       7.151   6.446  16.983  0.00  0.00    +0.000 C 
BRANCH  15  16
ATOM     16  O   UNL     1       7.760   6.430  18.276  0.00  0.00    +0.000 OA
ATOM     17  H   UNL     1       8.314   7.229  18.344  0.00  0.00    +0.000 HD
ENDBRANCH  15  16
ENDBRANCH  12  15
ENDBRANCH   8  12
ENDBRANCH   1   9
BRANCH   7  18
ATOM     18  C   UNL     1       2.981   6.068  18.823  0.00  0.00    +0.000 C 
ATOM     19  F   UNL     1       3.206   6.817  17.714  0.00  0.00    +0.000 F 
ATOM     20  F   UNL     1       1.857   6.623  19.378  0.00  0.00    +0.000 F 
ATOM     21  F   UNL     1       3.980   6.344  19.706  0.00  0.00    +0.000 F 
ENDBRANCH   7  18
TORSDOF 6
ENDMDL
MODEL 2
REMARK VINA RESULT:      -6.6      2.324      3.323
REMARK  Name = 
REMARK  7 active torsions:
REMARK  status: ('A' for Active; 'I' for Inactive)
REMARK    1  A    between atoms: C_1  and  C_2
REMARK    2  A    between atoms: C_2  and  CA_3
REMARK    3  A    between atoms: CA_3  and  C_4
REMARK    4  A    between atoms: CA_3  and  N_6
REMARK    5  A    between atoms: C_4  and  O_5
REMARK    6  A    between atoms: C_7  and  C_9
REMARK    7  A    between atoms: C_15  and  C_16
REMARK                            x       y       z     vdW  Elec       q    Type
REMARK                         _______ _______ _______ _____ _____    ______ ____
ROOT
ATOM      1  C   UNL     1       3.274   4.703  19.153  0.00  0.00    +0.000 A 
ATOM      2  C   UNL     1       2.996   5.244  20.425  0.00  0.00    +0.000 A 
ATOM      3  C   UNL     1       2.176   4.557  21.323  0.00  0.00    +0.000 A 
ATOM      4  C   UNL     1       1.624   3.344  20.949  0.00  0.00    +0.000 A 
ATOM      5  F   UNL     1       0.810   2.698  21.794  0.00  0.00    +0.000 F 
ATOM      6  C   UNL     1       1.895   2.788  19.704  0.00  0.00    +0.000 A 
ATOM      7  C   UNL     1       2.745   3.450  18.790  0.00  0.00    +0.000 A 
ENDROOT
BRANCH   1   9
ATOM      8  N   UNL     1       5.405   5.368  18.180  0.00  0.00    +0.000 N 
ATOM      9  C   UNL     1       4.038   5.541  18.194  0.00  0.00    +0.000 C 
ATOM     10  O   UNL     1       3.440   6.355  17.501  0.00  0.00    +0.000 OA
ATOM     11  H   UNL     1       5.856   4.713  18.809  0.00  0.00    +0.000 HD
BRANCH   8  12
ATOM     12  CA  UNL     1       6.283   6.149  17.308  0.00  0.00    +0.000 C 
BRANCH  12  14
ATOM     13  C   UNL     1       7.877   8.121  17.664  0.00  0.00    +0.000 C 
ATOM     14  C   UNL     1       7.463   6.727  18.115  0.00  0.00    +0.000 C 
ENDBRANCH  12  14
BRANCH  12  15
ATOM     15  C   UNL     1       6.736   5.264  16.125  0.00  0.00    +0.000 C 
BRANCH  15  16
ATOM     16  O   UNL     1       7.876   4.480  16.481  0.00  0.00    +0.000 OA
ATOM     17  H   UNL     1       8.318   4.220  15.653  0.00  0.00    +0.000 HD
ENDBRANCH  15  16
ENDBRANCH  12  15
ENDBRANCH   8  12
ENDBRANCH   1   9
BRANCH   7  18
ATOM     18  C   UNL     1       3.023   2.744  17.483  0.00  0.00    +0.000 C 
ATOM     19  F   UNL     1       2.439   1.532  17.309  0.00  0.00    +0.000 F 
ATOM     20  F   UNL     1       2.562   3.490  16.429  0.00  0.00    +0.000 F 
ATOM     21  F   UNL     1       4.355   2.588  17.247  0.00  0.00    +0.000 F 
ENDBRANCH   7  18
TORSDOF 6
ENDMDL
MODEL 3
REMARK VINA RESULT:      -6.6      2.376      3.360
REMARK  Name = 
REMARK  7 active torsions:
REMARK  status: ('A' for Active; 'I' for Inactive)
REMARK    1  A    between atoms: C_1  and  C_2
REMARK    2  A    between atoms: C_2  and  CA_3
REMARK    3  A    between atoms: CA_3  and  C_4
REMARK    4  A    between atoms: CA_3  and  N_6
REMARK    5  A    between atoms: C_4  and  O_5
REMARK    6  A    between atoms: C_7  and  C_9
REMARK    7  A    between atoms: C_15  and  C_16
REMARK                            x       y       z     vdW  Elec       q    Type
REMARK                         _______ _______ _______ _____ _____    ______ ____
ROOT
ATOM      1  C   UNL     1       3.247   4.799  19.152  0.00  0.00    +0.000 A 
ATOM      2  C   UNL     1       2.916   5.327  20.416  0.00  0.00    +0.000 A 
ATOM      3  C   UNL     1       2.116   4.599  21.301  0.00  0.00    +0.000 A 
ATOM      4  C   UNL     1       1.636   3.358  20.919  0.00  0.00    +0.000 A 
ATOM      5  F   UNL     1       0.841   2.672  21.750  0.00  0.00    +0.000 F 
ATOM      6  C   UNL     1       1.961   2.815  19.681  0.00  0.00    +0.000 A 
ATOM      7  C   UNL     1       2.792   3.519  18.782  0.00  0.00    +0.000 A 
ENDROOT
BRANCH   1   9
ATOM      8  N   UNL     1       5.351   5.506  18.150  0.00  0.00    +0.000 N 
ATOM      9  C   UNL     1       3.985   5.674  18.205  0.00  0.00    +0.000 C 
ATOM     10  O   UNL     1       3.367   6.512  17.559  0.00  0.00    +0.000 OA
ATOM     11  H   UNL     1       5.819   4.830  18.742  0.00  0.00    +0.000 HD
BRANCH   8  12
ATOM     12  CA  UNL     1       6.205   6.322  17.285  0.00  0.00    +0.000 C 
BRANCH  12  14
ATOM     13  C   UNL     1       7.770   5.824  19.249  0.00  0.00    +0.000 C 
ATOM     14  C   UNL     1       7.521   6.670  18.008  0.00  0.00    +0.000 C 
ENDBRANCH  12  14
BRANCH  12  15
ATOM     15  C   UNL     1       6.427   5.578  15.949  0.00  0.00    +0.000 C 
BRANCH  15  16
ATOM     16  O   UNL     1       7.533   4.678  16.043  0.00  0.00    +0.000 OA
ATOM     17  H   UNL     1       7.643   4.263  15.169  0.00  0.00    +0.000 HD
ENDBRANCH  15  16
ENDBRANCH  12  15
ENDBRANCH   8  12
ENDBRANCH   1   9
BRANCH   7  18
ATOM     18  C   UNL     1       3.133   2.827  17.483  0.00  0.00    +0.000 C 
ATOM     19  F   UNL     1       4.451   2.671  17.202  0.00  0.00    +0.000 F 
ATOM     20  F   UNL     1       2.639   1.547  17.479  0.00  0.00    +0.000 F 
ATOM     21  F   UNL     1       2.559   3.428  16.405  0.00  0.00    +0.000 F 
ENDBRANCH   7  18
TORSDOF 6
ENDMDL
MODEL 4
REMARK VINA RESULT:      -6.6      0.570      1.014
REMARK  Name = 
REMARK  7 active torsions:
REMARK  status: ('A' for Active; 'I' for Inactive)
REMARK    1  A    between atoms: C_1  and  C_2
REMARK    2  A    between atoms: C_2  and  CA_3
REMARK    3  A    between atoms: CA_3  and  C_4
REMARK    4  A    between atoms: CA_3  and  N_6
REMARK    5  A    between atoms: C_4  and  O_5
REMARK    6  A    between atoms: C_7  and  C_9
REMARK    7  A    between atoms: C_15  and  C_16
REMARK                            x       y       z     vdW  Elec       q    Type
REMARK                         _______ _______ _______ _____ _____    ______ ____
ROOT
ATOM      1  C   UNL     1       3.768   3.681  18.168  0.00  0.00    +0.000 A 
ATOM      2  C   UNL     1       3.431   2.332  17.936  0.00  0.00    +0.000 A 
ATOM      3  C   UNL     1       2.140   1.868  18.202  0.00  0.00    +0.000 A 
ATOM      4  C   UNL     1       1.196   2.741  18.712  0.00  0.00    +0.000 A 
ATOM      5  F   UNL     1      -0.033   2.293  19.001  0.00  0.00    +0.000 F 
ATOM      6  C   UNL     1       1.505   4.078  18.938  0.00  0.00    +0.000 A 
ATOM      7  C   UNL     1       2.795   4.577  18.648  0.00  0.00    +0.000 A 
ENDROOT
BRANCH   1   9
ATOM      8  N   UNL     1       5.558   4.504  16.737  0.00  0.00    +0.000 N 
ATOM      9  C   UNL     1       5.188   4.082  17.995  0.00  0.00    +0.000 C 
ATOM     10  O   UNL     1       5.957   3.986  18.944  0.00  0.00    +0.000 OA
ATOM     11  H   UNL     1       4.893   4.520  15.973  0.00  0.00    +0.000 HD
BRANCH   8  12
ATOM     12  CA  UNL     1       6.931   4.898  16.418  0.00  0.00    +0.000 C 
BRANCH  12  14
ATOM     13  C   UNL     1       6.063   4.071  14.156  0.00  0.00    +0.000 C 
ATOM     14  C   UNL     1       7.179   4.792  14.900  0.00  0.00    +0.000 C 
ENDBRANCH  12  14
BRANCH  12  15
ATOM     15  C   UNL     1       7.192   6.316  16.975  0.00  0.00    +0.000 C 
BRANCH  15  16
ATOM     16  O   UNL     1       6.139   7.210  16.609  0.00  0.00    +0.000 OA
ATOM     17  H   UNL     1       6.472   7.768  15.883  0.00  0.00    +0.000 HD
ENDBRANCH  15  16
ENDBRANCH  12  15
ENDBRANCH   8  12
ENDBRANCH   1   9
BRANCH   7  18
ATOM     18  C   UNL     1       3.021   6.053  18.876  0.00  0.00    +0.000 C 
ATOM     19  F   UNL     1       4.125   6.398  19.586  0.00  0.00    +0.000 F 
ATOM     20  F   UNL     1       3.178   6.704  17.679  0.00  0.00    +0.000 F 
ATOM     21  F   UNL     1       1.956   6.660  19.468  0.00  0.00    +0.000 F 
ENDBRANCH   7  18
TORSDOF 6
ENDMDL
MODEL 5
REMARK VINA RESULT:      -6.6      2.760      5.504
REMARK  Name = 
REMARK  7 active torsions:
REMARK  status: ('A' for Active; 'I' for Inactive)
REMARK    1  A    between atoms: C_1  and  C_2
REMARK    2  A    between atoms: C_2  and  CA_3
REMARK    3  A    between atoms: CA_3  and  C_4
REMARK    4  A    between atoms: CA_3  and  N_6
REMARK    5  A    between atoms: C_4  and  O_5
REMARK    6  A    between atoms: C_7  and  C_9
REMARK    7  A    between atoms: C_15  and  C_16
REMARK                            x       y       z     vdW  Elec       q    Type
REMARK                         _______ _______ _______ _____ _____    ______ ____
ROOT
ATOM      1  C   UNL     1       5.328   4.456  16.199  0.00  0.00    +0.000 A 
ATOM      2  C   UNL     1       5.176   3.691  15.025  0.00  0.00    +0.000 A 
ATOM      3  C   UNL     1       6.030   3.886  13.936  0.00  0.00    +0.000 A 
ATOM      4  C   UNL     1       7.020   4.850  14.014  0.00  0.00    +0.000 A 
ATOM      5  F   UNL     1       7.819   5.065  12.960  0.00  0.00    +0.000 F 
ATOM      6  C   UNL     1       7.193   5.607  15.168  0.00  0.00    +0.000 A 
ATOM      7  C   UNL     1       6.361   5.407  16.291  0.00  0.00    +0.000 A 
ENDROOT
BRANCH   1   9
ATOM      8  N   UNL     1       4.434   3.192  18.080  0.00  0.00    +0.000 N 
ATOM      9  C   UNL     1       4.308   4.298  17.267  0.00  0.00    +0.000 C 
ATOM     10  O   UNL     1       3.401   5.116  17.355  0.00  0.00    +0.000 OA
ATOM     11  H   UNL     1       5.178   2.519  17.935  0.00  0.00    +0.000 HD
BRANCH   8  12
ATOM     12  CA  UNL     1       3.483   2.896  19.151  0.00  0.00    +0.000 C 
BRANCH  12  14
ATOM     13  C   UNL     1       0.972   2.521  18.821  0.00  0.00    +0.000 C 
ATOM     14  C   UNL     1       2.374   1.956  18.638  0.00  0.00    +0.000 C 
ENDBRANCH  12  14
BRANCH  12  15
ATOM     15  C   UNL     1       4.250   2.320  20.363  0.00  0.00    +0.000 C 
BRANCH  15  16
ATOM     16  O   UNL     1       5.236   1.376  19.941  0.00  0.00    +0.000 OA
ATOM     17  H   UNL     1       5.690   1.056  20.741  0.00  0.00    +0.000 HD
ENDBRANCH  15  16
ENDBRANCH  12  15
ENDBRANCH   8  12
ENDBRANCH   1   9
BRANCH   7  18
ATOM     18  C   UNL     1       6.659   6.239  17.517  0.00  0.00    +0.000 C 
ATOM     19  F   UNL     1       6.874   5.565  18.674  0.00  0.00    +0.000 F 
ATOM     20  F   UNL     1       7.808   6.964  17.335  0.00  0.00    +0.000 F 
ATOM     21  F   UNL     1       5.694   7.167  17.764  0.00  0.00    +0.000 F 
ENDBRANCH   7  18
TORSDOF 6
ENDMDL
MODEL 6
REMARK VINA RESULT:      -6.5      1.808      2.337
REMARK  Name = 
REMARK  7 active torsions:
REMARK  status: ('A' for Active; 'I' for Inactive)
REMARK    1  A    between atoms: C_1  and  C_2
REMARK    2  A    between atoms: C_2  and  CA_3
REMARK    3  A    between atoms: CA_3  and  C_4
REMARK    4  A    between atoms: CA_3  and  N_6
REMARK    5  A    between atoms: C_4  and  O_5
REMARK    6  A    between atoms: C_7  and  C_9
REMARK    7  A    between atoms: C_15  and  C_16
REMARK                            x       y       z     vdW  Elec       q    Type
REMARK                         _______ _______ _______ _____ _____    ______ ____
ROOT
ATOM      1  C   UNL     1       3.347   4.204  18.940  0.00  0.00    +0.000 A 
ATOM      2  C   UNL     1       3.361   2.824  19.225  0.00  0.00    +0.000 A 
ATOM      3  C   UNL     1       2.562   2.303  20.246  0.00  0.00    +0.000 A 
ATOM      4  C   UNL     1       1.765   3.157  20.988  0.00  0.00    +0.000 A 
ATOM      5  F   UNL     1       1.024   2.668  21.990  0.00  0.00    +0.000 F 
ATOM      6  C   UNL     1       1.729   4.520  20.714  0.00  0.00    +0.000 A 
ATOM      7  C   UNL     1       2.505   5.065  19.668  0.00  0.00    +0.000 A 
ENDROOT
BRANCH   1   9
ATOM      8  N   UNL     1       5.545   5.115  18.418  0.00  0.00    +0.000 N 
ATOM      9  C   UNL     1       4.317   4.716  17.938  0.00  0.00    +0.000 C 
ATOM     10  O   UNL     1       3.979   4.793  16.763  0.00  0.00    +0.000 OA
ATOM     11  H   UNL     1       5.758   5.075  19.408  0.00  0.00    +0.000 HD
BRANCH   8  12
ATOM     12  CA  UNL     1       6.583   5.669  17.547  0.00  0.00    +0.000 C 
BRANCH  12  14
ATOM     13  C   UNL     1       7.789   7.923  17.668  0.00  0.00    +0.000 C 
ATOM     14  C   UNL     1       7.521   6.590  18.352  0.00  0.00    +0.000 C 
ENDBRANCH  12  14
BRANCH  12  15
ATOM     15  C   UNL     1       7.327   4.508  16.849  0.00  0.00    +0.000 C 
BRANCH  15  16
ATOM     16  O   UNL     1       8.371   3.998  17.680  0.00  0.00    +0.000 OA
ATOM     17  H   UNL     1       8.727   3.204  17.243  0.00  0.00    +0.000 HD
ENDBRANCH  15  16
ENDBRANCH  12  15
ENDBRANCH   8  12
ENDBRANCH   1   9
BRANCH   7  18
ATOM     18  C   UNL     1       2.360   6.547  19.412  0.00  0.00    +0.000 C 
ATOM     19  F   UNL     1       1.841   6.910  18.211  0.00  0.00    +0.000 F 
ATOM     20  F   UNL     1       1.508   7.110  20.327  0.00  0.00    +0.000 F 
ATOM     21  F   UNL     1       3.533   7.221  19.564  0.00  0.00    +0.000 F 
ENDBRANCH   7  18
TORSDOF 6
ENDMDL
MODEL 7
REMARK VINA RESULT:      -6.5      2.082      2.708
REMARK  Name = 
REMARK  7 active torsions:
REMARK  status: ('A' for Active; 'I' for Inactive)
REMARK    1  A    between atoms: C_1  and  C_2
REMARK    2  A    between atoms: C_2  and  CA_3
REMARK    3  A    between atoms: CA_3  and  C_4
REMARK    4  A    between atoms: CA_3  and  N_6
REMARK    5  A    between atoms: C_4  and  O_5
REMARK    6  A    between atoms: C_7  and  C_9
REMARK    7  A    between atoms: C_15  and  C_16
REMARK                            x       y       z     vdW  Elec       q    Type
REMARK                         _______ _______ _______ _____ _____    ______ ____
ROOT
ATOM      1  C   UNL     1       4.277   4.189  16.711  0.00  0.00    +0.000 A 
ATOM      2  C   UNL     1       3.527   3.024  16.963  0.00  0.00    +0.000 A 
ATOM      3  C   UNL     1       2.418   3.065  17.813  0.00  0.00    +0.000 A 
ATOM      4  C   UNL     1       2.069   4.260  18.418  0.00  0.00    +0.000 A 
ATOM      5  F   UNL     1       1.028   4.297  19.259  0.00  0.00    +0.000 F 
ATOM      6  C   UNL     1       2.790   5.423  18.172  0.00  0.00    +0.000 A 
ATOM      7  C   UNL     1       3.897   5.412  17.294  0.00  0.00    +0.000 A 
ENDROOT
BRANCH   1   9
ATOM      8  N   UNL     1       5.371   4.020  14.541  0.00  0.00    +0.000 N 
ATOM      9  C   UNL     1       5.521   4.054  15.910  0.00  0.00    +0.000 C 
ATOM     10  O   UNL     1       6.596   3.945  16.488  0.00  0.00    +0.000 OA
ATOM     11  H   UNL     1       4.453   4.067  14.114  0.00  0.00    +0.000 HD
BRANCH   8  12
ATOM     12  CA  UNL     1       6.508   3.859  13.633  0.00  0.00    +0.000 C 
BRANCH  12  14
ATOM     13  C   UNL     1       4.603   3.438  11.975  0.00  0.00    +0.000 C 
ATOM     14  C   UNL     1       6.059   3.167  12.331  0.00  0.00    +0.000 C 
ENDBRANCH  12  14
BRANCH  12  15
ATOM     15  C   UNL     1       7.160   5.238  13.392  0.00  0.00    +0.000 C 
BRANCH  15  16
ATOM     16  O   UNL     1       7.968   5.623  14.505  0.00  0.00    +0.000 OA
ATOM     17  H   UNL     1       7.727   6.538  14.735  0.00  0.00    +0.000 HD
ENDBRANCH  15  16
ENDBRANCH  12  15
ENDBRANCH   8  12
ENDBRANCH   1   9
BRANCH   7  18
ATOM     18  C   UNL     1       4.585   6.735  17.048  0.00  0.00    +0.000 C 
ATOM     19  F   UNL     1       3.982   7.839  17.556  0.00  0.00    +0.000 F 
ATOM     20  F   UNL     1       5.830   6.741  17.624  0.00  0.00    +0.000 F 
ATOM     21  F   UNL     1       4.809   6.969  15.726  0.00  0.00    +0.000 F 
ENDBRANCH   7  18
TORSDOF 6
ENDMDL
MODEL 8
REMARK VINA RESULT:      -6.5      2.078      3.263
REMARK  Name = 
REMARK  7 active torsions:
REMARK  status: ('A' for Active; 'I' for Inactive)
REMARK    1  A    between atoms: C_1  and  C_2
REMARK    2  A    between atoms: C_2  and  CA_3
REMARK    3  A    between atoms: CA_3  and  C_4
REMARK    4  A    between atoms: CA_3  and  N_6
REMARK    5  A    between atoms: C_4  and  O_5
REMARK    6  A    between atoms: C_7  and  C_9
REMARK    7  A    between atoms: C_15  and  C_16
REMARK                            x       y       z     vdW  Elec       q    Type
REMARK                         _______ _______ _______ _____ _____    ______ ____
ROOT
ATOM      1  C   UNL     1       3.848   4.603  19.188  0.00  0.00    +0.000 A 
ATOM      2  C   UNL     1       3.311   5.598  20.029  0.00  0.00    +0.000 A 
ATOM      3  C   UNL     1       1.990   5.512  20.476  0.00  0.00    +0.000 A 
ATOM      4  C   UNL     1       1.205   4.445  20.073  0.00  0.00    +0.000 A 
ATOM      5  F   UNL     1      -0.072   4.376  20.471  0.00  0.00    +0.000 F 
ATOM      6  C   UNL     1       1.720   3.447  19.254  0.00  0.00    +0.000 A 
ATOM      7  C   UNL     1       3.062   3.498  18.813  0.00  0.00    +0.000 A 
ENDROOT
BRANCH   1   9
ATOM      8  N   UNL     1       5.314   5.694  17.578  0.00  0.00    +0.000 N 
ATOM      9  C   UNL     1       5.211   4.820  18.638  0.00  0.00    +0.000 C 
ATOM     10  O   UNL     1       6.154   4.200  19.113  0.00  0.00    +0.000 OA
ATOM     11  H   UNL     1       4.494   6.146  17.191  0.00  0.00    +0.000 HD
BRANCH   8  12
ATOM     12  CA  UNL     1       6.590   5.977  16.919  0.00  0.00    +0.000 C 
BRANCH  12  14
ATOM     13  C   UNL     1       7.786   8.127  17.625  0.00  0.00    +0.000 C 
ATOM     14  C   UNL     1       7.565   6.647  17.906  0.00  0.00    +0.000 C 
ENDBRANCH  12  14
BRANCH  12  15
ATOM     15  C   UNL     1       7.146   4.668  16.314  0.00  0.00    +0.000 C 
BRANCH  15  16
ATOM     16  O   UNL     1       8.139   4.094  17.165  0.00  0.00    +0.000 OA
ATOM     17  H   UNL     1       8.332   4.744  17.864  0.00  0.00    +0.000 HD
ENDBRANCH  15  16
ENDBRANCH  12  15
ENDBRANCH   8  12
ENDBRANCH   1   9
BRANCH   7  18
ATOM     18  C   UNL     1       3.546   2.342  17.970  0.00  0.00    +0.000 C 
ATOM     19  F   UNL     1       4.179   1.335  18.622  0.00  0.00    +0.000 F 
ATOM     20  F   UNL     1       2.490   1.725  17.350  0.00  0.00    +0.000 F 
ATOM     21  F   UNL     1       4.363   2.742  16.956  0.00  0.00    +0.000 F 
ENDBRANCH   7  18
TORSDOF 6
ENDMDL
MODEL 9
REMARK VINA RESULT:      -6.5      1.560      1.946
REMARK  Name = 
REMARK  7 active torsions:
REMARK  status: ('A' for Active; 'I' for Inactive)
REMARK    1  A    between atoms: C_1  and  C_2
REMARK    2  A    between atoms: C_2  and  CA_3
REMARK    3  A    between atoms: CA_3  and  C_4
REMARK    4  A    between atoms: CA_3  and  N_6
REMARK    5  A    between atoms: C_4  and  O_5
REMARK    6  A    between atoms: C_7  and  C_9
REMARK    7  A    between atoms: C_15  and  C_16
REMARK                            x       y       z     vdW  Elec       q    Type
REMARK                         _______ _______ _______ _____ _____    ______ ____
ROOT
ATOM      1  C   UNL     1       3.965   3.959  17.678  0.00  0.00    +0.000 A 
ATOM      2  C   UNL     1       3.749   2.567  17.704  0.00  0.00    +0.000 A 
ATOM      3  C   UNL     1       2.520   2.047  18.121  0.00  0.00    +0.000 A 
ATOM      4  C   UNL     1       1.518   2.913  18.523  0.00  0.00    +0.000 A 
ATOM      5  F   UNL     1       0.351   2.420  18.956  0.00  0.00    +0.000 F 
ATOM      6  C   UNL     1       1.708   4.291  18.493  0.00  0.00    +0.000 A 
ATOM      7  C   UNL     1       2.931   4.839  18.048  0.00  0.00    +0.000 A 
ENDROOT
BRANCH   1   9
ATOM      8  N   UNL     1       6.027   5.047  18.382  0.00  0.00    +0.000 N 
ATOM      9  C   UNL     1       5.332   4.444  17.357  0.00  0.00    +0.000 C 
ATOM     10  O   UNL     1       5.757   4.323  16.215  0.00  0.00    +0.000 OA
ATOM     11  H   UNL     1       5.610   5.165  19.299  0.00  0.00    +0.000 HD
BRANCH   8  12
ATOM     12  CA  UNL     1       7.370   5.599  18.198  0.00  0.00    +0.000 C 
BRANCH  12  14
ATOM     13  C   UNL     1       7.702   8.046  17.524  0.00  0.00    +0.000 C 
ATOM     14  C   UNL     1       7.371   6.635  17.057  0.00  0.00    +0.000 C 
ENDBRANCH  12  14
BRANCH  12  15
ATOM     15  C   UNL     1       7.866   6.178  19.542  0.00  0.00    +0.000 C 
BRANCH  15  16
ATOM     16  O   UNL     1       8.046   5.143  20.510  0.00  0.00    +0.000 OA
ATOM     17  H   UNL     1       7.453   5.339  21.257  0.00  0.00    +0.000 HD
ENDBRANCH  15  16
ENDBRANCH  12  15
ENDBRANCH   8  12
ENDBRANCH   1   9
BRANCH   7  18
ATOM     18  C   UNL     1       3.025   6.346  18.002  0.00  0.00    +0.000 C 
ATOM     19  F   UNL     1       3.805   6.879  17.027  0.00  0.00    +0.000 F 
ATOM     20  F   UNL     1       1.789   6.897  17.777  0.00  0.00    +0.000 F 
ATOM     21  F   UNL     1       3.437   6.881  19.184  0.00  0.00    +0.000 F 
ENDBRANCH   7  18
TORSDOF 6
ENDMDL
