MODEL 1
REMARK VINA RESULT:      -7.8      0.000      0.000
REMARK  Name = 
REMARK  4 active torsions:
REMARK  status: ('A' for Active; 'I' for Inactive)
REMARK    1  A    between atoms: C_1  and  C_2
REMARK    2  A    between atoms: C_2  and  C_3
REMARK    3  A    between atoms: C_8  and  C_9
REMARK    4  A    between atoms: C_9  and  C_10
REMARK                            x       y       z     vdW  Elec       q    Type
REMARK                         _______ _______ _______ _____ _____    ______ ____
ROOT
ATOM      1  C   UNL     1       1.610   3.033  21.416  0.00  0.00    +0.000 C 
ATOM      2  C   UNL     1       2.083   3.204  19.965  0.00  0.00    +0.000 C 
ATOM      3  C   UNL     1       1.760   1.919  19.187  0.00  0.00    +0.000 C 
ATOM      4  C   UNL     1       1.420   4.450  19.356  0.00  0.00    +0.000 C 
ATOM      5  C   UNL     1       1.982   4.749  17.971  0.00  0.00    +0.000 C 
ATOM      6  C   UNL     1       3.477   4.661  17.990  0.00  0.00    +0.000 A 
ATOM      7  C   UNL     1       4.238   5.233  16.960  0.00  0.00    +0.000 A 
ATOM      8  C   UNL     1       5.637   5.180  16.971  0.00  0.00    +0.000 A 
ATOM      9  C   UNL     1       6.278   4.558  18.055  0.00  0.00    +0.000 A 
ATOM     10  C   UNL     1       5.521   3.948  19.064  0.00  0.00    +0.000 A 
ATOM     11  C   UNL     1       4.131   3.987  19.025  0.00  0.00    +0.000 A 
ATOM     12  O   UNL     1       3.507   3.351  20.055  0.00  0.00    +0.000 OA
ENDROOT
BRANCH   8  13
ATOM     13  C   UNL     1       6.424   5.807  15.840  0.00  0.00    +0.000 C 
BRANCH  13  14
ATOM     14  C   UNL     1       6.502   5.002  14.559  0.00  0.00    +0.000 A 
ATOM     15  C   UNL     1       5.495   4.081  14.226  0.00  0.00    +0.000 A 
ATOM     16  C   UNL     1       5.520   3.412  12.999  0.00  0.00    +0.000 A 
ATOM     17  C   UNL     1       6.544   3.660  12.088  0.00  0.00    +0.000 A 
ATOM     18  C   UNL     1       7.559   4.560  12.410  0.00  0.00    +0.000 A 
ATOM     19  C   UNL     1       7.544   5.216  13.646  0.00  0.00    +0.000 A 
ENDBRANCH  13  14
ENDBRANCH   8  13
TORSDOF 2
ENDMDL
MODEL 2
REMARK VINA RESULT:      -7.8      4.947      7.412
REMARK  Name = 
REMARK  4 active torsions:
REMARK  status: ('A' for Active; 'I' for Inactive)
REMARK    1  A    between atoms: C_1  and  C_2
REMARK    2  A    between atoms: C_2  and  C_3
REMARK    3  A    between atoms: C_8  and  C_9
REMARK    4  A    between atoms: C_9  and  C_10
REMARK                            x       y       z     vdW  Elec       q    Type
REMARK                         _______ _______ _______ _____ _____    ______ ____
ROOT
ATOM      1  C   UNL     1      -0.960  12.737  18.790  0.00  0.00    +0.000 C 
ATOM      2  C   UNL     1       0.038  11.812  19.502  0.00  0.00    +0.000 C 
ATOM      3  C   UNL     1       1.132  12.672  20.150  0.00  0.00    +0.000 C 
ATOM      4  C   UNL     1      -0.713  10.939  20.520  0.00  0.00    +0.000 C 
ATOM      5  C   UNL     1       0.211   9.894  21.135  0.00  0.00    +0.000 C 
ATOM      6  C   UNL     1       1.019   9.226  20.065  0.00  0.00    +0.000 A 
ATOM      7  C   UNL     1       1.665   8.007  20.318  0.00  0.00    +0.000 A 
ATOM      8  C   UNL     1       2.407   7.355  19.324  0.00  0.00    +0.000 A 
ATOM      9  C   UNL     1       2.477   7.936  18.047  0.00  0.00    +0.000 A 
ATOM     10  C   UNL     1       1.869   9.176  17.803  0.00  0.00    +0.000 A 
ATOM     11  C   UNL     1       1.157   9.822  18.809  0.00  0.00    +0.000 A 
ATOM     12  O   UNL     1       0.621  11.023  18.455  0.00  0.00    +0.000 OA
ENDROOT
BRANCH   8  13
ATOM     13  C   UNL     1       3.092   6.042  19.634  0.00  0.00    +0.000 C 
BRANCH  13  14
ATOM     14  C   UNL     1       2.302   4.788  19.321  0.00  0.00    +0.000 A 
ATOM     15  C   UNL     1       2.535   4.070  18.137  0.00  0.00    +0.000 A 
ATOM     16  C   UNL     1       1.873   2.861  17.896  0.00  0.00    +0.000 A 
ATOM     17  C   UNL     1       0.981   2.354  18.837  0.00  0.00    +0.000 A 
ATOM     18  C   UNL     1       0.728   3.063  20.011  0.00  0.00    +0.000 A 
ATOM     19  C   UNL     1       1.376   4.281  20.243  0.00  0.00    +0.000 A 
ENDBRANCH  13  14
ENDBRANCH   8  13
TORSDOF 2
ENDMDL
MODEL 3
REMARK VINA RESULT:      -7.7      5.091      7.585
REMARK  Name = 
REMARK  4 active torsions:
REMARK  status: ('A' for Active; 'I' for Inactive)
REMARK    1  A    between atoms: C_1  and  C_2
REMARK    2  A    between atoms: C_2  and  C_3
REMARK    3  A    between atoms: C_8  and  C_9
REMARK    4  A    between atoms: C_9  and  C_10
REMARK                            x       y       z     vdW  Elec       q    Type
REMARK                         _______ _______ _______ _____ _____    ______ ____
ROOT
ATOM      1  C   UNL     1      -1.568  12.640  20.258  0.00  0.00    +0.000 C 
ATOM      2  C   UNL     1      -0.340  11.763  20.543  0.00  0.00    +0.000 C 
ATOM      3  C   UNL     1       0.820  12.668  20.986  0.00  0.00    +0.000 C 
ATOM      4  C   UNL     1      -0.703  10.704  21.595  0.00  0.00    +0.000 C 
ATOM      5  C   UNL     1       0.437   9.711  21.792  0.00  0.00    +0.000 C 
ATOM      6  C   UNL     1       0.965   9.261  20.464  0.00  0.00    +0.000 A 
ATOM      7  C   UNL     1       1.751   8.104  20.365  0.00  0.00    +0.000 A 
ATOM      8  C   UNL     1       2.235   7.655  19.130  0.00  0.00    +0.000 A 
ATOM      9  C   UNL     1       1.898   8.376  17.973  0.00  0.00    +0.000 A 
ATOM     10  C   UNL     1       1.149   9.556  18.073  0.00  0.00    +0.000 A 
ATOM     11  C   UNL     1       0.697  10.003  19.310  0.00  0.00    +0.000 A 
ATOM     12  O   UNL     1      -0.011  11.166  19.281  0.00  0.00    +0.000 OA
ENDROOT
BRANCH   8  13
ATOM     13  C   UNL     1       3.083   6.403  19.064  0.00  0.00    +0.000 C 
BRANCH  13  14
ATOM     14  C   UNL     1       2.350   5.091  19.254  0.00  0.00    +0.000 A 
ATOM     15  C   UNL     1       1.947   4.673  20.533  0.00  0.00    +0.000 A 
ATOM     16  C   UNL     1       1.187   3.510  20.694  0.00  0.00    +0.000 A 
ATOM     17  C   UNL     1       0.814   2.759  19.583  0.00  0.00    +0.000 A 
ATOM     18  C   UNL     1       1.219   3.153  18.308  0.00  0.00    +0.000 A 
ATOM     19  C   UNL     1       1.995   4.306  18.148  0.00  0.00    +0.000 A 
ENDBRANCH  13  14
ENDBRANCH   8  13
TORSDOF 2
ENDMDL
MODEL 4
REMARK VINA RESULT:      -7.6      1.954      6.772
REMARK  Name = 
REMARK  4 active torsions:
REMARK  status: ('A' for Active; 'I' for Inactive)
REMARK    1  A    between atoms: C_1  and  C_2
REMARK    2  A    between atoms: C_2  and  C_3
REMARK    3  A    between atoms: C_8  and  C_9
REMARK    4  A    between atoms: C_9  and  C_10
REMARK                            x       y       z     vdW  Elec       q    Type
REMARK                         _______ _______ _______ _____ _____    ______ ____
ROOT
ATOM      1  C   UNL     1       7.742   5.489  13.638  0.00  0.00    +0.000 C 
ATOM      2  C   UNL     1       6.632   5.004  14.582  0.00  0.00    +0.000 C 
ATOM      3  C   UNL     1       5.716   4.042  13.810  0.00  0.00    +0.000 C 
ATOM      4  C   UNL     1       7.266   4.354  15.822  0.00  0.00    +0.000 C 
ATOM      5  C   UNL     1       6.206   4.001  16.859  0.00  0.00    +0.000 C 
ATOM      6  C   UNL     1       5.263   5.150  17.045  0.00  0.00    +0.000 A 
ATOM      7  C   UNL     1       4.436   5.217  18.176  0.00  0.00    +0.000 A 
ATOM      8  C   UNL     1       3.564   6.295  18.379  0.00  0.00    +0.000 A 
ATOM      9  C   UNL     1       3.545   7.332  17.433  0.00  0.00    +0.000 A 
ATOM     10  C   UNL     1       4.338   7.248  16.280  0.00  0.00    +0.000 A 
ATOM     11  C   UNL     1       5.180   6.159  16.081  0.00  0.00    +0.000 A 
ATOM     12  O   UNL     1       5.892   6.185  14.920  0.00  0.00    +0.000 OA
ENDROOT
BRANCH   8  13
ATOM     13  C   UNL     1       2.685   6.330  19.611  0.00  0.00    +0.000 C 
BRANCH  13  14
ATOM     14  C   UNL     1       2.123   4.999  20.067  0.00  0.00    +0.000 A 
ATOM     15  C   UNL     1       1.296   4.241  19.221  0.00  0.00    +0.000 A 
ATOM     16  C   UNL     1       0.859   2.970  19.607  0.00  0.00    +0.000 A 
ATOM     17  C   UNL     1       1.249   2.440  20.834  0.00  0.00    +0.000 A 
ATOM     18  C   UNL     1       2.057   3.186  21.690  0.00  0.00    +0.000 A 
ATOM     19  C   UNL     1       2.480   4.465  21.312  0.00  0.00    +0.000 A 
ENDBRANCH  13  14
ENDBRANCH   8  13
TORSDOF 2
ENDMDL
MODEL 5
REMARK VINA RESULT:      -7.6      1.009      2.080
REMARK  Name = 
REMARK  4 active torsions:
REMARK  status: ('A' for Active; 'I' for Inactive)
REMARK    1  A    between atoms: C_1  and  C_2
REMARK    2  A    between atoms: C_2  and  C_3
REMARK    3  A    between atoms: C_8  and  C_9
REMARK    4  A    between atoms: C_9  and  C_10
REMARK                            x       y       z     vdW  Elec       q    Type
REMARK                         _______ _______ _______ _____ _____    ______ ____
ROOT
ATOM      1  C   UNL     1       0.430   3.598  20.132  0.00  0.00    +0.000 C 
ATOM      2  C   UNL     1       1.950   3.702  19.942  0.00  0.00    +0.000 C 
ATOM      3  C   UNL     1       2.591   4.062  21.291  0.00  0.00    +0.000 C 
ATOM      4  C   UNL     1       2.483   2.382  19.364  0.00  0.00    +0.000 C 
ATOM      5  C   UNL     1       3.962   2.495  19.010  0.00  0.00    +0.000 C 
ATOM      6  C   UNL     1       4.218   3.768  18.263  0.00  0.00    +0.000 A 
ATOM      7  C   UNL     1       5.399   3.935  17.525  0.00  0.00    +0.000 A 
ATOM      8  C   UNL     1       5.646   5.109  16.802  0.00  0.00    +0.000 A 
ATOM      9  C   UNL     1       4.672   6.121  16.808  0.00  0.00    +0.000 A 
ATOM     10  C   UNL     1       3.511   5.976  17.580  0.00  0.00    +0.000 A 
ATOM     11  C   UNL     1       3.292   4.814  18.313  0.00  0.00    +0.000 A 
ATOM     12  O   UNL     1       2.135   4.794  19.030  0.00  0.00    +0.000 OA
ENDROOT
BRANCH   8  13
ATOM     13  C   UNL     1       6.933   5.254  16.019  0.00  0.00    +0.000 C 
BRANCH  13  14
ATOM     14  C   UNL     1       6.868   4.871  14.555  0.00  0.00    +0.000 A 
ATOM     15  C   UNL     1       7.748   5.445  13.622  0.00  0.00    +0.000 A 
ATOM     16  C   UNL     1       7.751   5.018  12.290  0.00  0.00    +0.000 A 
ATOM     17  C   UNL     1       6.884   4.010  11.878  0.00  0.00    +0.000 A 
ATOM     18  C   UNL     1       5.994   3.440  12.788  0.00  0.00    +0.000 A 
ATOM     19  C   UNL     1       5.978   3.880  14.117  0.00  0.00    +0.000 A 
ENDBRANCH  13  14
ENDBRANCH   8  13
TORSDOF 2
ENDMDL
MODEL 6
REMARK VINA RESULT:      -7.5      1.951      6.836
REMARK  Name = 
REMARK  4 active torsions:
REMARK  status: ('A' for Active; 'I' for Inactive)
REMARK    1  A    between atoms: C_1  and  C_2
REMARK    2  A    between atoms: C_2  and  C_3
REMARK    3  A    between atoms: C_8  and  C_9
REMARK    4  A    between atoms: C_9  and  C_10
REMARK                            x       y       z     vdW  Elec       q    Type
REMARK                         _______ _______ _______ _____ _____    ______ ____
ROOT
ATOM      1  C   UNL     1       7.768   5.295  13.634  0.00  0.00    +0.000 C 
ATOM      2  C   UNL     1       6.543   4.886  14.465  0.00  0.00    +0.000 C 
ATOM      3  C   UNL     1       5.550   4.151  13.551  0.00  0.00    +0.000 C 
ATOM      4  C   UNL     1       6.999   4.030  15.657  0.00  0.00    +0.000 C 
ATOM      5  C   UNL     1       5.836   3.735  16.598  0.00  0.00    +0.000 C 
ATOM      6  C   UNL     1       5.055   4.986  16.861  0.00  0.00    +0.000 A 
ATOM      7  C   UNL     1       4.176   5.061  17.952  0.00  0.00    +0.000 A 
ATOM      8  C   UNL     1       3.455   6.230  18.227  0.00  0.00    +0.000 A 
ATOM      9  C   UNL     1       3.642   7.348  17.399  0.00  0.00    +0.000 A 
ATOM     10  C   UNL     1       4.486   7.263  16.283  0.00  0.00    +0.000 A 
ATOM     11  C   UNL     1       5.177   6.087  16.009  0.00  0.00    +0.000 A 
ATOM     12  O   UNL     1       5.957   6.124  14.893  0.00  0.00    +0.000 OA
ENDROOT
BRANCH   8  13
ATOM     13  C   UNL     1       2.513   6.271  19.412  0.00  0.00    +0.000 C 
BRANCH  13  14
ATOM     14  C   UNL     1       2.120   4.931  19.998  0.00  0.00    +0.000 A 
ATOM     15  C   UNL     1       2.592   4.532  21.260  0.00  0.00    +0.000 A 
ATOM     16  C   UNL     1       2.151   3.338  21.839  0.00  0.00    +0.000 A 
ATOM     17  C   UNL     1       1.230   2.535  21.171  0.00  0.00    +0.000 A 
ATOM     18  C   UNL     1       0.764   2.910  19.911  0.00  0.00    +0.000 A 
ATOM     19  C   UNL     1       1.219   4.095  19.323  0.00  0.00    +0.000 A 
ENDBRANCH  13  14
ENDBRANCH   8  13
TORSDOF 2
ENDMDL
MODEL 7
REMARK VINA RESULT:      -7.5      3.987      5.647
REMARK  Name = 
REMARK  4 active torsions:
REMARK  status: ('A' for Active; 'I' for Inactive)
REMARK    1  A    between atoms: C_1  and  C_2
REMARK    2  A    between atoms: C_2  and  C_3
REMARK    3  A    between atoms: C_8  and  C_9
REMARK    4  A    between atoms: C_9  and  C_10
REMARK                            x       y       z     vdW  Elec       q    Type
REMARK                         _______ _______ _______ _____ _____    ______ ____
ROOT
ATOM      1  C   UNL     1       0.440  11.731  20.716  0.00  0.00    +0.000 C 
ATOM      2  C   UNL     1       0.527  10.562  19.724  0.00  0.00    +0.000 C 
ATOM      3  C   UNL     1      -0.857  10.351  19.090  0.00  0.00    +0.000 C 
ATOM      4  C   UNL     1       1.619  10.857  18.683  0.00  0.00    +0.000 C 
ATOM      5  C   UNL     1       1.849   9.656  17.774  0.00  0.00    +0.000 C 
ATOM      6  C   UNL     1       1.945   8.402  18.589  0.00  0.00    +0.000 A 
ATOM      7  C   UNL     1       2.503   7.237  18.042  0.00  0.00    +0.000 A 
ATOM      8  C   UNL     1       2.622   6.062  18.795  0.00  0.00    +0.000 A 
ATOM      9  C   UNL     1       2.190   6.073  20.131  0.00  0.00    +0.000 A 
ATOM     10  C   UNL     1       1.592   7.221  20.668  0.00  0.00    +0.000 A 
ATOM     11  C   UNL     1       1.458   8.373  19.899  0.00  0.00    +0.000 A 
ATOM     12  O   UNL     1       0.853   9.419  20.527  0.00  0.00    +0.000 OA
ENDROOT
BRANCH   8  13
ATOM     13  C   UNL     1       3.227   4.824  18.169  0.00  0.00    +0.000 C 
BRANCH  13  14
ATOM     14  C   UNL     1       4.737   4.813  18.040  0.00  0.00    +0.000 A 
ATOM     15  C   UNL     1       5.353   4.391  16.850  0.00  0.00    +0.000 A 
ATOM     16  C   UNL     1       6.741   4.473  16.701  0.00  0.00    +0.000 A 
ATOM     17  C   UNL     1       7.526   4.985  17.731  0.00  0.00    +0.000 A 
ATOM     18  C   UNL     1       6.930   5.394  18.923  0.00  0.00    +0.000 A 
ATOM     19  C   UNL     1       5.543   5.295  19.080  0.00  0.00    +0.000 A 
ENDBRANCH  13  14
ENDBRANCH   8  13
TORSDOF 2
ENDMDL
MODEL 8
REMARK VINA RESULT:      -7.5      0.478      1.203
REMARK  Name = 
REMARK  4 active torsions:
REMARK  status: ('A' for Active; 'I' for Inactive)
REMARK    1  A    between atoms: C_1  and  C_2
REMARK    2  A    between atoms: C_2  and  C_3
REMARK    3  A    between atoms: C_8  and  C_9
REMARK    4  A    between atoms: C_9  and  C_10
REMARK                            x       y       z     vdW  Elec       q    Type
REMARK                         _______ _______ _______ _____ _____    ______ ____
ROOT
ATOM      1  C   UNL     1       1.459   2.872  21.490  0.00  0.00    +0.000 C 
ATOM      2  C   UNL     1       1.788   3.329  20.062  0.00  0.00    +0.000 C 
ATOM      3  C   UNL     1       1.001   2.456  19.072  0.00  0.00    +0.000 C 
ATOM      4  C   UNL     1       1.468   4.825  19.919  0.00  0.00    +0.000 C 
ATOM      5  C   UNL     1       1.928   5.359  18.567  0.00  0.00    +0.000 C 
ATOM      6  C   UNL     1       3.317   4.884  18.270  0.00  0.00    +0.000 A 
ATOM      7  C   UNL     1       4.089   5.513  17.282  0.00  0.00    +0.000 A 
ATOM      8  C   UNL     1       5.398   5.098  17.006  0.00  0.00    +0.000 A 
ATOM      9  C   UNL     1       5.942   4.044  17.757  0.00  0.00    +0.000 A 
ATOM     10  C   UNL     1       5.159   3.384  18.714  0.00  0.00    +0.000 A 
ATOM     11  C   UNL     1       3.852   3.792  18.959  0.00  0.00    +0.000 A 
ATOM     12  O   UNL     1       3.190   3.068  19.904  0.00  0.00    +0.000 OA
ENDROOT
BRANCH   8  13
ATOM     13  C   UNL     1       6.199   5.800  15.930  0.00  0.00    +0.000 C 
BRANCH  13  14
ATOM     14  C   UNL     1       6.287   5.090  14.595  0.00  0.00    +0.000 A 
ATOM     15  C   UNL     1       7.432   5.214  13.790  0.00  0.00    +0.000 A 
ATOM     16  C   UNL     1       7.549   4.481  12.605  0.00  0.00    +0.000 A 
ATOM     17  C   UNL     1       6.533   3.613  12.216  0.00  0.00    +0.000 A 
ATOM     18  C   UNL     1       5.384   3.491  12.997  0.00  0.00    +0.000 A 
ATOM     19  C   UNL     1       5.258   4.238  14.173  0.00  0.00    +0.000 A 
ENDBRANCH  13  14
ENDBRANCH   8  13
TORSDOF 2
ENDMDL
MODEL 9
REMARK VINA RESULT:      -7.4      1.100      1.584
REMARK  Name = 
REMARK  4 active torsions:
REMARK  status: ('A' for Active; 'I' for Inactive)
REMARK    1  A    between atoms: C_1  and  C_2
REMARK    2  A    between atoms: C_2  and  C_3
REMARK    3  A    between atoms: C_8  and  C_9
REMARK    4  A    between atoms: C_9  and  C_10
REMARK                            x       y       z     vdW  Elec       q    Type
REMARK                         _______ _______ _______ _____ _____    ______ ____
ROOT
ATOM      1  C   UNL     1       0.698   3.253  20.482  0.00  0.00    +0.000 C 
ATOM      2  C   UNL     1       2.119   3.207  19.902  0.00  0.00    +0.000 C 
ATOM      3  C   UNL     1       3.101   2.861  21.031  0.00  0.00    +0.000 C 
ATOM      4  C   UNL     1       2.164   2.198  18.744  0.00  0.00    +0.000 C 
ATOM      5  C   UNL     1       3.513   2.235  18.035  0.00  0.00    +0.000 C 
ATOM      6  C   UNL     1       3.920   3.654  17.775  0.00  0.00    +0.000 A 
ATOM      7  C   UNL     1       4.920   3.947  16.836  0.00  0.00    +0.000 A 
ATOM      8  C   UNL     1       5.298   5.268  16.563  0.00  0.00    +0.000 A 
ATOM      9  C   UNL     1       4.638   6.309  17.235  0.00  0.00    +0.000 A 
ATOM     10  C   UNL     1       3.669   6.019  18.205  0.00  0.00    +0.000 A 
ATOM     11  C   UNL     1       3.322   4.700  18.482  0.00  0.00    +0.000 A 
ATOM     12  O   UNL     1       2.377   4.544  19.450  0.00  0.00    +0.000 OA
ENDROOT
BRANCH   8  13
ATOM     13  C   UNL     1       6.384   5.545  15.545  0.00  0.00    +0.000 C 
BRANCH  13  14
ATOM     14  C   UNL     1       6.307   4.752  14.257  0.00  0.00    +0.000 A 
ATOM     15  C   UNL     1       5.119   4.100  13.885  0.00  0.00    +0.000 A 
ATOM     16  C   UNL     1       5.021   3.450  12.651  0.00  0.00    +0.000 A 
ATOM     17  C   UNL     1       6.101   3.452  11.772  0.00  0.00    +0.000 A 
ATOM     18  C   UNL     1       7.292   4.081  12.133  0.00  0.00    +0.000 A 
ATOM     19  C   UNL     1       7.397   4.716  13.376  0.00  0.00    +0.000 A 
ENDBRANCH  13  14
ENDBRANCH   8  13
TORSDOF 2
ENDMDL
