MODEL 1
REMARK VINA RESULT:      -6.5      0.000      0.000
REMARK  Name = 
REMARK  3 active torsions:
REMARK  status: ('A' for Active; 'I' for Inactive)
REMARK    1  A    between atoms: C_1  and  N_2
REMARK    2  A    between atoms: C_5  and  C_6
REMARK    3  A    between atoms: C_6  and  N_7
REMARK                            x       y       z     vdW  Elec       q    Type
REMARK                         _______ _______ _______ _____ _____    ______ ____
ROOT
ATOM      1  C   UNL     1       5.660   5.295  17.643  0.00  0.00    +0.000 C 
ENDROOT
BRANCH   1   2
ATOM      2  N   UNL     1       4.343   4.803  18.106  0.00  0.00    +0.000 NA
ATOM      3  C   UNL     1       3.477   5.895  18.579  0.00  0.00    +0.000 C 
ATOM      4  C   UNL     1       2.160   5.458  19.232  0.00  0.00    +0.000 C 
ATOM      5  N   UNL     1       2.322   4.304  20.080  0.00  0.00    +0.000 N 
ATOM      6  C   UNL     1       1.455   3.842  21.023  0.00  0.00    +0.000 A 
ATOM      7  C   UNL     1       2.059   2.706  21.513  0.00  0.00    +0.000 A 
ATOM      8  N   UNL     1       3.260   2.484  20.891  0.00  0.00    +0.000 NA
ATOM      9  C   UNL     1       3.397   3.468  20.019  0.00  0.00    +0.000 A 
ATOM     10  C   UNL     1       4.557   3.731  19.113  0.00  0.00    +0.000 C 
ENDBRANCH   1   2
BRANCH   1  15
ATOM     11  C   UNL     1       6.789   3.823  12.186  0.00  0.00    +0.000 C 
ATOM     12  N   UNL     1       6.507   4.206  13.556  0.00  0.00    +0.000 N 
ATOM     13  C   UNL     1       5.411   3.686  14.218  0.00  0.00    +0.000 A 
ATOM     14  C   UNL     1       5.145   4.021  15.489  0.00  0.00    +0.000 A 
ATOM     15  C   UNL     1       6.026   4.922  16.218  0.00  0.00    +0.000 A 
ATOM     16  C   UNL     1       7.079   5.458  15.577  0.00  0.00    +0.000 A 
ATOM     17  C   UNL     1       7.374   5.116  14.158  0.00  0.00    +0.000 A 
ATOM     18  O   UNL     1       8.334   5.635  13.597  0.00  0.00    +0.000 OA
ENDBRANCH   1  15
TORSDOF 2
ENDMDL
MODEL 2
REMARK VINA RESULT:      -6.4      4.131      5.767
REMARK  Name = 
REMARK  3 active torsions:
REMARK  status: ('A' for Active; 'I' for Inactive)
REMARK    1  A    between atoms: C_1  and  N_2
REMARK    2  A    between atoms: C_5  and  C_6
REMARK    3  A    between atoms: C_6  and  N_7
REMARK                            x       y       z     vdW  Elec       q    Type
REMARK                         _______ _______ _______ _____ _____    ______ ____
ROOT
ATOM      1  C   UNL     1       3.174   7.291  17.964  0.00  0.00    +0.000 C 
ENDROOT
BRANCH   1   2
ATOM      2  N   UNL     1       1.944   7.925  18.488  0.00  0.00    +0.000 NA
ATOM      3  C   UNL     1       1.746   9.282  17.951  0.00  0.00    +0.000 C 
ATOM      4  C   UNL     1       0.588  10.075  18.570  0.00  0.00    +0.000 C 
ATOM      5  N   UNL     1       0.493   9.888  19.996  0.00  0.00    +0.000 N 
ATOM      6  C   UNL     1      -0.203  10.650  20.885  0.00  0.00    +0.000 A 
ATOM      7  C   UNL     1       0.002  10.030  22.098  0.00  0.00    +0.000 A 
ATOM      8  N   UNL     1       0.803   8.927  21.952  0.00  0.00    +0.000 NA
ATOM      9  C   UNL     1       1.085   8.858  20.663  0.00  0.00    +0.000 A 
ATOM     10  C   UNL     1       1.969   7.869  19.973  0.00  0.00    +0.000 C 
ENDBRANCH   1   2
BRANCH   1  15
ATOM     11  C   UNL     1       3.516   1.558  18.449  0.00  0.00    +0.000 C 
ATOM     12  N   UNL     1       3.419   3.001  18.334  0.00  0.00    +0.000 N 
ATOM     13  C   UNL     1       4.538   3.793  18.499  0.00  0.00    +0.000 A 
ATOM     14  C   UNL     1       4.467   5.128  18.383  0.00  0.00    +0.000 A 
ATOM     15  C   UNL     1       3.207   5.776  18.049  0.00  0.00    +0.000 A 
ATOM     16  C   UNL     1       2.104   5.019  17.915  0.00  0.00    +0.000 A 
ATOM     17  C   UNL     1       2.162   3.538  18.066  0.00  0.00    +0.000 A 
ATOM     18  O   UNL     1       1.134   2.878  17.953  0.00  0.00    +0.000 OA
ENDBRANCH   1  15
TORSDOF 2
ENDMDL
MODEL 3
REMARK VINA RESULT:      -6.4      3.982      5.651
REMARK  Name = 
REMARK  3 active torsions:
REMARK  status: ('A' for Active; 'I' for Inactive)
REMARK    1  A    between atoms: C_1  and  N_2
REMARK    2  A    between atoms: C_5  and  C_6
REMARK    3  A    between atoms: C_6  and  N_7
REMARK                            x       y       z     vdW  Elec       q    Type
REMARK                         _______ _______ _______ _____ _____    ______ ____
ROOT
ATOM      1  C   UNL     1       3.058   7.458  18.036  0.00  0.00    +0.000 C 
ENDROOT
BRANCH   1   2
ATOM      2  N   UNL     1       1.840   8.082  18.600  0.00  0.00    +0.000 NA
ATOM      3  C   UNL     1       1.649   9.460  18.121  0.00  0.00    +0.000 C 
ATOM      4  C   UNL     1       0.505  10.237  18.786  0.00  0.00    +0.000 C 
ATOM      5  N   UNL     1       0.424   9.994  20.204  0.00  0.00    +0.000 N 
ATOM      6  C   UNL     1      -0.254  10.724  21.132  0.00  0.00    +0.000 A 
ATOM      7  C   UNL     1      -0.040  10.054  22.315  0.00  0.00    +0.000 A 
ATOM      8  N   UNL     1       0.749   8.950  22.116  0.00  0.00    +0.000 NA
ATOM      9  C   UNL     1       1.016   8.932  20.821  0.00  0.00    +0.000 A 
ATOM     10  C   UNL     1       1.883   7.964  20.081  0.00  0.00    +0.000 C 
ENDBRANCH   1   2
BRANCH   1  15
ATOM     11  C   UNL     1       3.381   1.744  18.711  0.00  0.00    +0.000 C 
ATOM     12  N   UNL     1       3.312   3.182  18.536  0.00  0.00    +0.000 N 
ATOM     13  C   UNL     1       2.203   3.765  17.954  0.00  0.00    +0.000 A 
ATOM     14  C   UNL     1       2.119   5.094  17.798  0.00  0.00    +0.000 A 
ATOM     15  C   UNL     1       3.187   5.964  18.268  0.00  0.00    +0.000 A 
ATOM     16  C   UNL     1       4.285   5.408  18.810  0.00  0.00    +0.000 A 
ATOM     17  C   UNL     1       4.404   3.932  18.967  0.00  0.00    +0.000 A 
ATOM     18  O   UNL     1       5.426   3.456  19.450  0.00  0.00    +0.000 OA
ENDBRANCH   1  15
TORSDOF 2
ENDMDL
MODEL 4
REMARK VINA RESULT:      -6.3      2.511      3.212
REMARK  Name = 
REMARK  3 active torsions:
REMARK  status: ('A' for Active; 'I' for Inactive)
REMARK    1  A    between atoms: C_1  and  N_2
REMARK    2  A    between atoms: C_5  and  C_6
REMARK    3  A    between atoms: C_6  and  N_7
REMARK                            x       y       z     vdW  Elec       q    Type
REMARK                         _______ _______ _______ _____ _____    ______ ____
ROOT
ATOM      1  C   UNL     1       4.824   3.617  16.591  0.00  0.00    +0.000 C 
ENDROOT
BRANCH   1   2
ATOM      2  N   UNL     1       3.623   3.403  17.428  0.00  0.00    +0.000 NA
ATOM      3  C   UNL     1       2.804   4.620  17.547  0.00  0.00    +0.000 C 
ATOM      4  C   UNL     1       1.632   4.533  18.534  0.00  0.00    +0.000 C 
ATOM      5  N   UNL     1       1.978   3.826  19.740  0.00  0.00    +0.000 N 
ATOM      6  C   UNL     1       1.299   3.822  20.921  0.00  0.00    +0.000 A 
ATOM      7  C   UNL     1       2.021   2.970  21.726  0.00  0.00    +0.000 A 
ATOM      8  N   UNL     1       3.111   2.473  21.058  0.00  0.00    +0.000 NA
ATOM      9  C   UNL     1       3.061   3.005  19.849  0.00  0.00    +0.000 A 
ATOM     10  C   UNL     1       4.044   2.835  18.736  0.00  0.00    +0.000 C 
ENDBRANCH   1   2
BRANCH   1  15
ATOM     11  C   UNL     1       8.201   7.955  18.321  0.00  0.00    +0.000 C 
ATOM     12  N   UNL     1       7.349   6.861  17.898  0.00  0.00    +0.000 N 
ATOM     13  C   UNL     1       6.450   7.033  16.863  0.00  0.00    +0.000 A 
ATOM     14  C   UNL     1       5.664   6.026  16.453  0.00  0.00    +0.000 A 
ATOM     15  C   UNL     1       5.760   4.711  17.070  0.00  0.00    +0.000 A 
ATOM     16  C   UNL     1       6.610   4.538  18.097  0.00  0.00    +0.000 A 
ATOM     17  C   UNL     1       7.471   5.653  18.581  0.00  0.00    +0.000 A 
ATOM     18  O   UNL     1       8.225   5.466  19.532  0.00  0.00    +0.000 OA
ENDBRANCH   1  15
TORSDOF 2
ENDMDL
MODEL 5
REMARK VINA RESULT:      -6.3      5.145      7.229
REMARK  Name = 
REMARK  3 active torsions:
REMARK  status: ('A' for Active; 'I' for Inactive)
REMARK    1  A    between atoms: C_1  and  N_2
REMARK    2  A    between atoms: C_5  and  C_6
REMARK    3  A    between atoms: C_6  and  N_7
REMARK                            x       y       z     vdW  Elec       q    Type
REMARK                         _______ _______ _______ _____ _____    ______ ____
ROOT
ATOM      1  C   UNL     1       2.259   7.640  19.980  0.00  0.00    +0.000 C 
ENDROOT
BRANCH   1   2
ATOM      2  N   UNL     1       1.025   8.417  20.231  0.00  0.00    +0.000 NA
ATOM      3  C   UNL     1       0.913   9.586  19.343  0.00  0.00    +0.000 C 
ATOM      4  C   UNL     1      -0.249  10.539  19.649  0.00  0.00    +0.000 C 
ATOM      5  N   UNL     1      -0.439  10.740  21.063  0.00  0.00    +0.000 N 
ATOM      6  C   UNL     1      -1.159  11.725  21.669  0.00  0.00    +0.000 A 
ATOM      7  C   UNL     1      -1.053  11.445  23.013  0.00  0.00    +0.000 A 
ATOM      8  N   UNL     1      -0.288  10.326  23.220  0.00  0.00    +0.000 NA
ATOM      9  C   UNL     1       0.071   9.912  22.018  0.00  0.00    +0.000 A 
ATOM     10  C   UNL     1       0.956   8.757  21.676  0.00  0.00    +0.000 C 
ENDBRANCH   1   2
BRANCH   1  15
ATOM     11  C   UNL     1       1.645   2.032  18.803  0.00  0.00    +0.000 C 
ATOM     12  N   UNL     1       1.806   3.440  19.110  0.00  0.00    +0.000 N 
ATOM     13  C   UNL     1       2.215   4.328  18.134  0.00  0.00    +0.000 A 
ATOM     14  C   UNL     1       2.355   5.635  18.400  0.00  0.00    +0.000 A 
ATOM     15  C   UNL     1       2.050   6.159  19.723  0.00  0.00    +0.000 A 
ATOM     16  C   UNL     1       1.679   5.302  20.690  0.00  0.00    +0.000 A 
ATOM     17  C   UNL     1       1.543   3.844  20.417  0.00  0.00    +0.000 A 
ATOM     18  O   UNL     1       1.218   3.086  21.326  0.00  0.00    +0.000 OA
ENDBRANCH   1  15
TORSDOF 2
ENDMDL
MODEL 6
REMARK VINA RESULT:      -6.3      4.065      7.155
REMARK  Name = 
REMARK  3 active torsions:
REMARK  status: ('A' for Active; 'I' for Inactive)
REMARK    1  A    between atoms: C_1  and  N_2
REMARK    2  A    between atoms: C_5  and  C_6
REMARK    3  A    between atoms: C_6  and  N_7
REMARK                            x       y       z     vdW  Elec       q    Type
REMARK                         _______ _______ _______ _____ _____    ______ ____
ROOT
ATOM      1  C   UNL     1       3.056   6.317  19.374  0.00  0.00    +0.000 C 
ENDROOT
BRANCH   1   2
ATOM      2  N   UNL     1       3.449   5.772  18.056  0.00  0.00    +0.000 NA
ATOM      3  C   UNL     1       3.428   4.300  18.035  0.00  0.00    +0.000 C 
ATOM      4  C   UNL     1       3.983   3.650  16.761  0.00  0.00    +0.000 C 
ATOM      5  N   UNL     1       5.160   4.319  16.269  0.00  0.00    +0.000 N 
ATOM      6  C   UNL     1       6.062   3.848  15.363  0.00  0.00    +0.000 A 
ATOM      7  C   UNL     1       6.963   4.879  15.213  0.00  0.00    +0.000 A 
ATOM      8  N   UNL     1       6.624   5.944  16.007  0.00  0.00    +0.000 NA
ATOM      9  C   UNL     1       5.520   5.581  16.637  0.00  0.00    +0.000 A 
ATOM     10  C   UNL     1       4.759   6.356  17.665  0.00  0.00    +0.000 C 
ENDBRANCH   1   2
BRANCH   1  15
ATOM     11  C   UNL     1      -0.066  11.141  18.940  0.00  0.00    +0.000 C 
ATOM     12  N   UNL     1       0.710   9.922  19.056  0.00  0.00    +0.000 N 
ATOM     13  C   UNL     1       1.336   9.382  17.950  0.00  0.00    +0.000 A 
ATOM     14  C   UNL     1       2.068   8.262  18.045  0.00  0.00    +0.000 A 
ATOM     15  C   UNL     1       2.247   7.600  19.329  0.00  0.00    +0.000 A 
ATOM     16  C   UNL     1       1.619   8.098  20.408  0.00  0.00    +0.000 A 
ATOM     17  C   UNL     1       0.782   9.327  20.314  0.00  0.00    +0.000 A 
ATOM     18  O   UNL     1       0.210   9.746  21.315  0.00  0.00    +0.000 OA
ENDBRANCH   1  15
TORSDOF 2
ENDMDL
MODEL 7
REMARK VINA RESULT:      -6.2      4.715      6.942
REMARK  Name = 
REMARK  3 active torsions:
REMARK  status: ('A' for Active; 'I' for Inactive)
REMARK    1  A    between atoms: C_1  and  N_2
REMARK    2  A    between atoms: C_5  and  C_6
REMARK    3  A    between atoms: C_6  and  N_7
REMARK                            x       y       z     vdW  Elec       q    Type
REMARK                         _______ _______ _______ _____ _____    ______ ____
ROOT
ATOM      1  C   UNL     1       2.338   7.574  19.859  0.00  0.00    +0.000 C 
ENDROOT
BRANCH   1   2
ATOM      2  N   UNL     1       1.096   8.326  20.147  0.00  0.00    +0.000 NA
ATOM      3  C   UNL     1       0.928   9.484  19.253  0.00  0.00    +0.000 C 
ATOM      4  C   UNL     1      -0.244  10.414  19.592  0.00  0.00    +0.000 C 
ATOM      5  N   UNL     1      -0.389  10.625  21.010  0.00  0.00    +0.000 N 
ATOM      6  C   UNL     1      -1.108  11.600  21.632  0.00  0.00    +0.000 A 
ATOM      7  C   UNL     1      -0.948  11.336  22.974  0.00  0.00    +0.000 A 
ATOM      8  N   UNL     1      -0.152  10.235  23.164  0.00  0.00    +0.000 NA
ATOM      9  C   UNL     1       0.173   9.817  21.953  0.00  0.00    +0.000 A 
ATOM     10  C   UNL     1       1.072   8.678  21.591  0.00  0.00    +0.000 C 
ENDBRANCH   1   2
BRANCH   1  15
ATOM     11  C   UNL     1       1.472   1.922  19.142  0.00  0.00    +0.000 C 
ATOM     12  N   UNL     1       1.682   3.346  19.313  0.00  0.00    +0.000 N 
ATOM     13  C   UNL     1       1.575   3.926  20.561  0.00  0.00    +0.000 A 
ATOM     14  C   UNL     1       1.780   5.240  20.736  0.00  0.00    +0.000 A 
ATOM     15  C   UNL     1       2.151   6.088  19.613  0.00  0.00    +0.000 A 
ATOM     16  C   UNL     1       2.231   5.542  18.387  0.00  0.00    +0.000 A 
ATOM     17  C   UNL     1       1.982   4.089  18.173  0.00  0.00    +0.000 A 
ATOM     18  O   UNL     1       2.047   3.625  17.038  0.00  0.00    +0.000 OA
ENDBRANCH   1  15
TORSDOF 2
ENDMDL
MODEL 8
REMARK VINA RESULT:      -6.1      4.441      6.867
REMARK  Name = 
REMARK  3 active torsions:
REMARK  status: ('A' for Active; 'I' for Inactive)
REMARK    1  A    between atoms: C_1  and  N_2
REMARK    2  A    between atoms: C_5  and  C_6
REMARK    3  A    between atoms: C_6  and  N_7
REMARK                            x       y       z     vdW  Elec       q    Type
REMARK                         _______ _______ _______ _____ _____    ______ ____
ROOT
ATOM      1  C   UNL     1       3.022   7.528  18.012  0.00  0.00    +0.000 C 
ENDROOT
BRANCH   1   2
ATOM      2  N   UNL     1       3.182   6.193  18.631  0.00  0.00    +0.000 NA
ATOM      3  C   UNL     1       4.566   5.700  18.538  0.00  0.00    +0.000 C 
ATOM      4  C   UNL     1       4.784   4.254  19.003  0.00  0.00    +0.000 C 
ATOM      5  N   UNL     1       3.721   3.375  18.589  0.00  0.00    +0.000 N 
ATOM      6  C   UNL     1       3.734   2.013  18.566  0.00  0.00    +0.000 A 
ATOM      7  C   UNL     1       2.474   1.668  18.130  0.00  0.00    +0.000 A 
ATOM      8  N   UNL     1       1.717   2.786  17.891  0.00  0.00    +0.000 NA
ATOM      9  C   UNL     1       2.496   3.813  18.181  0.00  0.00    +0.000 A 
ATOM     10  C   UNL     1       2.177   5.268  18.045  0.00  0.00    +0.000 C 
ENDBRANCH   1   2
BRANCH   1  15
ATOM     11  C   UNL     1      -0.833  11.071  20.419  0.00  0.00    +0.000 C 
ATOM     12  N   UNL     1       0.131  10.169  19.819  0.00  0.00    +0.000 N 
ATOM     13  C   UNL     1       0.451  10.276  18.480  0.00  0.00    +0.000 A 
ATOM     14  C   UNL     1       1.351   9.458  17.915  0.00  0.00    +0.000 A 
ATOM     15  C   UNL     1       2.039   8.450  18.709  0.00  0.00    +0.000 A 
ATOM     16  C   UNL     1       1.715   8.316  20.007  0.00  0.00    +0.000 A 
ATOM     17  C   UNL     1       0.700   9.200  20.643  0.00  0.00    +0.000 A 
ATOM     18  O   UNL     1       0.415   9.041  21.827  0.00  0.00    +0.000 OA
ENDBRANCH   1  15
TORSDOF 2
ENDMDL
MODEL 9
REMARK VINA RESULT:      -6.1      3.183      6.498
REMARK  Name = 
REMARK  3 active torsions:
REMARK  status: ('A' for Active; 'I' for Inactive)
REMARK    1  A    between atoms: C_1  and  N_2
REMARK    2  A    between atoms: C_5  and  C_6
REMARK    3  A    between atoms: C_6  and  N_7
REMARK                            x       y       z     vdW  Elec       q    Type
REMARK                         _______ _______ _______ _____ _____    ______ ____
ROOT
ATOM      1  C   UNL     1       4.099   4.157  16.615  0.00  0.00    +0.000 C 
ENDROOT
BRANCH   1   2
ATOM      2  N   UNL     1       5.459   4.706  16.817  0.00  0.00    +0.000 NA
ATOM      3  C   UNL     1       6.017   4.337  18.128  0.00  0.00    +0.000 C 
ATOM      4  C   UNL     1       7.352   5.003  18.488  0.00  0.00    +0.000 C 
ATOM      5  N   UNL     1       7.401   6.388  18.093  0.00  0.00    +0.000 N 
ATOM      6  C   UNL     1       8.284   7.337  18.512  0.00  0.00    +0.000 A 
ATOM      7  C   UNL     1       7.924   8.468  17.814  0.00  0.00    +0.000 A 
ATOM      8  N   UNL     1       6.850   8.218  16.998  0.00  0.00    +0.000 NA
ATOM      9  C   UNL     1       6.552   6.943  17.182  0.00  0.00    +0.000 A 
ATOM     10  C   UNL     1       5.428   6.171  16.571  0.00  0.00    +0.000 C 
ENDBRANCH   1   2
BRANCH   1  15
ATOM     11  C   UNL     1       1.346   2.730  21.472  0.00  0.00    +0.000 C 
ATOM     12  N   UNL     1       2.044   3.099  20.256  0.00  0.00    +0.000 N 
ATOM     13  C   UNL     1       2.658   2.135  19.480  0.00  0.00    +0.000 A 
ATOM     14  C   UNL     1       3.296   2.459  18.346  0.00  0.00    +0.000 A 
ATOM     15  C   UNL     1       3.334   3.840  17.886  0.00  0.00    +0.000 A 
ATOM     16  C   UNL     1       2.766   4.792  18.646  0.00  0.00    +0.000 A 
ATOM     17  C   UNL     1       2.075   4.451  19.921  0.00  0.00    +0.000 A 
ATOM     18  O   UNL     1       1.581   5.346  20.600  0.00  0.00    +0.000 OA
ENDBRANCH   1  15
TORSDOF 2
ENDMDL
