MODEL 1
REMARK VINA RESULT:      -7.5      0.000      0.000
REMARK  Name = 
REMARK  6 active torsions:
REMARK  status: ('A' for Active; 'I' for Inactive)
REMARK    1  A    between atoms: C_1  and  N_2
REMARK    2  A    between atoms: N_2  and  C_3
REMARK    3  A    between atoms: N_2  and  C_4
REMARK    4  A    between atoms: C_4  and  C_5
REMARK    5  A    between atoms: C_5  and  N_6
REMARK    6  A    between atoms: N_16  and  C_17
REMARK                            x       y       z     vdW  Elec       q    Type
REMARK                         _______ _______ _______ _____ _____    ______ ____
ROOT
ATOM      1  N   UNL     1       4.620   3.857  19.199  0.00  0.00    +0.000 N 
ATOM      2  C   UNL     1       3.973   5.063  19.080  0.00  0.00    +0.000 A 
ATOM      3  N   UNL     1       3.170   5.421  20.042  0.00  0.00    +0.000 NA
ATOM      4  C   UNL     1       2.568   6.618  19.918  0.00  0.00    +0.000 A 
ATOM      5  S   UNL     1       1.550   7.219  21.142  0.00  0.00    +0.000 S 
ATOM      6  C   UNL     1       1.202   8.629  20.249  0.00  0.00    +0.000 A 
ATOM      7  C   UNL     1       1.863   8.661  19.031  0.00  0.00    +0.000 A 
ATOM      8  C   UNL     1       2.680   7.494  18.856  0.00  0.00    +0.000 A 
ATOM      9  C   UNL     1       3.539   7.092  17.762  0.00  0.00    +0.000 A 
ATOM     10  O   UNL     1       3.698   7.817  16.783  0.00  0.00    +0.000 OA
ATOM     11  N   UNL     1       4.179   5.861  17.930  0.00  0.00    +0.000 N 
ATOM     12  C   UNL     1       1.654   9.759  18.030  0.00  0.00    +0.000 C 
ATOM     13  C   UNL     1       0.198   9.814  17.553  0.00  0.00    +0.000 C 
ATOM     14  C   UNL     1      -0.749  10.498  18.544  0.00  0.00    +0.000 C 
ATOM     15  C   UNL     1      -1.000   9.739  19.852  0.00  0.00    +0.000 C 
ATOM     16  C   UNL     1       0.225   9.640  20.767  0.00  0.00    +0.000 C 
ATOM     17  H   UNL     1       5.152   3.516  18.398  0.00  0.00    +0.000 HD
ENDROOT
BRANCH  11  18
ATOM     18  C   UNL     1       5.003   5.393  16.871  0.00  0.00    +0.000 A 
ATOM     19  C   UNL     1       4.476   4.529  15.902  0.00  0.00    +0.000 A 
ATOM     20  C   UNL     1       5.247   4.155  14.810  0.00  0.00    +0.000 A 
ATOM     21  C   UNL     1       6.553   4.619  14.699  0.00  0.00    +0.000 A 
ATOM     22  F   UNL     1       7.289   4.264  13.637  0.00  0.00    +0.000 F 
ATOM     23  C   UNL     1       7.108   5.444  15.670  0.00  0.00    +0.000 A 
ATOM     24  C   UNL     1       6.334   5.834  16.764  0.00  0.00    +0.000 A 
ENDBRANCH  11  18
BRANCH   1  25
ATOM     25  C   UNL     1       4.020   2.768  19.948  0.00  0.00    +0.000 C 
BRANCH  25  26
ATOM     26  C   UNL     1       3.075   1.919  19.067  0.00  0.00    +0.000 C 
BRANCH  26  28
ATOM     27  C   UNL     1       1.559   2.483  20.862  0.00  0.00    +0.000 C 
ATOM     28  N   UNL     1       1.652   2.006  19.476  0.00  0.00    +0.000 NA
ATOM     29  C   UNL     1       0.915   2.928  18.601  0.00  0.00    +0.000 C 
ENDBRANCH  26  28
ENDBRANCH  25  26
ENDBRANCH   1  25
TORSDOF 4
ENDMDL
MODEL 2
REMARK VINA RESULT:      -7.3      3.814      7.692
REMARK  Name = 
REMARK  6 active torsions:
REMARK  status: ('A' for Active; 'I' for Inactive)
REMARK    1  A    between atoms: C_1  and  N_2
REMARK    2  A    between atoms: N_2  and  C_3
REMARK    3  A    between atoms: N_2  and  C_4
REMARK    4  A    between atoms: C_4  and  C_5
REMARK    5  A    between atoms: C_5  and  N_6
REMARK    6  A    between atoms: N_16  and  C_17
REMARK                            x       y       z     vdW  Elec       q    Type
REMARK                         _______ _______ _______ _____ _____    ______ ____
ROOT
ATOM      1  N   UNL     1      -0.220   9.487  21.143  0.00  0.00    +0.000 N 
ATOM      2  C   UNL     1       0.682   8.837  20.335  0.00  0.00    +0.000 A 
ATOM      3  N   UNL     1       1.098   7.660  20.711  0.00  0.00    +0.000 NA
ATOM      4  C   UNL     1       1.960   7.030  19.892  0.00  0.00    +0.000 A 
ATOM      5  S   UNL     1       2.519   5.462  20.245  0.00  0.00    +0.000 S 
ATOM      6  C   UNL     1       3.509   5.433  18.858  0.00  0.00    +0.000 A 
ATOM      7  C   UNL     1       3.410   6.598  18.112  0.00  0.00    +0.000 A 
ATOM      8  C   UNL     1       2.483   7.516  18.710  0.00  0.00    +0.000 A 
ATOM      9  C   UNL     1       2.059   8.838  18.299  0.00  0.00    +0.000 A 
ATOM     10  O   UNL     1       2.473   9.340  17.257  0.00  0.00    +0.000 OA
ATOM     11  N   UNL     1       1.138   9.458  19.149  0.00  0.00    +0.000 N 
ATOM     12  C   UNL     1       4.247   6.846  16.892  0.00  0.00    +0.000 C 
ATOM     13  C   UNL     1       5.742   6.862  17.229  0.00  0.00    +0.000 C 
ATOM     14  C   UNL     1       6.350   5.466  17.397  0.00  0.00    +0.000 C 
ATOM     15  C   UNL     1       5.880   4.682  18.629  0.00  0.00    +0.000 C 
ATOM     16  C   UNL     1       4.406   4.266  18.584  0.00  0.00    +0.000 C 
ATOM     17  H   UNL     1      -0.455  10.454  20.919  0.00  0.00    +0.000 HD
ENDROOT
BRANCH  11  18
ATOM     18  C   UNL     1       0.717  10.774  18.821  0.00  0.00    +0.000 A 
ATOM     19  C   UNL     1      -0.583  10.998  18.346  0.00  0.00    +0.000 A 
ATOM     20  C   UNL     1      -1.030  12.292  18.124  0.00  0.00    +0.000 A 
ATOM     21  C   UNL     1      -0.172  13.364  18.348  0.00  0.00    +0.000 A 
ATOM     22  F   UNL     1      -0.613  14.613  18.143  0.00  0.00    +0.000 F 
ATOM     23  C   UNL     1       1.133  13.162  18.780  0.00  0.00    +0.000 A 
ATOM     24  C   UNL     1       1.585  11.863  19.017  0.00  0.00    +0.000 A 
ENDBRANCH  11  18
BRANCH   1  25
ATOM     25  C   UNL     1      -0.235   9.248  22.574  0.00  0.00    +0.000 C 
BRANCH  25  26
ATOM     26  C   UNL     1      -0.702  10.495  23.358  0.00  0.00    +0.000 C 
BRANCH  26  28
ATOM     27  C   UNL     1      -2.655  11.910  23.212  0.00  0.00    +0.000 C 
ATOM     28  N   UNL     1      -1.431  11.479  22.522  0.00  0.00    +0.000 NA
ATOM     29  C   UNL     1      -0.593  12.655  22.253  0.00  0.00    +0.000 C 
ENDBRANCH  26  28
ENDBRANCH  25  26
ENDBRANCH   1  25
TORSDOF 4
ENDMDL
MODEL 3
REMARK VINA RESULT:      -7.3      2.445      4.497
REMARK  Name = 
REMARK  6 active torsions:
REMARK  status: ('A' for Active; 'I' for Inactive)
REMARK    1  A    between atoms: C_1  and  N_2
REMARK    2  A    between atoms: N_2  and  C_3
REMARK    3  A    between atoms: N_2  and  C_4
REMARK    4  A    between atoms: C_4  and  C_5
REMARK    5  A    between atoms: C_5  and  N_6
REMARK    6  A    between atoms: N_16  and  C_17
REMARK                            x       y       z     vdW  Elec       q    Type
REMARK                         _______ _______ _______ _____ _____    ______ ____
ROOT
ATOM      1  N   UNL     1       4.250   6.121  16.907  0.00  0.00    +0.000 N 
ATOM      2  C   UNL     1       3.342   6.697  17.763  0.00  0.00    +0.000 A 
ATOM      3  N   UNL     1       3.101   7.972  17.627  0.00  0.00    +0.000 NA
ATOM      4  C   UNL     1       2.189   8.510  18.458  0.00  0.00    +0.000 A 
ATOM      5  S   UNL     1       1.745  10.147  18.330  0.00  0.00    +0.000 S 
ATOM      6  C   UNL     1       0.680  10.028  19.655  0.00  0.00    +0.000 A 
ATOM      7  C   UNL     1       0.641   8.749  20.190  0.00  0.00    +0.000 A 
ATOM      8  C   UNL     1       1.507   7.861  19.467  0.00  0.00    +0.000 A 
ATOM      9  C   UNL     1       1.792   6.454  19.655  0.00  0.00    +0.000 A 
ATOM     10  O   UNL     1       1.223   5.803  20.527  0.00  0.00    +0.000 OA
ATOM     11  N   UNL     1       2.718   5.911  18.758  0.00  0.00    +0.000 N 
ATOM     12  C   UNL     1      -0.159   8.413  21.414  0.00  0.00    +0.000 C 
ATOM     13  C   UNL     1       0.322   9.206  22.634  0.00  0.00    +0.000 C 
ATOM     14  C   UNL     1      -0.184  10.652  22.667  0.00  0.00    +0.000 C 
ATOM     15  C   UNL     1       0.392  11.580  21.591  0.00  0.00    +0.000 C 
ATOM     16  C   UNL     1      -0.046  11.236  20.164  0.00  0.00    +0.000 C 
ATOM     17  H   UNL     1       4.533   5.158  17.085  0.00  0.00    +0.000 HD
ENDROOT
BRANCH  11  18
ATOM     18  C   UNL     1       3.070   4.544  18.919  0.00  0.00    +0.000 A 
ATOM     19  C   UNL     1       2.320   3.547  18.282  0.00  0.00    +0.000 A 
ATOM     20  C   UNL     1       2.723   2.221  18.352  0.00  0.00    +0.000 A 
ATOM     21  C   UNL     1       3.859   1.885  19.081  0.00  0.00    +0.000 A 
ATOM     22  F   UNL     1       4.251   0.605  19.136  0.00  0.00    +0.000 F 
ATOM     23  C   UNL     1       4.594   2.854  19.754  0.00  0.00    +0.000 A 
ATOM     24  C   UNL     1       4.201   4.191  19.677  0.00  0.00    +0.000 A 
ENDBRANCH  11  18
BRANCH   1  25
ATOM     25  C   UNL     1       5.335   6.904  16.345  0.00  0.00    +0.000 C 
BRANCH  25  26
ATOM     26  C   UNL     1       6.635   6.754  17.166  0.00  0.00    +0.000 C 
BRANCH  26  28
ATOM     27  C   UNL     1       7.569   4.595  17.719  0.00  0.00    +0.000 C 
ATOM     28  N   UNL     1       7.505   5.648  16.696  0.00  0.00    +0.000 NA
ATOM     29  C   UNL     1       6.986   5.073  15.448  0.00  0.00    +0.000 C 
ENDBRANCH  26  28
ENDBRANCH  25  26
ENDBRANCH   1  25
TORSDOF 4
ENDMDL
MODEL 4
REMARK VINA RESULT:      -7.2      1.540      2.459
REMARK  Name = 
REMARK  6 active torsions:
REMARK  status: ('A' for Active; 'I' for Inactive)
REMARK    1  A    between atoms: C_1  and  N_2
REMARK    2  A    between atoms: N_2  and  C_3
REMARK    3  A    between atoms: N_2  and  C_4
REMARK    4  A    between atoms: C_4  and  C_5
REMARK    5  A    between atoms: C_5  and  N_6
REMARK    6  A    between atoms: N_16  and  C_17
REMARK                            x       y       z     vdW  Elec       q    Type
REMARK                         _______ _______ _______ _____ _____    ______ ____
ROOT
ATOM      1  N   UNL     1       2.826   5.254  20.519  0.00  0.00    +0.000 N 
ATOM      2  C   UNL     1       2.320   6.495  20.217  0.00  0.00    +0.000 A 
ATOM      3  N   UNL     1       1.582   7.087  21.115  0.00  0.00    +0.000 NA
ATOM      4  C   UNL     1       1.119   8.313  20.810  0.00  0.00    +0.000 A 
ATOM      5  S   UNL     1       0.201   9.207  21.928  0.00  0.00    +0.000 S 
ATOM      6  C   UNL     1      -0.000  10.496  20.831  0.00  0.00    +0.000 A 
ATOM      7  C   UNL     1       0.638  10.266  19.622  0.00  0.00    +0.000 A 
ATOM      8  C   UNL     1       1.312   8.999  19.627  0.00  0.00    +0.000 A 
ATOM      9  C   UNL     1       2.098   8.339  18.606  0.00  0.00    +0.000 A 
ATOM     10  O   UNL     1       2.321   8.883  17.528  0.00  0.00    +0.000 OA
ATOM     11  N   UNL     1       2.595   7.080  18.960  0.00  0.00    +0.000 N 
ATOM     12  C   UNL     1       0.537  11.216  18.466  0.00  0.00    +0.000 C 
ATOM     13  C   UNL     1      -0.911  11.368  17.987  0.00  0.00    +0.000 C 
ATOM     14  C   UNL     1      -1.754  12.300  18.863  0.00  0.00    +0.000 C 
ATOM     15  C   UNL     1      -2.066  11.782  20.272  0.00  0.00    +0.000 C 
ATOM     16  C   UNL     1      -0.844  11.680  21.190  0.00  0.00    +0.000 C 
ATOM     17  H   UNL     1       3.300   4.736  19.779  0.00  0.00    +0.000 HD
ENDROOT
BRANCH  11  18
ATOM     18  C   UNL     1       3.340   6.365  17.983  0.00  0.00    +0.000 A 
ATOM     19  C   UNL     1       4.507   6.922  17.444  0.00  0.00    +0.000 A 
ATOM     20  C   UNL     1       5.291   6.183  16.570  0.00  0.00    +0.000 A 
ATOM     21  C   UNL     1       4.897   4.899  16.209  0.00  0.00    +0.000 A 
ATOM     22  F   UNL     1       5.664   4.186  15.374  0.00  0.00    +0.000 F 
ATOM     23  C   UNL     1       3.721   4.344  16.701  0.00  0.00    +0.000 A 
ATOM     24  C   UNL     1       2.935   5.077  17.591  0.00  0.00    +0.000 A 
ENDBRANCH  11  18
BRANCH   1  25
ATOM     25  C   UNL     1       2.119   4.369  21.426  0.00  0.00    +0.000 C 
BRANCH  25  26
ATOM     26  C   UNL     1       2.493   2.888  21.188  0.00  0.00    +0.000 C 
BRANCH  26  28
ATOM     27  C   UNL     1       4.477   2.037  20.104  0.00  0.00    +0.000 C 
ATOM     28  N   UNL     1       3.160   2.650  19.885  0.00  0.00    +0.000 NA
ATOM     29  C   UNL     1       2.351   1.759  19.042  0.00  0.00    +0.000 C 
ENDBRANCH  26  28
ENDBRANCH  25  26
ENDBRANCH   1  25
TORSDOF 4
ENDMDL
MODEL 5
REMARK VINA RESULT:      -7.1      1.388      1.864
REMARK  Name = 
REMARK  6 active torsions:
REMARK  status: ('A' for Active; 'I' for Inactive)
REMARK    1  A    between atoms: C_1  and  N_2
REMARK    2  A    between atoms: N_2  and  C_3
REMARK    3  A    between atoms: N_2  and  C_4
REMARK    4  A    between atoms: C_4  and  C_5
REMARK    5  A    between atoms: C_5  and  N_6
REMARK    6  A    between atoms: N_16  and  C_17
REMARK                            x       y       z     vdW  Elec       q    Type
REMARK                         _______ _______ _______ _____ _____    ______ ____
ROOT
ATOM      1  N   UNL     1       2.956   4.561  20.860  0.00  0.00    +0.000 N 
ATOM      2  C   UNL     1       2.522   5.801  20.458  0.00  0.00    +0.000 A 
ATOM      3  N   UNL     1       1.650   6.413  21.209  0.00  0.00    +0.000 NA
ATOM      4  C   UNL     1       1.259   7.638  20.811  0.00  0.00    +0.000 A 
ATOM      5  S   UNL     1       0.175   8.559  21.744  0.00  0.00    +0.000 S 
ATOM      6  C   UNL     1       0.177   9.831  20.609  0.00  0.00    +0.000 A 
ATOM      7  C   UNL     1       1.008   9.575  19.529  0.00  0.00    +0.000 A 
ATOM      8  C   UNL     1       1.657   8.302  19.668  0.00  0.00    +0.000 A 
ATOM      9  C   UNL     1       2.597   7.618  18.805  0.00  0.00    +0.000 A 
ATOM     10  O   UNL     1       3.005   8.142  17.771  0.00  0.00    +0.000 OA
ATOM     11  N   UNL     1       3.013   6.362  19.256  0.00  0.00    +0.000 N 
ATOM     12  C   UNL     1       1.115  10.506  18.358  0.00  0.00    +0.000 C 
ATOM     13  C   UNL     1      -0.230  10.662  17.639  0.00  0.00    +0.000 C 
ATOM     14  C   UNL     1      -1.198  11.616  18.345  0.00  0.00    +0.000 C 
ATOM     15  C   UNL     1      -1.750  11.125  19.689  0.00  0.00    +0.000 C 
ATOM     16  C   UNL     1      -0.702  11.028  20.802  0.00  0.00    +0.000 C 
ATOM     17  H   UNL     1       3.543   4.026  20.219  0.00  0.00    +0.000 HD
ENDROOT
BRANCH  11  18
ATOM     18  C   UNL     1       3.903   5.624  18.431  0.00  0.00    +0.000 A 
ATOM     19  C   UNL     1       3.403   4.851  17.374  0.00  0.00    +0.000 A 
ATOM     20  C   UNL     1       4.276   4.214  16.504  0.00  0.00    +0.000 A 
ATOM     21  C   UNL     1       5.649   4.323  16.703  0.00  0.00    +0.000 A 
ATOM     22  F   UNL     1       6.487   3.716  15.853  0.00  0.00    +0.000 F 
ATOM     23  C   UNL     1       6.164   5.052  17.769  0.00  0.00    +0.000 A 
ATOM     24  C   UNL     1       5.292   5.705  18.641  0.00  0.00    +0.000 A 
ENDBRANCH  11  18
BRANCH   1  25
ATOM     25  C   UNL     1       2.096   3.697  21.647  0.00  0.00    +0.000 C 
BRANCH  25  26
ATOM     26  C   UNL     1       1.685   2.429  20.864  0.00  0.00    +0.000 C 
BRANCH  26  28
ATOM     27  C   UNL     1       2.939   1.624  18.962  0.00  0.00    +0.000 C 
ATOM     28  N   UNL     1       1.885   2.550  19.399  0.00  0.00    +0.000 NA
ATOM     29  C   UNL     1       0.644   2.239  18.678  0.00  0.00    +0.000 C 
ENDBRANCH  26  28
ENDBRANCH  25  26
ENDBRANCH   1  25
TORSDOF 4
ENDMDL
MODEL 6
REMARK VINA RESULT:      -7.0      1.436      2.085
REMARK  Name = 
REMARK  6 active torsions:
REMARK  status: ('A' for Active; 'I' for Inactive)
REMARK    1  A    between atoms: C_1  and  N_2
REMARK    2  A    between atoms: N_2  and  C_3
REMARK    3  A    between atoms: N_2  and  C_4
REMARK    4  A    between atoms: C_4  and  C_5
REMARK    5  A    between atoms: C_5  and  N_6
REMARK    6  A    between atoms: N_16  and  C_17
REMARK                            x       y       z     vdW  Elec       q    Type
REMARK                         _______ _______ _______ _____ _____    ______ ____
ROOT
ATOM      1  N   UNL     1       2.952   5.181  20.437  0.00  0.00    +0.000 N 
ATOM      2  C   UNL     1       2.428   6.413  20.131  0.00  0.00    +0.000 A 
ATOM      3  N   UNL     1       1.638   6.973  21.004  0.00  0.00    +0.000 NA
ATOM      4  C   UNL     1       1.157   8.192  20.696  0.00  0.00    +0.000 A 
ATOM      5  S   UNL     1       0.171   9.047  21.787  0.00  0.00    +0.000 S 
ATOM      6  C   UNL     1      -0.016  10.346  20.699  0.00  0.00    +0.000 A 
ATOM      7  C   UNL     1       0.677  10.149  19.515  0.00  0.00    +0.000 A 
ATOM      8  C   UNL     1       1.382   8.899  19.532  0.00  0.00    +0.000 A 
ATOM      9  C   UNL     1       2.226   8.273  18.536  0.00  0.00    +0.000 A 
ATOM     10  O   UNL     1       2.480   8.838  17.475  0.00  0.00    +0.000 OA
ATOM     11  N   UNL     1       2.740   7.023  18.894  0.00  0.00    +0.000 N 
ATOM     12  C   UNL     1       0.601  11.113  18.368  0.00  0.00    +0.000 C 
ATOM     13  C   UNL     1      -0.830  11.235  17.831  0.00  0.00    +0.000 C 
ATOM     14  C   UNL     1      -1.732  12.134  18.683  0.00  0.00    +0.000 C 
ATOM     15  C   UNL     1      -2.089  11.589  20.071  0.00  0.00    +0.000 C 
ATOM     16  C   UNL     1      -0.904  11.505  21.038  0.00  0.00    +0.000 C 
ATOM     17  H   UNL     1       3.469   4.685  19.712  0.00  0.00    +0.000 HD
ENDROOT
BRANCH  11  18
ATOM     18  C   UNL     1       3.542   6.340  17.940  0.00  0.00    +0.000 A 
ATOM     19  C   UNL     1       3.217   5.032  17.558  0.00  0.00    +0.000 A 
ATOM     20  C   UNL     1       3.935   4.402  16.552  0.00  0.00    +0.000 A 
ATOM     21  C   UNL     1       4.997   5.065  15.946  0.00  0.00    +0.000 A 
ATOM     22  F   UNL     1       5.680   4.456  14.967  0.00  0.00    +0.000 F 
ATOM     23  C   UNL     1       5.362   6.347  16.338  0.00  0.00    +0.000 A 
ATOM     24  C   UNL     1       4.635   6.991  17.341  0.00  0.00    +0.000 A 
ENDBRANCH  11  18
BRANCH   1  25
ATOM     25  C   UNL     1       2.230   4.266  21.302  0.00  0.00    +0.000 C 
BRANCH  25  26
ATOM     26  C   UNL     1       2.673   2.801  21.082  0.00  0.00    +0.000 C 
BRANCH  26  28
ATOM     27  C   UNL     1       0.781   2.950  19.587  0.00  0.00    +0.000 C 
ATOM     28  N   UNL     1       1.895   2.101  20.031  0.00  0.00    +0.000 NA
ATOM     29  C   UNL     1       2.748   1.787  18.876  0.00  0.00    +0.000 C 
ENDBRANCH  26  28
ENDBRANCH  25  26
ENDBRANCH   1  25
TORSDOF 4
ENDMDL
MODEL 7
REMARK VINA RESULT:      -6.8      2.612      4.520
REMARK  Name = 
REMARK  6 active torsions:
REMARK  status: ('A' for Active; 'I' for Inactive)
REMARK    1  A    between atoms: C_1  and  N_2
REMARK    2  A    between atoms: N_2  and  C_3
REMARK    3  A    between atoms: N_2  and  C_4
REMARK    4  A    between atoms: C_4  and  C_5
REMARK    5  A    between atoms: C_5  and  N_6
REMARK    6  A    between atoms: N_16  and  C_17
REMARK                            x       y       z     vdW  Elec       q    Type
REMARK                         _______ _______ _______ _____ _____    ______ ____
ROOT
ATOM      1  N   UNL     1       4.516   6.286  16.810  0.00  0.00    +0.000 N 
ATOM      2  C   UNL     1       3.572   6.802  17.663  0.00  0.00    +0.000 A 
ATOM      3  N   UNL     1       3.306   8.076  17.579  0.00  0.00    +0.000 NA
ATOM      4  C   UNL     1       2.358   8.555  18.406  0.00  0.00    +0.000 A 
ATOM      5  S   UNL     1       1.881  10.187  18.341  0.00  0.00    +0.000 S 
ATOM      6  C   UNL     1       0.781   9.983  19.627  0.00  0.00    +0.000 A 
ATOM      7  C   UNL     1       0.756   8.681  20.101  0.00  0.00    +0.000 A 
ATOM      8  C   UNL     1       1.662   7.846  19.364  0.00  0.00    +0.000 A 
ATOM      9  C   UNL     1       1.974   6.438  19.495  0.00  0.00    +0.000 A 
ATOM     10  O   UNL     1       1.395   5.735  20.320  0.00  0.00    +0.000 OA
ATOM     11  N   UNL     1       2.937   5.957  18.603  0.00  0.00    +0.000 N 
ATOM     12  C   UNL     1      -0.071   8.271  21.284  0.00  0.00    +0.000 C 
ATOM     13  C   UNL     1       0.356   9.016  22.553  0.00  0.00    +0.000 C 
ATOM     14  C   UNL     1      -0.183  10.448  22.637  0.00  0.00    +0.000 C 
ATOM     15  C   UNL     1       0.403  11.437  21.622  0.00  0.00    +0.000 C 
ATOM     16  C   UNL     1       0.014  11.150  20.168  0.00  0.00    +0.000 C 
ATOM     17  H   UNL     1       4.816   5.322  16.951  0.00  0.00    +0.000 HD
ENDROOT
BRANCH  11  18
ATOM     18  C   UNL     1       3.316   4.592  18.711  0.00  0.00    +0.000 A 
ATOM     19  C   UNL     1       4.246   4.197  19.682  0.00  0.00    +0.000 A 
ATOM     20  C   UNL     1       4.538   2.852  19.859  0.00  0.00    +0.000 A 
ATOM     21  C   UNL     1       3.925   1.902  19.048  0.00  0.00    +0.000 A 
ATOM     22  F   UNL     1       4.202   0.604  19.230  0.00  0.00    +0.000 F 
ATOM     23  C   UNL     1       3.031   2.277  18.052  0.00  0.00    +0.000 A 
ATOM     24  C   UNL     1       2.723   3.627  17.878  0.00  0.00    +0.000 A 
ENDBRANCH  11  18
BRANCH   1  25
ATOM     25  C   UNL     1       5.599   7.118  16.316  0.00  0.00    +0.000 C 
BRANCH  25  26
ATOM     26  C   UNL     1       6.932   6.807  17.033  0.00  0.00    +0.000 C 
BRANCH  26  28
ATOM     27  C   UNL     1       7.545   4.478  17.223  0.00  0.00    +0.000 C 
ATOM     28  N   UNL     1       6.873   5.600  17.893  0.00  0.00    +0.000 NA
ATOM     29  C   UNL     1       7.526   5.848  19.185  0.00  0.00    +0.000 C 
ENDBRANCH  26  28
ENDBRANCH  25  26
ENDBRANCH   1  25
TORSDOF 4
ENDMDL
MODEL 8
REMARK VINA RESULT:      -6.5      2.597      4.846
REMARK  Name = 
REMARK  6 active torsions:
REMARK  status: ('A' for Active; 'I' for Inactive)
REMARK    1  A    between atoms: C_1  and  N_2
REMARK    2  A    between atoms: N_2  and  C_3
REMARK    3  A    between atoms: N_2  and  C_4
REMARK    4  A    between atoms: C_4  and  C_5
REMARK    5  A    between atoms: C_5  and  N_6
REMARK    6  A    between atoms: N_16  and  C_17
REMARK                            x       y       z     vdW  Elec       q    Type
REMARK                         _______ _______ _______ _____ _____    ______ ____
ROOT
ATOM      1  N   UNL     1       4.260   6.271  17.055  0.00  0.00    +0.000 N 
ATOM      2  C   UNL     1       3.339   6.824  17.912  0.00  0.00    +0.000 A 
ATOM      3  N   UNL     1       2.965   8.053  17.693  0.00  0.00    +0.000 NA
ATOM      4  C   UNL     1       2.043   8.566  18.529  0.00  0.00    +0.000 A 
ATOM      5  S   UNL     1       1.430  10.137  18.301  0.00  0.00    +0.000 S 
ATOM      6  C   UNL     1       0.445  10.023  19.687  0.00  0.00    +0.000 A 
ATOM      7  C   UNL     1       0.560   8.794  20.319  0.00  0.00    +0.000 A 
ATOM      8  C   UNL     1       1.476   7.939  19.620  0.00  0.00    +0.000 A 
ATOM      9  C   UNL     1       1.910   6.586  19.898  0.00  0.00    +0.000 A 
ATOM     10  O   UNL     1       1.451   5.956  20.847  0.00  0.00    +0.000 OA
ATOM     11  N   UNL     1       2.844   6.064  18.997  0.00  0.00    +0.000 N 
ATOM     12  C   UNL     1      -0.145   8.482  21.606  0.00  0.00    +0.000 C 
ATOM     13  C   UNL     1       0.309   9.414  22.735  0.00  0.00    +0.000 C 
ATOM     14  C   UNL     1      -0.338  10.802  22.685  0.00  0.00    +0.000 C 
ATOM     15  C   UNL     1       0.092  11.691  21.511  0.00  0.00    +0.000 C 
ATOM     16  C   UNL     1      -0.375  11.192  20.141  0.00  0.00    +0.000 C 
ATOM     17  H   UNL     1       4.646   5.357  17.290  0.00  0.00    +0.000 HD
ENDROOT
BRANCH  11  18
ATOM     18  C   UNL     1       3.339   4.755  19.242  0.00  0.00    +0.000 A 
ATOM     19  C   UNL     1       4.708   4.553  19.464  0.00  0.00    +0.000 A 
ATOM     20  C   UNL     1       5.179   3.294  19.806  0.00  0.00    +0.000 A 
ATOM     21  C   UNL     1       4.290   2.228  19.899  0.00  0.00    +0.000 A 
ATOM     22  F   UNL     1       4.749   1.017  20.241  0.00  0.00    +0.000 F 
ATOM     23  C   UNL     1       2.935   2.399  19.643  0.00  0.00    +0.000 A 
ATOM     24  C   UNL     1       2.453   3.666  19.311  0.00  0.00    +0.000 A 
ENDBRANCH  11  18
BRANCH   1  25
ATOM     25  C   UNL     1       5.233   7.107  16.377  0.00  0.00    +0.000 C 
BRANCH  25  26
ATOM     26  C   UNL     1       6.682   6.690  16.715  0.00  0.00    +0.000 C 
BRANCH  26  28
ATOM     27  C   UNL     1       7.901   6.238  18.752  0.00  0.00    +0.000 C 
ATOM     28  N   UNL     1       7.180   7.265  17.989  0.00  0.00    +0.000 NA
ATOM     29  C   UNL     1       8.085   8.394  17.730  0.00  0.00    +0.000 C 
ENDBRANCH  26  28
ENDBRANCH  25  26
ENDBRANCH   1  25
TORSDOF 4
ENDMDL
MODEL 9
REMARK VINA RESULT:      -6.4      0.799      1.351
REMARK  Name = 
REMARK  6 active torsions:
REMARK  status: ('A' for Active; 'I' for Inactive)
REMARK    1  A    between atoms: C_1  and  N_2
REMARK    2  A    between atoms: N_2  and  C_3
REMARK    3  A    between atoms: N_2  and  C_4
REMARK    4  A    between atoms: C_4  and  C_5
REMARK    5  A    between atoms: C_5  and  N_6
REMARK    6  A    between atoms: N_16  and  C_17
REMARK                            x       y       z     vdW  Elec       q    Type
REMARK                         _______ _______ _______ _____ _____    ______ ____
ROOT
ATOM      1  N   UNL     1       4.334   4.406  19.682  0.00  0.00    +0.000 N 
ATOM      2  C   UNL     1       3.644   5.575  19.472  0.00  0.00    +0.000 A 
ATOM      3  N   UNL     1       2.800   5.958  20.389  0.00  0.00    +0.000 NA
ATOM      4  C   UNL     1       2.155   7.120  20.175  0.00  0.00    +0.000 A 
ATOM      5  S   UNL     1       1.079   7.751  21.332  0.00  0.00    +0.000 S 
ATOM      6  C   UNL     1       0.703   9.089  20.346  0.00  0.00    +0.000 A 
ATOM      7  C   UNL     1       1.399   9.076  19.147  0.00  0.00    +0.000 A 
ATOM      8  C   UNL     1       2.265   7.934  19.067  0.00  0.00    +0.000 A 
ATOM      9  C   UNL     1       3.172   7.504  18.023  0.00  0.00    +0.000 A 
ATOM     10  O   UNL     1       3.332   8.175  17.006  0.00  0.00    +0.000 OA
ATOM     11  N   UNL     1       3.854   6.311  18.283  0.00  0.00    +0.000 N 
ATOM     12  C   UNL     1       1.177  10.103  18.076  0.00  0.00    +0.000 C 
ATOM     13  C   UNL     1      -0.265  10.070  17.557  0.00  0.00    +0.000 C 
ATOM     14  C   UNL     1      -1.267  10.773  18.478  0.00  0.00    +0.000 C 
ATOM     15  C   UNL     1      -1.527  10.084  19.823  0.00  0.00    +0.000 C 
ATOM     16  C   UNL     1      -0.327  10.089  20.775  0.00  0.00    +0.000 C 
ATOM     17  H   UNL     1       4.902   4.039  18.919  0.00  0.00    +0.000 HD
ENDROOT
BRANCH  11  18
ATOM     18  C   UNL     1       4.726   5.815  17.277  0.00  0.00    +0.000 A 
ATOM     19  C   UNL     1       6.047   6.278  17.203  0.00  0.00    +0.000 A 
ATOM     20  C   UNL     1       6.929   5.720  16.289  0.00  0.00    +0.000 A 
ATOM     21  C   UNL     1       6.488   4.720  15.429  0.00  0.00    +0.000 A 
ATOM     22  F   UNL     1       7.348   4.176  14.556  0.00  0.00    +0.000 F 
ATOM     23  C   UNL     1       5.172   4.275  15.458  0.00  0.00    +0.000 A 
ATOM     24  C   UNL     1       4.282   4.824  16.383  0.00  0.00    +0.000 A 
ENDBRANCH  11  18
BRANCH   1  25
ATOM     25  C   UNL     1       3.754   3.340  20.479  0.00  0.00    +0.000 C 
BRANCH  25  26
ATOM     26  C   UNL     1       3.153   2.225  19.594  0.00  0.00    +0.000 C 
BRANCH  26  28
ATOM     27  C   UNL     1       2.509   2.091  17.269  0.00  0.00    +0.000 C 
ATOM     28  N   UNL     1       2.220   2.733  18.559  0.00  0.00    +0.000 NA
ATOM     29  C   UNL     1       0.827   2.452  18.932  0.00  0.00    +0.000 C 
ENDBRANCH  26  28
ENDBRANCH  25  26
ENDBRANCH   1  25
TORSDOF 4
ENDMDL
