MODEL 1
REMARK VINA RESULT:      -7.5      0.000      0.000
REMARK  Name = 
REMARK  13 active torsions:
REMARK  status: ('A' for Active; 'I' for Inactive)
REMARK    1  A    between atoms: C_2  and  C_4
REMARK    2  A    between atoms: C_4  and  C_5
REMARK    3  A    between atoms: N_7  and  C_8
REMARK    4  A    between atoms: C_11  and  C_12
REMARK    5  A    between atoms: C_12  and  C_13
REMARK    6  A    between atoms: C_13  and  C_14
REMARK    7  A    between atoms: C_14  and  C_15
REMARK    8  A    between atoms: C_15  and  C_16
REMARK    9  A    between atoms: C_16  and  C_17
REMARK   10  A    between atoms: C_17  and  C_18
REMARK   11  A    between atoms: C_18  and  O_19
REMARK   12  A    between atoms: O_19  and  C_20
REMARK   13  A    between atoms: C_20  and  C_21
REMARK                            x       y       z     vdW  Elec       q    Type
REMARK                         _______ _______ _______ _____ _____    ______ ____
ROOT
ATOM      1  C   UNL     1       0.807   9.787  19.480  0.00  0.00    +0.000 A 
ATOM      2  C   UNL     1       0.736   9.034  20.655  0.00  0.00    +0.000 A 
ATOM      3  C   UNL     1       1.381   7.805  20.741  0.00  0.00    +0.000 A 
ATOM      4  C   UNL     1       2.126   7.327  19.658  0.00  0.00    +0.000 A 
ATOM      5  C   UNL     1       2.155   8.062  18.467  0.00  0.00    +0.000 A 
ATOM      6  C   UNL     1       1.473   9.277  18.368  0.00  0.00    +0.000 A 
ENDROOT
BRANCH   1   9
ATOM      7  C   UNL     1       0.659  12.136  20.139  0.00  0.00    +0.000 C 
ATOM      8  O   UNL     1       1.646  12.119  20.869  0.00  0.00    +0.000 OA
ATOM      9  N   UNL     1       0.223  11.061  19.386  0.00  0.00    +0.000 N 
ATOM     10  H   UNL     1      -0.335  11.270  18.568  0.00  0.00    +0.000 HD
BRANCH   7  11
ATOM     11  C   UNL     1      -0.169  13.407  20.049  0.00  0.00    +0.000 C 
ATOM     12  C   UNL     1       0.023  14.437  21.171  0.00  0.00    +0.000 C 
ATOM     13  C   UNL     1      -1.193  13.566  21.183  0.00  0.00    +0.000 C 
BRANCH  11  15
ATOM     14  N   UNL     1      -0.889  13.180  17.780  0.00  0.00    +0.000 NA
ATOM     15  C   UNL     1      -0.542  13.984  18.721  0.00  0.00    +0.000 C 
ATOM     16  N   UNL     1      -0.466  15.330  18.591  0.00  0.00    +0.000 N 
ATOM     17  H   UNL     1      -1.091  13.715  16.933  0.00  0.00    +0.000 HD
ATOM     18  H   UNL     1      -0.262  15.685  17.661  0.00  0.00    +0.000 HD
ATOM     19  H   UNL     1       0.029  15.839  19.316  0.00  0.00    +0.000 HD
ENDBRANCH  11  15
ENDBRANCH   7  11
ENDBRANCH   1   9
BRANCH   4  20
ATOM     20  C   UNL     1       2.886   6.038  19.787  0.00  0.00    +0.000 C 
BRANCH  20  21
ATOM     21  C   UNL     1       2.443   5.239  21.013  0.00  0.00    +0.000 C 
BRANCH  21  22
ATOM     22  C   UNL     1       1.185   4.411  20.747  0.00  0.00    +0.000 C 
BRANCH  22  23
ATOM     23  C   UNL     1       1.383   2.939  21.089  0.00  0.00    +0.000 C 
BRANCH  23  24
ATOM     24  C   UNL     1       1.764   2.122  19.863  0.00  0.00    +0.000 C 
BRANCH  24  25
ATOM     25  C   UNL     1       0.856   2.520  18.713  0.00  0.00    +0.000 C 
BRANCH  25  26
ATOM     26  C   UNL     1       1.562   3.414  17.706  0.00  0.00    +0.000 C 
BRANCH  26  27
ATOM     27  O   UNL     1       2.958   3.137  17.665  0.00  0.00    +0.000 OA
BRANCH  27  28
ATOM     28  C   UNL     1       3.590   3.580  16.466  0.00  0.00    +0.000 C 
BRANCH  28  29
ATOM     29  C   UNL     1       4.860   4.359  16.807  0.00  0.00    +0.000 C 
ATOM     30  C   UNL     1       6.032   3.924  15.888  0.00  0.00    +0.000 C 
ATOM     31  C   UNL     1       7.297   4.727  16.222  0.00  0.00    +0.000 C 
ATOM     32  C   UNL     1       7.014   6.223  16.015  0.00  0.00    +0.000 C 
ATOM     33  C   UNL     1       5.867   6.676  16.933  0.00  0.00    +0.000 C 
ATOM     34  C   UNL     1       6.251   6.417  18.399  0.00  0.00    +0.000 C 
ATOM     35  C   UNL     1       6.533   4.921  18.617  0.00  0.00    +0.000 C 
ATOM     36  C   UNL     1       7.676   4.475  17.690  0.00  0.00    +0.000 C 
ATOM     37  C   UNL     1       5.270   4.115  18.278  0.00  0.00    +0.000 C 
ATOM     38  C   UNL     1       4.604   5.870  16.600  0.00  0.00    +0.000 C 
ENDBRANCH  28  29
ENDBRANCH  27  28
ENDBRANCH  26  27
ENDBRANCH  25  26
ENDBRANCH  24  25
ENDBRANCH  23  24
ENDBRANCH  22  23
ENDBRANCH  21  22
ENDBRANCH  20  21
ENDBRANCH   4  20
TORSDOF 13
ENDMDL
MODEL 2
REMARK VINA RESULT:      -7.3      1.397      2.062
REMARK  Name = 
REMARK  13 active torsions:
REMARK  status: ('A' for Active; 'I' for Inactive)
REMARK    1  A    between atoms: C_2  and  C_4
REMARK    2  A    between atoms: C_4  and  C_5
REMARK    3  A    between atoms: N_7  and  C_8
REMARK    4  A    between atoms: C_11  and  C_12
REMARK    5  A    between atoms: C_12  and  C_13
REMARK    6  A    between atoms: C_13  and  C_14
REMARK    7  A    between atoms: C_14  and  C_15
REMARK    8  A    between atoms: C_15  and  C_16
REMARK    9  A    between atoms: C_16  and  C_17
REMARK   10  A    between atoms: C_17  and  C_18
REMARK   11  A    between atoms: C_18  and  O_19
REMARK   12  A    between atoms: O_19  and  C_20
REMARK   13  A    between atoms: C_20  and  C_21
REMARK                            x       y       z     vdW  Elec       q    Type
REMARK                         _______ _______ _______ _____ _____    ______ ____
ROOT
ATOM      1  C   UNL     1       1.080  10.732  19.365  0.00  0.00    +0.000 A 
ATOM      2  C   UNL     1       0.889   9.960  20.515  0.00  0.00    +0.000 A 
ATOM      3  C   UNL     1       1.277   8.624  20.535  0.00  0.00    +0.000 A 
ATOM      4  C   UNL     1       1.882   8.053  19.412  0.00  0.00    +0.000 A 
ATOM      5  C   UNL     1       2.028   8.816  18.246  0.00  0.00    +0.000 A 
ATOM      6  C   UNL     1       1.601  10.146  18.214  0.00  0.00    +0.000 A 
ENDROOT
BRANCH   1   9
ATOM      7  C   UNL     1       1.637  13.057  18.856  0.00  0.00    +0.000 C 
ATOM      8  O   UNL     1       2.713  12.808  18.321  0.00  0.00    +0.000 OA
ATOM      9  N   UNL     1       0.760  12.100  19.336  0.00  0.00    +0.000 N 
ATOM     10  H   UNL     1      -0.214  12.364  19.405  0.00  0.00    +0.000 HD
BRANCH   7  11
ATOM     11  C   UNL     1       1.219  14.507  19.034  0.00  0.00    +0.000 C 
ATOM     12  C   UNL     1       0.087  14.782  20.033  0.00  0.00    +0.000 C 
ATOM     13  C   UNL     1      -0.213  14.806  18.568  0.00  0.00    +0.000 C 
BRANCH  11  15
ATOM     14  N   UNL     1       2.946  15.646  17.835  0.00  0.00    +0.000 NA
ATOM     15  C   UNL     1       2.217  15.611  18.892  0.00  0.00    +0.000 C 
ATOM     16  N   UNL     1       2.302  16.499  19.912  0.00  0.00    +0.000 N 
ATOM     17  H   UNL     1       3.590  16.438  17.891  0.00  0.00    +0.000 HD
ATOM     18  H   UNL     1       3.208  16.935  20.060  0.00  0.00    +0.000 HD
ATOM     19  H   UNL     1       1.846  16.250  20.783  0.00  0.00    +0.000 HD
ENDBRANCH  11  15
ENDBRANCH   7  11
ENDBRANCH   1   9
BRANCH   4  20
ATOM     20  C   UNL     1       2.371   6.634  19.469  0.00  0.00    +0.000 C 
BRANCH  20  21
ATOM     21  C   UNL     1       1.776   5.878  20.656  0.00  0.00    +0.000 C 
BRANCH  21  22
ATOM     22  C   UNL     1       2.529   4.582  20.960  0.00  0.00    +0.000 C 
BRANCH  22  23
ATOM     23  C   UNL     1       1.587   3.400  21.152  0.00  0.00    +0.000 C 
BRANCH  23  24
ATOM     24  C   UNL     1       0.584   3.288  20.012  0.00  0.00    +0.000 C 
BRANCH  24  25
ATOM     25  C   UNL     1       1.342   3.025  18.724  0.00  0.00    +0.000 C 
BRANCH  25  26
ATOM     26  C   UNL     1       2.350   1.896  18.869  0.00  0.00    +0.000 C 
BRANCH  26  27
ATOM     27  O   UNL     1       3.593   2.238  18.262  0.00  0.00    +0.000 OA
BRANCH  27  28
ATOM     28  C   UNL     1       3.466   3.189  17.208  0.00  0.00    +0.000 C 
BRANCH  28  29
ATOM     29  C   UNL     1       4.679   4.120  17.201  0.00  0.00    +0.000 C 
ATOM     30  C   UNL     1       4.261   5.560  16.804  0.00  0.00    +0.000 C 
ATOM     31  C   UNL     1       5.480   6.493  16.821  0.00  0.00    +0.000 C 
ATOM     32  C   UNL     1       6.084   6.508  18.234  0.00  0.00    +0.000 C 
ATOM     33  C   UNL     1       6.522   5.090  18.635  0.00  0.00    +0.000 C 
ATOM     34  C   UNL     1       7.564   4.571  17.630  0.00  0.00    +0.000 C 
ATOM     35  C   UNL     1       6.966   4.549  16.213  0.00  0.00    +0.000 C 
ATOM     36  C   UNL     1       6.524   5.969  15.822  0.00  0.00    +0.000 C 
ATOM     37  C   UNL     1       5.742   3.621  16.195  0.00  0.00    +0.000 C 
ATOM     38  C   UNL     1       5.303   4.159  18.615  0.00  0.00    +0.000 C 
ENDBRANCH  28  29
ENDBRANCH  27  28
ENDBRANCH  26  27
ENDBRANCH  25  26
ENDBRANCH  24  25
ENDBRANCH  23  24
ENDBRANCH  22  23
ENDBRANCH  21  22
ENDBRANCH  20  21
ENDBRANCH   4  20
TORSDOF 13
ENDMDL
MODEL 3
REMARK VINA RESULT:      -7.3      1.521      4.263
REMARK  Name = 
REMARK  13 active torsions:
REMARK  status: ('A' for Active; 'I' for Inactive)
REMARK    1  A    between atoms: C_2  and  C_4
REMARK    2  A    between atoms: C_4  and  C_5
REMARK    3  A    between atoms: N_7  and  C_8
REMARK    4  A    between atoms: C_11  and  C_12
REMARK    5  A    between atoms: C_12  and  C_13
REMARK    6  A    between atoms: C_13  and  C_14
REMARK    7  A    between atoms: C_14  and  C_15
REMARK    8  A    between atoms: C_15  and  C_16
REMARK    9  A    between atoms: C_16  and  C_17
REMARK   10  A    between atoms: C_17  and  C_18
REMARK   11  A    between atoms: C_18  and  O_19
REMARK   12  A    between atoms: O_19  and  C_20
REMARK   13  A    between atoms: C_20  and  C_21
REMARK                            x       y       z     vdW  Elec       q    Type
REMARK                         _______ _______ _______ _____ _____    ______ ____
ROOT
ATOM      1  C   UNL     1       0.672   9.736  19.427  0.00  0.00    +0.000 A 
ATOM      2  C   UNL     1       1.082   9.984  18.114  0.00  0.00    +0.000 A 
ATOM      3  C   UNL     1       2.012   9.151  17.500  0.00  0.00    +0.000 A 
ATOM      4  C   UNL     1       2.523   8.045  18.188  0.00  0.00    +0.000 A 
ATOM      5  C   UNL     1       2.145   7.828  19.519  0.00  0.00    +0.000 A 
ATOM      6  C   UNL     1       1.243   8.689  20.147  0.00  0.00    +0.000 A 
ENDROOT
BRANCH   1   9
ATOM      7  C   UNL     1      -0.002  11.575  20.888  0.00  0.00    +0.000 C 
ATOM      8  O   UNL     1       1.134  11.996  21.085  0.00  0.00    +0.000 OA
ATOM      9  N   UNL     1      -0.314  10.520  20.050  0.00  0.00    +0.000 N 
ATOM     10  H   UNL     1      -1.252  10.495  19.673  0.00  0.00    +0.000 HD
BRANCH   7  11
ATOM     11  C   UNL     1      -1.166  12.229  21.615  0.00  0.00    +0.000 C 
ATOM     12  C   UNL     1      -0.863  12.848  22.987  0.00  0.00    +0.000 C 
ATOM     13  C   UNL     1      -1.559  11.525  22.922  0.00  0.00    +0.000 C 
BRANCH  11  15
ATOM     14  N   UNL     1      -1.956  13.806  20.001  0.00  0.00    +0.000 NA
ATOM     15  C   UNL     1      -2.266  12.895  20.852  0.00  0.00    +0.000 C 
ATOM     16  N   UNL     1      -3.533  12.504  21.129  0.00  0.00    +0.000 N 
ATOM     17  H   UNL     1      -2.807  14.182  19.579  0.00  0.00    +0.000 HD
ATOM     18  H   UNL     1      -4.261  13.199  21.000  0.00  0.00    +0.000 HD
ATOM     19  H   UNL     1      -3.674  11.948  21.966  0.00  0.00    +0.000 HD
ENDBRANCH  11  15
ENDBRANCH   7  11
ENDBRANCH   1   9
BRANCH   4  20
ATOM     20  C   UNL     1       3.464   7.104  17.491  0.00  0.00    +0.000 C 
BRANCH  20  21
ATOM     21  C   UNL     1       4.818   7.032  18.196  0.00  0.00    +0.000 C 
BRANCH  21  22
ATOM     22  C   UNL     1       5.987   7.278  17.241  0.00  0.00    +0.000 C 
BRANCH  22  23
ATOM     23  C   UNL     1       7.263   6.586  17.705  0.00  0.00    +0.000 C 
BRANCH  23  24
ATOM     24  C   UNL     1       7.189   5.078  17.514  0.00  0.00    +0.000 C 
BRANCH  24  25
ATOM     25  C   UNL     1       7.236   4.775  16.027  0.00  0.00    +0.000 C 
BRANCH  25  26
ATOM     26  C   UNL     1       6.045   3.948  15.569  0.00  0.00    +0.000 C 
BRANCH  26  27
ATOM     27  O   UNL     1       4.975   4.032  16.506  0.00  0.00    +0.000 OA
BRANCH  27  28
ATOM     28  C   UNL     1       4.552   2.762  16.999  0.00  0.00    +0.000 C 
BRANCH  28  29
ATOM     29  C   UNL     1       3.482   2.953  18.074  0.00  0.00    +0.000 C 
ATOM     30  C   UNL     1       4.035   3.798  19.252  0.00  0.00    +0.000 C 
ATOM     31  C   UNL     1       2.947   4.004  20.316  0.00  0.00    +0.000 C 
ATOM     32  C   UNL     1       1.752   4.732  19.682  0.00  0.00    +0.000 C 
ATOM     33  C   UNL     1       1.180   3.898  18.524  0.00  0.00    +0.000 C 
ATOM     34  C   UNL     1       0.731   2.526  19.053  0.00  0.00    +0.000 C 
ATOM     35  C   UNL     1       1.922   1.788  19.687  0.00  0.00    +0.000 C 
ATOM     36  C   UNL     1       2.494   2.631  20.839  0.00  0.00    +0.000 C 
ATOM     37  C   UNL     1       3.014   1.586  18.625  0.00  0.00    +0.000 C 
ATOM     38  C   UNL     1       2.269   3.692  17.463  0.00  0.00    +0.000 C 
ENDBRANCH  28  29
ENDBRANCH  27  28
ENDBRANCH  26  27
ENDBRANCH  25  26
ENDBRANCH  24  25
ENDBRANCH  23  24
ENDBRANCH  22  23
ENDBRANCH  21  22
ENDBRANCH  20  21
ENDBRANCH   4  20
TORSDOF 13
ENDMDL
MODEL 4
REMARK VINA RESULT:      -7.3      5.217      9.155
REMARK  Name = 
REMARK  13 active torsions:
REMARK  status: ('A' for Active; 'I' for Inactive)
REMARK    1  A    between atoms: C_2  and  C_4
REMARK    2  A    between atoms: C_4  and  C_5
REMARK    3  A    between atoms: N_7  and  C_8
REMARK    4  A    between atoms: C_11  and  C_12
REMARK    5  A    between atoms: C_12  and  C_13
REMARK    6  A    between atoms: C_13  and  C_14
REMARK    7  A    between atoms: C_14  and  C_15
REMARK    8  A    between atoms: C_15  and  C_16
REMARK    9  A    between atoms: C_16  and  C_17
REMARK   10  A    between atoms: C_17  and  C_18
REMARK   11  A    between atoms: C_18  and  O_19
REMARK   12  A    between atoms: O_19  and  C_20
REMARK   13  A    between atoms: C_20  and  C_21
REMARK                            x       y       z     vdW  Elec       q    Type
REMARK                         _______ _______ _______ _____ _____    ______ ____
ROOT
ATOM      1  C   UNL     1       2.483   7.168  19.055  0.00  0.00    +0.000 A 
ATOM      2  C   UNL     1       1.841   7.527  20.243  0.00  0.00    +0.000 A 
ATOM      3  C   UNL     1       1.194   8.755  20.347  0.00  0.00    +0.000 A 
ATOM      4  C   UNL     1       1.164   9.626  19.254  0.00  0.00    +0.000 A 
ATOM      5  C   UNL     1       1.849   9.282  18.082  0.00  0.00    +0.000 A 
ATOM      6  C   UNL     1       2.532   8.067  17.993  0.00  0.00    +0.000 A 
ENDROOT
BRANCH   1   9
ATOM      7  C   UNL     1       2.446   4.851  18.277  0.00  0.00    +0.000 C 
ATOM      8  O   UNL     1       1.356   4.929  17.719  0.00  0.00    +0.000 OA
ATOM      9  N   UNL     1       3.087   5.909  18.897  0.00  0.00    +0.000 N 
ATOM     10  H   UNL     1       4.093   5.848  18.986  0.00  0.00    +0.000 HD
BRANCH   7  11
ATOM     11  C   UNL     1       3.158   3.509  18.321  0.00  0.00    +0.000 C 
ATOM     12  C   UNL     1       2.368   2.293  17.819  0.00  0.00    +0.000 C 
ATOM     13  C   UNL     1       2.527   2.500  19.292  0.00  0.00    +0.000 C 
BRANCH  11  15
ATOM     14  N   UNL     1       5.394   3.471  19.166  0.00  0.00    +0.000 NA
ATOM     15  C   UNL     1       4.638   3.423  18.129  0.00  0.00    +0.000 C 
ATOM     16  N   UNL     1       5.089   3.320  16.855  0.00  0.00    +0.000 N 
ATOM     17  H   UNL     1       6.373   3.424  18.877  0.00  0.00    +0.000 HD
ATOM     18  H   UNL     1       6.008   3.709  16.667  0.00  0.00    +0.000 HD
ATOM     19  H   UNL     1       4.427   3.516  16.112  0.00  0.00    +0.000 HD
ENDBRANCH  11  15
ENDBRANCH   7  11
ENDBRANCH   1   9
BRANCH   4  20
ATOM     20  C   UNL     1       0.395  10.913  19.347  0.00  0.00    +0.000 C 
BRANCH  20  21
ATOM     21  C   UNL     1       0.875  11.935  18.317  0.00  0.00    +0.000 C 
BRANCH  21  22
ATOM     22  C   UNL     1       1.284  13.262  18.958  0.00  0.00    +0.000 C 
BRANCH  22  23
ATOM     23  C   UNL     1       2.796  13.447  18.983  0.00  0.00    +0.000 C 
BRANCH  23  24
ATOM     24  C   UNL     1       3.202  14.834  18.503  0.00  0.00    +0.000 C 
BRANCH  24  25
ATOM     25  C   UNL     1       4.566  14.738  17.842  0.00  0.00    +0.000 C 
BRANCH  25  26
ATOM     26  C   UNL     1       5.701  14.930  18.835  0.00  0.00    +0.000 C 
BRANCH  26  27
ATOM     27  O   UNL     1       6.919  14.389  18.331  0.00  0.00    +0.000 OA
BRANCH  27  28
ATOM     28  C   UNL     1       8.043  14.642  19.171  0.00  0.00    +0.000 C 
BRANCH  28  29
ATOM     29  C   UNL     1       8.987  13.439  19.150  0.00  0.00    +0.000 C 
ATOM     30  C   UNL     1      10.447  13.894  18.890  0.00  0.00    +0.000 C 
ATOM     31  C   UNL     1      11.391  12.683  18.893  0.00  0.00    +0.000 C 
ATOM     32  C   UNL     1      11.309  11.983  20.258  0.00  0.00    +0.000 C 
ATOM     33  C   UNL     1       9.871  11.508  20.523  0.00  0.00    +0.000 C 
ATOM     34  C   UNL     1       9.439  10.535  19.414  0.00  0.00    +0.000 C 
ATOM     35  C   UNL     1       9.514  11.228  18.043  0.00  0.00    +0.000 C 
ATOM     36  C   UNL     1      10.953  11.706  17.789  0.00  0.00    +0.000 C 
ATOM     37  C   UNL     1       8.575  12.444  18.040  0.00  0.00    +0.000 C 
ATOM     38  C   UNL     1       8.929  12.720  20.518  0.00  0.00    +0.000 C 
ENDBRANCH  28  29
ENDBRANCH  27  28
ENDBRANCH  26  27
ENDBRANCH  25  26
ENDBRANCH  24  25
ENDBRANCH  23  24
ENDBRANCH  22  23
ENDBRANCH  21  22
ENDBRANCH  20  21
ENDBRANCH   4  20
TORSDOF 13
ENDMDL
MODEL 5
REMARK VINA RESULT:      -7.3      6.225     10.534
REMARK  Name = 
REMARK  13 active torsions:
REMARK  status: ('A' for Active; 'I' for Inactive)
REMARK    1  A    between atoms: C_2  and  C_4
REMARK    2  A    between atoms: C_4  and  C_5
REMARK    3  A    between atoms: N_7  and  C_8
REMARK    4  A    between atoms: C_11  and  C_12
REMARK    5  A    between atoms: C_12  and  C_13
REMARK    6  A    between atoms: C_13  and  C_14
REMARK    7  A    between atoms: C_14  and  C_15
REMARK    8  A    between atoms: C_15  and  C_16
REMARK    9  A    between atoms: C_16  and  C_17
REMARK   10  A    between atoms: C_17  and  C_18
REMARK   11  A    between atoms: C_18  and  O_19
REMARK   12  A    between atoms: O_19  and  C_20
REMARK   13  A    between atoms: C_20  and  C_21
REMARK                            x       y       z     vdW  Elec       q    Type
REMARK                         _______ _______ _______ _____ _____    ______ ____
ROOT
ATOM      1  C   UNL     1       5.737   5.265  18.447  0.00  0.00    +0.000 A 
ATOM      2  C   UNL     1       5.329   6.222  17.514  0.00  0.00    +0.000 A 
ATOM      3  C   UNL     1       6.144   7.313  17.227  0.00  0.00    +0.000 A 
ATOM      4  C   UNL     1       7.386   7.444  17.855  0.00  0.00    +0.000 A 
ATOM      5  C   UNL     1       7.769   6.508  18.824  0.00  0.00    +0.000 A 
ATOM      6  C   UNL     1       6.933   5.436  19.140  0.00  0.00    +0.000 A 
ENDROOT
BRANCH   1   9
ATOM      7  C   UNL     1       3.826   4.153  19.490  0.00  0.00    +0.000 C 
ATOM      8  O   UNL     1       3.318   5.178  19.934  0.00  0.00    +0.000 OA
ATOM      9  N   UNL     1       4.968   4.118  18.709  0.00  0.00    +0.000 N 
ATOM     10  H   UNL     1       5.085   3.316  18.104  0.00  0.00    +0.000 HD
BRANCH   7  11
ATOM     11  C   UNL     1       3.189   2.813  19.817  0.00  0.00    +0.000 C 
ATOM     12  C   UNL     1       2.284   2.764  21.056  0.00  0.00    +0.000 C 
ATOM     13  C   UNL     1       3.667   2.202  21.143  0.00  0.00    +0.000 C 
BRANCH  11  15
ATOM     14  N   UNL     1       3.766   1.278  18.077  0.00  0.00    +0.000 NA
ATOM     15  C   UNL     1       2.822   1.856  18.729  0.00  0.00    +0.000 C 
ATOM     16  N   UNL     1       1.501   1.676  18.487  0.00  0.00    +0.000 N 
ATOM     17  H   UNL     1       3.363   0.675  17.357  0.00  0.00    +0.000 HD
ATOM     18  H   UNL     1       1.243   1.432  17.535  0.00  0.00    +0.000 HD
ATOM     19  H   UNL     1       0.858   2.342  18.902  0.00  0.00    +0.000 HD
ENDBRANCH  11  15
ENDBRANCH   7  11
ENDBRANCH   1   9
BRANCH   4  20
ATOM     20  C   UNL     1       8.294   8.581  17.480  0.00  0.00    +0.000 C 
BRANCH  20  21
ATOM     21  C   UNL     1       8.923   9.233  18.711  0.00  0.00    +0.000 C 
BRANCH  21  22
ATOM     22  C   UNL     1       9.026  10.753  18.578  0.00  0.00    +0.000 C 
BRANCH  22  23
ATOM     23  C   UNL     1      10.319  11.184  17.897  0.00  0.00    +0.000 C 
BRANCH  23  24
ATOM     24  C   UNL     1      11.451  11.365  18.900  0.00  0.00    +0.000 C 
BRANCH  24  25
ATOM     25  C   UNL     1      10.893  12.026  20.147  0.00  0.00    +0.000 C 
BRANCH  25  26
ATOM     26  C   UNL     1      10.587  13.500  19.929  0.00  0.00    +0.000 C 
BRANCH  26  27
ATOM     27  O   UNL     1       9.978  14.072  21.083  0.00  0.00    +0.000 OA
BRANCH  27  28
ATOM     28  C   UNL     1       8.553  14.051  21.041  0.00  0.00    +0.000 C 
BRANCH  28  29
ATOM     29  C   UNL     1       8.001  13.569  22.383  0.00  0.00    +0.000 C 
ATOM     30  C   UNL     1       6.485  13.876  22.494  0.00  0.00    +0.000 C 
ATOM     31  C   UNL     1       5.935  13.370  23.835  0.00  0.00    +0.000 C 
ATOM     32  C   UNL     1       6.158  11.852  23.931  0.00  0.00    +0.000 C 
ATOM     33  C   UNL     1       7.660  11.532  23.843  0.00  0.00    +0.000 C 
ATOM     34  C   UNL     1       8.403  12.241  24.987  0.00  0.00    +0.000 C 
ATOM     35  C   UNL     1       8.188  13.761  24.897  0.00  0.00    +0.000 C 
ATOM     36  C   UNL     1       6.685  14.072  24.979  0.00  0.00    +0.000 C 
ATOM     37  C   UNL     1       8.732  14.269  23.553  0.00  0.00    +0.000 C 
ATOM     38  C   UNL     1       8.207  12.041  22.503  0.00  0.00    +0.000 C 
ENDBRANCH  28  29
ENDBRANCH  27  28
ENDBRANCH  26  27
ENDBRANCH  25  26
ENDBRANCH  24  25
ENDBRANCH  23  24
ENDBRANCH  22  23
ENDBRANCH  21  22
ENDBRANCH  20  21
ENDBRANCH   4  20
TORSDOF 13
ENDMDL
MODEL 6
REMARK VINA RESULT:      -7.2      5.317      9.169
REMARK  Name = 
REMARK  13 active torsions:
REMARK  status: ('A' for Active; 'I' for Inactive)
REMARK    1  A    between atoms: C_2  and  C_4
REMARK    2  A    between atoms: C_4  and  C_5
REMARK    3  A    between atoms: N_7  and  C_8
REMARK    4  A    between atoms: C_11  and  C_12
REMARK    5  A    between atoms: C_12  and  C_13
REMARK    6  A    between atoms: C_13  and  C_14
REMARK    7  A    between atoms: C_14  and  C_15
REMARK    8  A    between atoms: C_15  and  C_16
REMARK    9  A    between atoms: C_16  and  C_17
REMARK   10  A    between atoms: C_17  and  C_18
REMARK   11  A    between atoms: C_18  and  O_19
REMARK   12  A    between atoms: O_19  and  C_20
REMARK   13  A    between atoms: C_20  and  C_21
REMARK                            x       y       z     vdW  Elec       q    Type
REMARK                         _______ _______ _______ _____ _____    ______ ____
ROOT
ATOM      1  C   UNL     1       2.314   7.393  19.356  0.00  0.00    +0.000 A 
ATOM      2  C   UNL     1       1.583   7.971  20.397  0.00  0.00    +0.000 A 
ATOM      3  C   UNL     1       1.024   9.236  20.245  0.00  0.00    +0.000 A 
ATOM      4  C   UNL     1       1.172   9.926  19.038  0.00  0.00    +0.000 A 
ATOM      5  C   UNL     1       1.945   9.364  18.014  0.00  0.00    +0.000 A 
ATOM      6  C   UNL     1       2.539   8.111  18.184  0.00  0.00    +0.000 A 
ENDROOT
BRANCH   1   9
ATOM      7  C   UNL     1       2.404   5.057  18.644  0.00  0.00    +0.000 C 
ATOM      8  O   UNL     1       1.624   5.187  17.705  0.00  0.00    +0.000 OA
ATOM      9  N   UNL     1       2.834   6.091  19.455  0.00  0.00    +0.000 N 
ATOM     10  H   UNL     1       3.720   5.966  19.928  0.00  0.00    +0.000 HD
BRANCH   7  11
ATOM     11  C   UNL     1       2.938   3.672  18.971  0.00  0.00    +0.000 C 
ATOM     12  C   UNL     1       4.409   3.584  19.401  0.00  0.00    +0.000 C 
ATOM     13  C   UNL     1       4.031   3.182  18.011  0.00  0.00    +0.000 C 
BRANCH  11  15
ATOM     14  N   UNL     1       1.942   2.565  20.842  0.00  0.00    +0.000 NA
ATOM     15  C   UNL     1       2.044   2.629  19.563  0.00  0.00    +0.000 C 
ATOM     16  N   UNL     1       1.413   1.798  18.700  0.00  0.00    +0.000 N 
ATOM     17  H   UNL     1       1.319   1.795  21.095  0.00  0.00    +0.000 HD
ATOM     18  H   UNL     1       1.202   0.865  19.041  0.00  0.00    +0.000 HD
ATOM     19  H   UNL     1       1.737   1.793  17.738  0.00  0.00    +0.000 HD
ENDBRANCH  11  15
ENDBRANCH   7  11
ENDBRANCH   1   9
BRANCH   4  20
ATOM     20  C   UNL     1       0.498  11.255  18.852  0.00  0.00    +0.000 C 
BRANCH  20  21
ATOM     21  C   UNL     1       1.308  12.393  19.473  0.00  0.00    +0.000 C 
BRANCH  21  22
ATOM     22  C   UNL     1       1.967  13.283  18.419  0.00  0.00    +0.000 C 
BRANCH  22  23
ATOM     23  C   UNL     1       3.349  13.759  18.849  0.00  0.00    +0.000 C 
BRANCH  23  24
ATOM     24  C   UNL     1       3.917  14.788  17.882  0.00  0.00    +0.000 C 
BRANCH  24  25
ATOM     25  C   UNL     1       5.431  14.664  17.878  0.00  0.00    +0.000 C 
BRANCH  25  26
ATOM     26  C   UNL     1       6.069  15.362  19.068  0.00  0.00    +0.000 C 
BRANCH  26  27
ATOM     27  O   UNL     1       7.150  14.597  19.591  0.00  0.00    +0.000 OA
BRANCH  27  28
ATOM     28  C   UNL     1       8.377  14.796  18.893  0.00  0.00    +0.000 C 
BRANCH  28  29
ATOM     29  C   UNL     1       9.235  13.534  18.981  0.00  0.00    +0.000 C 
ATOM     30  C   UNL     1       8.796  12.498  17.914  0.00  0.00    +0.000 C 
ATOM     31  C   UNL     1       9.678  11.243  17.995  0.00  0.00    +0.000 C 
ATOM     32  C   UNL     1      11.142  11.639  17.752  0.00  0.00    +0.000 C 
ATOM     33  C   UNL     1      11.599  12.652  18.815  0.00  0.00    +0.000 C 
ATOM     34  C   UNL     1      11.454  12.029  20.213  0.00  0.00    +0.000 C 
ATOM     35  C   UNL     1       9.990  11.633  20.467  0.00  0.00    +0.000 C 
ATOM     36  C   UNL     1       9.538  10.626  19.397  0.00  0.00    +0.000 C 
ATOM     37  C   UNL     1       9.106  12.886  20.380  0.00  0.00    +0.000 C 
ATOM     38  C   UNL     1      10.716  13.904  18.733  0.00  0.00    +0.000 C 
ENDBRANCH  28  29
ENDBRANCH  27  28
ENDBRANCH  26  27
ENDBRANCH  25  26
ENDBRANCH  24  25
ENDBRANCH  23  24
ENDBRANCH  22  23
ENDBRANCH  21  22
ENDBRANCH  20  21
ENDBRANCH   4  20
TORSDOF 13
ENDMDL
MODEL 7
REMARK VINA RESULT:      -7.2      5.520      9.280
REMARK  Name = 
REMARK  13 active torsions:
REMARK  status: ('A' for Active; 'I' for Inactive)
REMARK    1  A    between atoms: C_2  and  C_4
REMARK    2  A    between atoms: C_4  and  C_5
REMARK    3  A    between atoms: N_7  and  C_8
REMARK    4  A    between atoms: C_11  and  C_12
REMARK    5  A    between atoms: C_12  and  C_13
REMARK    6  A    between atoms: C_13  and  C_14
REMARK    7  A    between atoms: C_14  and  C_15
REMARK    8  A    between atoms: C_15  and  C_16
REMARK    9  A    between atoms: C_16  and  C_17
REMARK   10  A    between atoms: C_17  and  C_18
REMARK   11  A    between atoms: C_18  and  O_19
REMARK   12  A    between atoms: O_19  and  C_20
REMARK   13  A    between atoms: C_20  and  C_21
REMARK                            x       y       z     vdW  Elec       q    Type
REMARK                         _______ _______ _______ _____ _____    ______ ____
ROOT
ATOM      1  C   UNL     1       2.388   7.012  19.310  0.00  0.00    +0.000 A 
ATOM      2  C   UNL     1       1.711   7.705  20.317  0.00  0.00    +0.000 A 
ATOM      3  C   UNL     1       1.250   8.998  20.091  0.00  0.00    +0.000 A 
ATOM      4  C   UNL     1       1.441   9.602  18.844  0.00  0.00    +0.000 A 
ATOM      5  C   UNL     1       2.162   8.922  17.854  0.00  0.00    +0.000 A 
ATOM      6  C   UNL     1       2.659   7.640  18.097  0.00  0.00    +0.000 A 
ENDROOT
BRANCH   1   9
ATOM      7  C   UNL     1       2.286   4.636  18.746  0.00  0.00    +0.000 C 
ATOM      8  O   UNL     1       1.503   4.769  17.809  0.00  0.00    +0.000 OA
ATOM      9  N   UNL     1       2.807   5.682  19.486  0.00  0.00    +0.000 N 
ATOM     10  H   UNL     1       3.688   5.518  19.955  0.00  0.00    +0.000 HD
BRANCH   7  11
ATOM     11  C   UNL     1       2.716   3.237  19.154  0.00  0.00    +0.000 C 
ATOM     12  C   UNL     1       1.704   2.108  18.919  0.00  0.00    +0.000 C 
ATOM     13  C   UNL     1       1.891   2.641  20.304  0.00  0.00    +0.000 C 
BRANCH  11  15
ATOM     14  N   UNL     1       5.053   3.740  19.102  0.00  0.00    +0.000 NA
ATOM     15  C   UNL     1       4.151   2.826  19.072  0.00  0.00    +0.000 C 
ATOM     16  N   UNL     1       4.406   1.501  18.948  0.00  0.00    +0.000 N 
ATOM     17  H   UNL     1       5.977   3.310  19.015  0.00  0.00    +0.000 HD
ATOM     18  H   UNL     1       5.254   1.246  18.451  0.00  0.00    +0.000 HD
ATOM     19  H   UNL     1       3.624   0.898  18.711  0.00  0.00    +0.000 HD
ENDBRANCH  11  15
ENDBRANCH   7  11
ENDBRANCH   1   9
BRANCH   4  20
ATOM     20  C   UNL     1       0.869  10.966  18.582  0.00  0.00    +0.000 C 
BRANCH  20  21
ATOM     21  C   UNL     1       1.963  12.030  18.490  0.00  0.00    +0.000 C 
BRANCH  21  22
ATOM     22  C   UNL     1       1.393  13.444  18.368  0.00  0.00    +0.000 C 
BRANCH  22  23
ATOM     23  C   UNL     1       2.437  14.513  18.666  0.00  0.00    +0.000 C 
BRANCH  23  24
ATOM     24  C   UNL     1       3.853  13.981  18.491  0.00  0.00    +0.000 C 
BRANCH  24  25
ATOM     25  C   UNL     1       4.809  15.160  18.429  0.00  0.00    +0.000 C 
BRANCH  25  26
ATOM     26  C   UNL     1       6.039  14.860  17.588  0.00  0.00    +0.000 C 
BRANCH  26  27
ATOM     27  O   UNL     1       7.019  14.158  18.346  0.00  0.00    +0.000 OA
BRANCH  27  28
ATOM     28  C   UNL     1       7.815  13.272  17.563  0.00  0.00    +0.000 C 
BRANCH  28  29
ATOM     29  C   UNL     1       9.129  12.977  18.288  0.00  0.00    +0.000 C 
ATOM     30  C   UNL     1       9.272  11.457  18.565  0.00  0.00    +0.000 C 
ATOM     31  C   UNL     1      10.603  11.167  19.273  0.00  0.00    +0.000 C 
ATOM     32  C   UNL     1      11.762  11.635  18.379  0.00  0.00    +0.000 C 
ATOM     33  C   UNL     1      11.646  13.145  18.111  0.00  0.00    +0.000 C 
ATOM     34  C   UNL     1      11.679  13.907  19.446  0.00  0.00    +0.000 C 
ATOM     35  C   UNL     1      10.520  13.448  20.346  0.00  0.00    +0.000 C 
ATOM     36  C   UNL     1      10.638  11.937  20.604  0.00  0.00    +0.000 C 
ATOM     37  C   UNL     1       9.186  13.731  19.637  0.00  0.00    +0.000 C 
ATOM     38  C   UNL     1      10.314  13.432  17.405  0.00  0.00    +0.000 C 
ENDBRANCH  28  29
ENDBRANCH  27  28
ENDBRANCH  26  27
ENDBRANCH  25  26
ENDBRANCH  24  25
ENDBRANCH  23  24
ENDBRANCH  22  23
ENDBRANCH  21  22
ENDBRANCH  20  21
ENDBRANCH   4  20
TORSDOF 13
ENDMDL
MODEL 8
REMARK VINA RESULT:      -7.1      6.659     10.573
REMARK  Name = 
REMARK  13 active torsions:
REMARK  status: ('A' for Active; 'I' for Inactive)
REMARK    1  A    between atoms: C_2  and  C_4
REMARK    2  A    between atoms: C_4  and  C_5
REMARK    3  A    between atoms: N_7  and  C_8
REMARK    4  A    between atoms: C_11  and  C_12
REMARK    5  A    between atoms: C_12  and  C_13
REMARK    6  A    between atoms: C_13  and  C_14
REMARK    7  A    between atoms: C_14  and  C_15
REMARK    8  A    between atoms: C_15  and  C_16
REMARK    9  A    between atoms: C_16  and  C_17
REMARK   10  A    between atoms: C_17  and  C_18
REMARK   11  A    between atoms: C_18  and  O_19
REMARK   12  A    between atoms: O_19  and  C_20
REMARK   13  A    between atoms: C_20  and  C_21
REMARK                            x       y       z     vdW  Elec       q    Type
REMARK                         _______ _______ _______ _____ _____    ______ ____
ROOT
ATOM      1  C   UNL     1       5.022   5.156  18.425  0.00  0.00    +0.000 A 
ATOM      2  C   UNL     1       4.788   6.071  17.395  0.00  0.00    +0.000 A 
ATOM      3  C   UNL     1       5.748   7.026  17.073  0.00  0.00    +0.000 A 
ATOM      4  C   UNL     1       6.963   7.057  17.764  0.00  0.00    +0.000 A 
ATOM      5  C   UNL     1       7.174   6.170  18.826  0.00  0.00    +0.000 A 
ATOM      6  C   UNL     1       6.192   5.239  19.175  0.00  0.00    +0.000 A 
ENDROOT
BRANCH   1   9
ATOM      7  C   UNL     1       3.033   4.337  19.586  0.00  0.00    +0.000 C 
ATOM      8  O   UNL     1       2.723   5.421  20.072  0.00  0.00    +0.000 OA
ATOM      9  N   UNL     1       4.101   4.139  18.729  0.00  0.00    +0.000 N 
ATOM     10  H   UNL     1       4.051   3.340  18.110  0.00  0.00    +0.000 HD
BRANCH   7  11
ATOM     11  C   UNL     1       2.216   3.107  19.945  0.00  0.00    +0.000 C 
ATOM     12  C   UNL     1       1.226   3.252  21.109  0.00  0.00    +0.000 C 
ATOM     13  C   UNL     1       2.522   2.541  21.339  0.00  0.00    +0.000 C 
BRANCH  11  15
ATOM     14  N   UNL     1       0.584   2.098  18.519  0.00  0.00    +0.000 NA
ATOM     15  C   UNL     1       1.812   2.124  18.893  0.00  0.00    +0.000 C 
ATOM     16  N   UNL     1       2.777   1.303  18.415  0.00  0.00    +0.000 N 
ATOM     17  H   UNL     1       0.457   1.366  17.817  0.00  0.00    +0.000 HD
ATOM     18  H   UNL     1       2.475   0.390  18.088  0.00  0.00    +0.000 HD
ATOM     19  H   UNL     1       3.648   1.257  18.935  0.00  0.00    +0.000 HD
ENDBRANCH  11  15
ENDBRANCH   7  11
ENDBRANCH   1   9
BRANCH   4  20
ATOM     20  C   UNL     1       8.026   8.038  17.357  0.00  0.00    +0.000 C 
BRANCH  20  21
ATOM     21  C   UNL     1       8.620   8.763  18.564  0.00  0.00    +0.000 C 
BRANCH  21  22
ATOM     22  C   UNL     1       8.654  10.280  18.376  0.00  0.00    +0.000 C 
BRANCH  22  23
ATOM     23  C   UNL     1      10.003  10.766  17.860  0.00  0.00    +0.000 C 
BRANCH  23  24
ATOM     24  C   UNL     1      10.809  11.456  18.952  0.00  0.00    +0.000 C 
BRANCH  24  25
ATOM     25  C   UNL     1      11.850  12.345  18.297  0.00  0.00    +0.000 C 
BRANCH  25  26
ATOM     26  C   UNL     1      11.285  13.117  17.115  0.00  0.00    +0.000 C 
BRANCH  26  27
ATOM     27  O   UNL     1      10.233  13.985  17.525  0.00  0.00    +0.000 OA
BRANCH  27  28
ATOM     28  C   UNL     1      10.682  15.093  18.302  0.00  0.00    +0.000 C 
BRANCH  28  29
ATOM     29  C   UNL     1       9.873  15.180  19.597  0.00  0.00    +0.000 C 
ATOM     30  C   UNL     1      10.737  14.748  20.811  0.00  0.00    +0.000 C 
ATOM     31  C   UNL     1       9.925  14.859  22.109  0.00  0.00    +0.000 C 
ATOM     32  C   UNL     1       9.471  16.315  22.297  0.00  0.00    +0.000 C 
ATOM     33  C   UNL     1       8.596  16.753  21.111  0.00  0.00    +0.000 C 
ATOM     34  C   UNL     1       7.368  15.834  21.012  0.00  0.00    +0.000 C 
ATOM     35  C   UNL     1       7.812  14.374  20.820  0.00  0.00    +0.000 C 
ATOM     36  C   UNL     1       8.692  13.946  22.007  0.00  0.00    +0.000 C 
ATOM     37  C   UNL     1       8.631  14.262  19.525  0.00  0.00    +0.000 C 
ATOM     38  C   UNL     1       9.410  16.639  19.814  0.00  0.00    +0.000 C 
ENDBRANCH  28  29
ENDBRANCH  27  28
ENDBRANCH  26  27
ENDBRANCH  25  26
ENDBRANCH  24  25
ENDBRANCH  23  24
ENDBRANCH  22  23
ENDBRANCH  21  22
ENDBRANCH  20  21
ENDBRANCH   4  20
TORSDOF 13
ENDMDL
MODEL 9
REMARK VINA RESULT:      -7.1      5.411      9.282
REMARK  Name = 
REMARK  13 active torsions:
REMARK  status: ('A' for Active; 'I' for Inactive)
REMARK    1  A    between atoms: C_2  and  C_4
REMARK    2  A    between atoms: C_4  and  C_5
REMARK    3  A    between atoms: N_7  and  C_8
REMARK    4  A    between atoms: C_11  and  C_12
REMARK    5  A    between atoms: C_12  and  C_13
REMARK    6  A    between atoms: C_13  and  C_14
REMARK    7  A    between atoms: C_14  and  C_15
REMARK    8  A    between atoms: C_15  and  C_16
REMARK    9  A    between atoms: C_16  and  C_17
REMARK   10  A    between atoms: C_17  and  C_18
REMARK   11  A    between atoms: C_18  and  O_19
REMARK   12  A    between atoms: O_19  and  C_20
REMARK   13  A    between atoms: C_20  and  C_21
REMARK                            x       y       z     vdW  Elec       q    Type
REMARK                         _______ _______ _______ _____ _____    ______ ____
ROOT
ATOM      1  C   UNL     1       2.530   7.420  18.930  0.00  0.00    +0.000 A 
ATOM      2  C   UNL     1       2.260   8.338  17.911  0.00  0.00    +0.000 A 
ATOM      3  C   UNL     1       1.460   9.448  18.161  0.00  0.00    +0.000 A 
ATOM      4  C   UNL     1       0.940   9.664  19.442  0.00  0.00    +0.000 A 
ATOM      5  C   UNL     1       1.174   8.717  20.447  0.00  0.00    +0.000 A 
ATOM      6  C   UNL     1       1.944   7.582  20.183  0.00  0.00    +0.000 A 
ENDROOT
BRANCH   1   9
ATOM      7  C   UNL     1       2.932   5.101  18.274  0.00  0.00    +0.000 C 
ATOM      8  O   UNL     1       1.782   4.877  17.909  0.00  0.00    +0.000 OA
ATOM      9  N   UNL     1       3.387   6.326  18.727  0.00  0.00    +0.000 N 
ATOM     10  H   UNL     1       4.379   6.507  18.643  0.00  0.00    +0.000 HD
BRANCH   7  11
ATOM     11  C   UNL     1       3.945   3.967  18.255  0.00  0.00    +0.000 C 
ATOM     12  C   UNL     1       5.389   4.339  17.893  0.00  0.00    +0.000 C 
ATOM     13  C   UNL     1       4.529   3.676  16.865  0.00  0.00    +0.000 C 
BRANCH  11  15
ATOM     14  N   UNL     1       2.627   2.366  19.446  0.00  0.00    +0.000 NA
ATOM     15  C   UNL     1       3.807   2.804  19.184  0.00  0.00    +0.000 C 
ATOM     16  N   UNL     1       4.947   2.297  19.710  0.00  0.00    +0.000 N 
ATOM     17  H   UNL     1       2.691   1.590  20.107  0.00  0.00    +0.000 HD
ATOM     18  H   UNL     1       4.871   1.866  20.627  0.00  0.00    +0.000 HD
ATOM     19  H   UNL     1       5.790   2.854  19.614  0.00  0.00    +0.000 HD
ENDBRANCH  11  15
ENDBRANCH   7  11
ENDBRANCH   1   9
BRANCH   4  20
ATOM     20  C   UNL     1       0.145  10.906  19.724  0.00  0.00    +0.000 C 
BRANCH  20  21
ATOM     21  C   UNL     1       0.879  11.844  20.681  0.00  0.00    +0.000 C 
BRANCH  21  22
ATOM     22  C   UNL     1       1.104  13.232  20.081  0.00  0.00    +0.000 C 
BRANCH  22  23
ATOM     23  C   UNL     1       1.279  13.184  18.568  0.00  0.00    +0.000 C 
BRANCH  23  24
ATOM     24  C   UNL     1       2.746  13.100  18.172  0.00  0.00    +0.000 C 
BRANCH  24  25
ATOM     25  C   UNL     1       3.305  14.509  18.085  0.00  0.00    +0.000 C 
BRANCH  25  26
ATOM     26  C   UNL     1       4.653  14.638  18.777  0.00  0.00    +0.000 C 
BRANCH  26  27
ATOM     27  O   UNL     1       5.722  14.495  17.848  0.00  0.00    +0.000 OA
BRANCH  27  28
ATOM     28  C   UNL     1       6.841  15.330  18.138  0.00  0.00    +0.000 C 
BRANCH  28  29
ATOM     29  C   UNL     1       8.086  14.470  18.360  0.00  0.00    +0.000 C 
ATOM     30  C   UNL     1       9.365  15.239  17.939  0.00  0.00    +0.000 C 
ATOM     31  C   UNL     1      10.611  14.377  18.187  0.00  0.00    +0.000 C 
ATOM     32  C   UNL     1      10.694  14.026  19.681  0.00  0.00    +0.000 C 
ATOM     33  C   UNL     1       9.440  13.245  20.110  0.00  0.00    +0.000 C 
ATOM     34  C   UNL     1       9.330  11.956  19.279  0.00  0.00    +0.000 C 
ATOM     35  C   UNL     1       9.243  12.297  17.782  0.00  0.00    +0.000 C 
ATOM     36  C   UNL     1      10.496  13.084  17.362  0.00  0.00    +0.000 C 
ATOM     37  C   UNL     1       8.000  13.166  17.533  0.00  0.00    +0.000 C 
ATOM     38  C   UNL     1       8.196  14.108  19.860  0.00  0.00    +0.000 C 
ENDBRANCH  28  29
ENDBRANCH  27  28
ENDBRANCH  26  27
ENDBRANCH  25  26
ENDBRANCH  24  25
ENDBRANCH  23  24
ENDBRANCH  22  23
ENDBRANCH  21  22
ENDBRANCH  20  21
ENDBRANCH   4  20
TORSDOF 13
ENDMDL
