MODEL 1
REMARK VINA RESULT:      -6.8      0.000      0.000
REMARK  Name = 
REMARK  7 active torsions:
REMARK  status: ('A' for Active; 'I' for Inactive)
REMARK    1  A    between atoms: C_1  and  C_2
REMARK    2  A    between atoms: C_2  and  C_3
REMARK    3  A    between atoms: C_2  and  N_12
REMARK    4  A    between atoms: N_12  and  C_21
REMARK    5  A    between atoms: C_13  and  C_15
REMARK    6  A    between atoms: C_21  and  C_22
REMARK    7  A    between atoms: C_21  and  C_25
REMARK                            x       y       z     vdW  Elec       q    Type
REMARK                         _______ _______ _______ _____ _____    ______ ____
ROOT
ATOM      1  N   UNL     1       0.028  13.579  20.189  0.00  0.00    +0.000 N 
ATOM      2  C   UNL     1       1.131  12.708  20.374  0.00  0.00    +0.000 C 
ATOM      3  O   UNL     1       2.147  13.120  20.941  0.00  0.00    +0.000 OA
ENDROOT
BRANCH   2   4
ATOM      4  C   UNL     1       1.217  11.249  19.924  0.00  0.00    +0.000 A 
ATOM      5  C   UNL     1       1.683  11.017  18.614  0.00  0.00    +0.000 A 
ATOM      6  C   UNL     1       1.822   9.718  18.095  0.00  0.00    +0.000 A 
ATOM      7  C   UNL     1       1.502   8.610  18.872  0.00  0.00    +0.000 A 
ATOM      8  C   UNL     1       1.044   8.803  20.156  0.00  0.00    +0.000 A 
ATOM      9  C   UNL     1       0.901  10.106  20.661  0.00  0.00    +0.000 A 
ENDBRANCH   2   4
BRANCH   1  11
ATOM     10  C   UNL     1      -0.951  15.659  21.476  0.00  0.00    +0.000 C 
ATOM     11  C   UNL     1       0.115  15.033  20.562  0.00  0.00    +0.000 C 
BRANCH  11  12
ATOM     12  C   UNL     1       0.366  15.969  19.376  0.00  0.00    +0.000 A 
ATOM     13  C   UNL     1      -0.645  16.785  18.849  0.00  0.00    +0.000 A 
ATOM     14  C   UNL     1      -0.374  17.660  17.793  0.00  0.00    +0.000 A 
ATOM     15  F   UNL     1      -1.363  18.419  17.303  0.00  0.00    +0.000 F 
ATOM     16  C   UNL     1       0.902  17.759  17.264  0.00  0.00    +0.000 A 
ATOM     17  F   UNL     1       1.162  18.620  16.269  0.00  0.00    +0.000 F 
ATOM     18  C   UNL     1       1.915  16.972  17.785  0.00  0.00    +0.000 A 
ATOM     19  F   UNL     1       3.166  17.075  17.310  0.00  0.00    +0.000 F 
ATOM     20  C   UNL     1       1.661  16.079  18.829  0.00  0.00    +0.000 A 
ENDBRANCH  11  12
ENDBRANCH   1  11
BRANCH   1  21
ATOM     21  C   UNL     1      -1.366  13.133  19.882  0.00  0.00    +0.000 C 
BRANCH  21  22
ATOM     22  C   UNL     1      -2.164  12.702  21.137  0.00  0.00    +0.000 A 
ATOM     23  C   UNL     1      -3.532  13.012  21.298  0.00  0.00    +0.000 A 
ATOM     24  C   UNL     1      -4.200  12.810  22.505  0.00  0.00    +0.000 A 
ATOM     25  C   UNL     1      -3.527  12.244  23.570  0.00  0.00    +0.000 A 
ATOM     26  C   UNL     1      -2.203  11.842  23.422  0.00  0.00    +0.000 A 
ATOM     27  C   UNL     1      -1.534  12.050  22.211  0.00  0.00    +0.000 A 
ENDBRANCH  21  22
BRANCH  21  28
ATOM     28  C   UNL     1      -1.468  12.195  18.620  0.00  0.00    +0.000 C 
ATOM     29  N   UNL     1      -1.130  12.693  17.390  0.00  0.00    +0.000 N 
ATOM     30  O   UNL     1      -1.836  11.021  18.668  0.00  0.00    +0.000 OA
ATOM     31  H   UNL     1      -0.543  13.509  17.291  0.00  0.00    +0.000 HD
ATOM     32  H   UNL     1      -1.068  12.004  16.649  0.00  0.00    +0.000 HD
ENDBRANCH  21  28
ENDBRANCH   1  21
TORSDOF 6
ENDMDL
MODEL 2
REMARK VINA RESULT:      -6.8      7.137      9.811
REMARK  Name = 
REMARK  7 active torsions:
REMARK  status: ('A' for Active; 'I' for Inactive)
REMARK    1  A    between atoms: C_1  and  C_2
REMARK    2  A    between atoms: C_2  and  C_3
REMARK    3  A    between atoms: C_2  and  N_12
REMARK    4  A    between atoms: N_12  and  C_21
REMARK    5  A    between atoms: C_13  and  C_15
REMARK    6  A    between atoms: C_21  and  C_22
REMARK    7  A    between atoms: C_21  and  C_25
REMARK                            x       y       z     vdW  Elec       q    Type
REMARK                         _______ _______ _______ _____ _____    ______ ____
ROOT
ATOM      1  N   UNL     1       7.513  14.958  18.775  0.00  0.00    +0.000 N 
ATOM      2  C   UNL     1       7.917  13.765  18.123  0.00  0.00    +0.000 C 
ATOM      3  O   UNL     1       7.232  13.310  17.203  0.00  0.00    +0.000 OA
ENDROOT
BRANCH   2   4
ATOM      4  C   UNL     1       9.156  12.931  18.449  0.00  0.00    +0.000 A 
ATOM      5  C   UNL     1      10.155  12.866  17.456  0.00  0.00    +0.000 A 
ATOM      6  C   UNL     1      11.347  12.146  17.647  0.00  0.00    +0.000 A 
ATOM      7  C   UNL     1      11.578  11.470  18.840  0.00  0.00    +0.000 A 
ATOM      8  C   UNL     1      10.623  11.513  19.830  0.00  0.00    +0.000 A 
ATOM      9  C   UNL     1       9.431  12.230  19.624  0.00  0.00    +0.000 A 
ENDBRANCH   2   4
BRANCH   1  11
ATOM     10  C   UNL     1       6.041  17.136  18.611  0.00  0.00    +0.000 C 
ATOM     11  C   UNL     1       6.202  15.615  18.448  0.00  0.00    +0.000 C 
BRANCH  11  12
ATOM     12  C   UNL     1       4.982  14.918  19.059  0.00  0.00    +0.000 A 
ATOM     13  C   UNL     1       4.690  15.000  20.428  0.00  0.00    +0.000 A 
ATOM     14  C   UNL     1       3.546  14.388  20.948  0.00  0.00    +0.000 A 
ATOM     15  F   UNL     1       3.299  14.474  22.262  0.00  0.00    +0.000 F 
ATOM     16  C   UNL     1       2.666  13.711  20.121  0.00  0.00    +0.000 A 
ATOM     17  F   UNL     1       1.556  13.148  20.621  0.00  0.00    +0.000 F 
ATOM     18  C   UNL     1       2.931  13.636  18.764  0.00  0.00    +0.000 A 
ATOM     19  F   UNL     1       2.076  13.013  17.938  0.00  0.00    +0.000 F 
ATOM     20  C   UNL     1       4.078  14.226  18.227  0.00  0.00    +0.000 A 
ENDBRANCH  11  12
ENDBRANCH   1  11
BRANCH   1  21
ATOM     21  C   UNL     1       8.409  15.813  19.613  0.00  0.00    +0.000 C 
BRANCH  21  22
ATOM     22  C   UNL     1       9.812  16.027  18.994  0.00  0.00    +0.000 A 
ATOM     23  C   UNL     1       9.985  16.563  17.700  0.00  0.00    +0.000 A 
ATOM     24  C   UNL     1      11.224  16.567  17.060  0.00  0.00    +0.000 A 
ATOM     25  C   UNL     1      12.333  16.078  17.721  0.00  0.00    +0.000 A 
ATOM     26  C   UNL     1      12.219  15.623  19.031  0.00  0.00    +0.000 A 
ATOM     27  C   UNL     1      10.974  15.617  19.669  0.00  0.00    +0.000 A 
ENDBRANCH  21  22
BRANCH  21  28
ATOM     28  C   UNL     1       8.355  15.471  21.151  0.00  0.00    +0.000 C 
ATOM     29  N   UNL     1       7.843  14.266  21.548  0.00  0.00    +0.000 N 
ATOM     30  O   UNL     1       8.756  16.230  22.034  0.00  0.00    +0.000 OA
ATOM     31  H   UNL     1       7.782  13.480  20.916  0.00  0.00    +0.000 HD
ATOM     32  H   UNL     1       7.978  14.044  22.529  0.00  0.00    +0.000 HD
ENDBRANCH  21  28
ENDBRANCH   1  21
TORSDOF 6
ENDMDL
MODEL 3
REMARK VINA RESULT:      -6.7      4.010      6.743
REMARK  Name = 
REMARK  7 active torsions:
REMARK  status: ('A' for Active; 'I' for Inactive)
REMARK    1  A    between atoms: C_1  and  C_2
REMARK    2  A    between atoms: C_2  and  C_3
REMARK    3  A    between atoms: C_2  and  N_12
REMARK    4  A    between atoms: N_12  and  C_21
REMARK    5  A    between atoms: C_13  and  C_15
REMARK    6  A    between atoms: C_21  and  C_22
REMARK    7  A    between atoms: C_21  and  C_25
REMARK                            x       y       z     vdW  Elec       q    Type
REMARK                         _______ _______ _______ _____ _____    ______ ____
ROOT
ATOM      1  N   UNL     1       0.770  12.365  19.243  0.00  0.00    +0.000 N 
ATOM      2  C   UNL     1       2.045  12.958  19.062  0.00  0.00    +0.000 C 
ATOM      3  O   UNL     1       2.785  12.554  18.160  0.00  0.00    +0.000 OA
ENDROOT
BRANCH   2   4
ATOM      4  C   UNL     1       2.643  14.089  19.899  0.00  0.00    +0.000 A 
ATOM      5  C   UNL     1       2.991  15.270  19.212  0.00  0.00    +0.000 A 
ATOM      6  C   UNL     1       3.532  16.384  19.877  0.00  0.00    +0.000 A 
ATOM      7  C   UNL     1       3.739  16.352  21.252  0.00  0.00    +0.000 A 
ATOM      8  C   UNL     1       3.411  15.213  21.952  0.00  0.00    +0.000 A 
ATOM      9  C   UNL     1       2.878  14.103  21.275  0.00  0.00    +0.000 A 
ENDBRANCH   2   4
BRANCH   1  11
ATOM     10  C   UNL     1      -1.145  10.868  18.226  0.00  0.00    +0.000 C 
ATOM     11  C   UNL     1       0.348  11.169  18.435  0.00  0.00    +0.000 C 
BRANCH  11  12
ATOM     12  C   UNL     1       1.070   9.872  18.813  0.00  0.00    +0.000 A 
ATOM     13  C   UNL     1       0.899   9.268  20.067  0.00  0.00    +0.000 A 
ATOM     14  C   UNL     1       1.538   8.061  20.367  0.00  0.00    +0.000 A 
ATOM     15  F   UNL     1       1.365   7.514  21.577  0.00  0.00    +0.000 F 
ATOM     16  C   UNL     1       2.330   7.425  19.425  0.00  0.00    +0.000 A 
ATOM     17  F   UNL     1       2.918   6.254  19.709  0.00  0.00    +0.000 F 
ATOM     18  C   UNL     1       2.493   8.000  18.176  0.00  0.00    +0.000 A 
ATOM     19  F   UNL     1       3.230   7.385  17.238  0.00  0.00    +0.000 F 
ATOM     20  C   UNL     1       1.878   9.214  17.863  0.00  0.00    +0.000 A 
ENDBRANCH  11  12
ENDBRANCH   1  11
BRANCH   1  21
ATOM     21  C   UNL     1      -0.354  12.983  20.011  0.00  0.00    +0.000 C 
BRANCH  21  22
ATOM     22  C   UNL     1      -0.424  14.523  19.866  0.00  0.00    +0.000 A 
ATOM     23  C   UNL     1      -0.479  15.155  18.605  0.00  0.00    +0.000 A 
ATOM     24  C   UNL     1      -0.335  16.535  18.462  0.00  0.00    +0.000 A 
ATOM     25  C   UNL     1      -0.183  17.324  19.585  0.00  0.00    +0.000 A 
ATOM     26  C   UNL     1      -0.215  16.747  20.850  0.00  0.00    +0.000 A 
ATOM     27  C   UNL     1      -0.355  15.362  20.991  0.00  0.00    +0.000 A 
ENDBRANCH  21  22
BRANCH  21  28
ATOM     28  C   UNL     1      -0.527  12.397  21.464  0.00  0.00    +0.000 C 
ATOM     29  N   UNL     1      -1.787  12.247  21.976  0.00  0.00    +0.000 N 
ATOM     30  O   UNL     1       0.415  12.056  22.179  0.00  0.00    +0.000 OA
ATOM     31  H   UNL     1      -2.601  12.203  21.380  0.00  0.00    +0.000 HD
ATOM     32  H   UNL     1      -1.839  11.726  22.845  0.00  0.00    +0.000 HD
ENDBRANCH  21  28
ENDBRANCH   1  21
TORSDOF 6
ENDMDL
MODEL 4
REMARK VINA RESULT:      -6.6      7.834     10.758
REMARK  Name = 
REMARK  7 active torsions:
REMARK  status: ('A' for Active; 'I' for Inactive)
REMARK    1  A    between atoms: C_1  and  C_2
REMARK    2  A    between atoms: C_2  and  C_3
REMARK    3  A    between atoms: C_2  and  N_12
REMARK    4  A    between atoms: N_12  and  C_21
REMARK    5  A    between atoms: C_13  and  C_15
REMARK    6  A    between atoms: C_21  and  C_22
REMARK    7  A    between atoms: C_21  and  C_25
REMARK                            x       y       z     vdW  Elec       q    Type
REMARK                         _______ _______ _______ _____ _____    ______ ____
ROOT
ATOM      1  N   UNL     1       4.748   5.091  18.014  0.00  0.00    +0.000 N 
ATOM      2  C   UNL     1       4.891   4.368  19.225  0.00  0.00    +0.000 C 
ATOM      3  O   UNL     1       5.990   4.326  19.785  0.00  0.00    +0.000 OA
ENDROOT
BRANCH   2   4
ATOM      4  C   UNL     1       3.793   3.588  19.948  0.00  0.00    +0.000 A 
ATOM      5  C   UNL     1       3.046   4.294  20.914  0.00  0.00    +0.000 A 
ATOM      6  C   UNL     1       1.999   3.689  21.630  0.00  0.00    +0.000 A 
ATOM      7  C   UNL     1       1.664   2.359  21.402  0.00  0.00    +0.000 A 
ATOM      8  C   UNL     1       2.375   1.641  20.466  0.00  0.00    +0.000 A 
ATOM      9  C   UNL     1       3.425   2.254  19.762  0.00  0.00    +0.000 A 
ENDBRANCH   2   4
BRANCH   1  11
ATOM     10  C   UNL     1       6.135   7.234  17.363  0.00  0.00    +0.000 C 
ATOM     11  C   UNL     1       5.937   5.709  17.333  0.00  0.00    +0.000 C 
BRANCH  11  12
ATOM     12  C   UNL     1       6.173   5.204  15.906  0.00  0.00    +0.000 A 
ATOM     13  C   UNL     1       5.212   4.451  15.218  0.00  0.00    +0.000 A 
ATOM     14  C   UNL     1       5.440   4.041  13.901  0.00  0.00    +0.000 A 
ATOM     15  F   UNL     1       4.508   3.313  13.273  0.00  0.00    +0.000 F 
ATOM     16  C   UNL     1       6.606   4.392  13.241  0.00  0.00    +0.000 A 
ATOM     17  F   UNL     1       6.807   4.019  11.969  0.00  0.00    +0.000 F 
ATOM     18  C   UNL     1       7.557   5.151  13.902  0.00  0.00    +0.000 A 
ATOM     19  F   UNL     1       8.680   5.530  13.271  0.00  0.00    +0.000 F 
ATOM     20  C   UNL     1       7.356   5.556  15.224  0.00  0.00    +0.000 A 
ENDBRANCH  11  12
ENDBRANCH   1  11
BRANCH   1  21
ATOM     21  C   UNL     1       3.441   5.543  17.443  0.00  0.00    +0.000 C 
BRANCH  21  22
ATOM     22  C   UNL     1       2.903   6.842  18.093  0.00  0.00    +0.000 A 
ATOM     23  C   UNL     1       2.540   6.903  19.455  0.00  0.00    +0.000 A 
ATOM     24  C   UNL     1       1.867   7.999  19.994  0.00  0.00    +0.000 A 
ATOM     25  C   UNL     1       1.585   9.087  19.190  0.00  0.00    +0.000 A 
ATOM     26  C   UNL     1       2.007   9.102  17.865  0.00  0.00    +0.000 A 
ATOM     27  C   UNL     1       2.678   7.998  17.326  0.00  0.00    +0.000 A 
ENDBRANCH  21  22
BRANCH  21  28
ATOM     28  C   UNL     1       2.406   4.375  17.227  0.00  0.00    +0.000 C 
ATOM     29  N   UNL     1       1.129   4.521  17.697  0.00  0.00    +0.000 N 
ATOM     30  O   UNL     1       2.675   3.322  16.648  0.00  0.00    +0.000 OA
ATOM     31  H   UNL     1       0.737   5.430  17.898  0.00  0.00    +0.000 HD
ATOM     32  H   UNL     1       0.474   3.808  17.393  0.00  0.00    +0.000 HD
ENDBRANCH  21  28
ENDBRANCH   1  21
TORSDOF 6
ENDMDL
MODEL 5
REMARK VINA RESULT:      -6.6      3.891      6.749
REMARK  Name = 
REMARK  7 active torsions:
REMARK  status: ('A' for Active; 'I' for Inactive)
REMARK    1  A    between atoms: C_1  and  C_2
REMARK    2  A    between atoms: C_2  and  C_3
REMARK    3  A    between atoms: C_2  and  N_12
REMARK    4  A    between atoms: N_12  and  C_21
REMARK    5  A    between atoms: C_13  and  C_15
REMARK    6  A    between atoms: C_21  and  C_22
REMARK    7  A    between atoms: C_21  and  C_25
REMARK                            x       y       z     vdW  Elec       q    Type
REMARK                         _______ _______ _______ _____ _____    ______ ____
ROOT
ATOM      1  N   UNL     1      -2.466  13.604  20.627  0.00  0.00    +0.000 N 
ATOM      2  C   UNL     1      -3.498  12.845  20.019  0.00  0.00    +0.000 C 
ATOM      3  O   UNL     1      -3.207  11.884  19.301  0.00  0.00    +0.000 OA
ENDROOT
BRANCH   2   4
ATOM      4  C   UNL     1      -5.000  13.095  20.148  0.00  0.00    +0.000 A 
ATOM      5  C   UNL     1      -5.769  12.057  20.714  0.00  0.00    +0.000 A 
ATOM      6  C   UNL     1      -7.157  12.178  20.900  0.00  0.00    +0.000 A 
ATOM      7  C   UNL     1      -7.820  13.342  20.528  0.00  0.00    +0.000 A 
ATOM      8  C   UNL     1      -7.098  14.374  19.971  0.00  0.00    +0.000 A 
ATOM      9  C   UNL     1      -5.712  14.239  19.782  0.00  0.00    +0.000 A 
ENDBRANCH   2   4
BRANCH   1  11
ATOM     10  C   UNL     1      -0.442  13.716  18.943  0.00  0.00    +0.000 C 
ATOM     11  C   UNL     1      -1.020  13.336  20.318  0.00  0.00    +0.000 C 
BRANCH  11  12
ATOM     12  C   UNL     1      -0.553  11.923  20.680  0.00  0.00    +0.000 A 
ATOM     13  C   UNL     1       0.071  11.086  19.744  0.00  0.00    +0.000 A 
ATOM     14  C   UNL     1       0.523   9.817  20.116  0.00  0.00    +0.000 A 
ATOM     15  F   UNL     1       1.105   9.035  19.198  0.00  0.00    +0.000 F 
ATOM     16  C   UNL     1       0.390   9.371  21.421  0.00  0.00    +0.000 A 
ATOM     17  F   UNL     1       0.851   8.163  21.779  0.00  0.00    +0.000 F 
ATOM     18  C   UNL     1      -0.208  10.194  22.361  0.00  0.00    +0.000 A 
ATOM     19  F   UNL     1      -0.319   9.795  23.638  0.00  0.00    +0.000 F 
ATOM     20  C   UNL     1      -0.683  11.458  22.005  0.00  0.00    +0.000 A 
ENDBRANCH  11  12
ENDBRANCH   1  11
BRANCH   1  21
ATOM     21  C   UNL     1      -2.659  14.521  21.792  0.00  0.00    +0.000 C 
BRANCH  21  22
ATOM     22  C   UNL     1      -3.663  13.981  22.840  0.00  0.00    +0.000 A 
ATOM     23  C   UNL     1      -3.442  12.773  23.537  0.00  0.00    +0.000 A 
ATOM     24  C   UNL     1      -4.429  12.181  24.323  0.00  0.00    +0.000 A 
ATOM     25  C   UNL     1      -5.650  12.809  24.472  0.00  0.00    +0.000 A 
ATOM     26  C   UNL     1      -5.875  14.045  23.874  0.00  0.00    +0.000 A 
ATOM     27  C   UNL     1      -4.883  14.635  23.082  0.00  0.00    +0.000 A 
ENDBRANCH  21  22
BRANCH  21  28
ATOM     28  C   UNL     1      -2.800  16.038  21.389  0.00  0.00    +0.000 C 
ATOM     29  N   UNL     1      -3.025  16.361  20.078  0.00  0.00    +0.000 N 
ATOM     30  O   UNL     1      -2.723  16.968  22.192  0.00  0.00    +0.000 OA
ATOM     31  H   UNL     1      -3.402  15.691  19.423  0.00  0.00    +0.000 HD
ATOM     32  H   UNL     1      -3.259  17.334  19.909  0.00  0.00    +0.000 HD
ENDBRANCH  21  28
ENDBRANCH   1  21
TORSDOF 6
ENDMDL
MODEL 6
REMARK VINA RESULT:      -6.6      3.435      5.716
REMARK  Name = 
REMARK  7 active torsions:
REMARK  status: ('A' for Active; 'I' for Inactive)
REMARK    1  A    between atoms: C_1  and  C_2
REMARK    2  A    between atoms: C_2  and  C_3
REMARK    3  A    between atoms: C_2  and  N_12
REMARK    4  A    between atoms: N_12  and  C_21
REMARK    5  A    between atoms: C_13  and  C_15
REMARK    6  A    between atoms: C_21  and  C_22
REMARK    7  A    between atoms: C_21  and  C_25
REMARK                            x       y       z     vdW  Elec       q    Type
REMARK                         _______ _______ _______ _____ _____    ______ ____
ROOT
ATOM      1  N   UNL     1      -0.406  11.356  19.954  0.00  0.00    +0.000 N 
ATOM      2  C   UNL     1       0.034  12.625  19.498  0.00  0.00    +0.000 C 
ATOM      3  O   UNL     1       0.141  12.835  18.287  0.00  0.00    +0.000 OA
ENDROOT
BRANCH   2   4
ATOM      4  C   UNL     1       0.417  13.817  20.375  0.00  0.00    +0.000 A 
ATOM      5  C   UNL     1      -0.330  15.000  20.198  0.00  0.00    +0.000 A 
ATOM      6  C   UNL     1      -0.083  16.155  20.958  0.00  0.00    +0.000 A 
ATOM      7  C   UNL     1       0.919  16.164  21.923  0.00  0.00    +0.000 A 
ATOM      8  C   UNL     1       1.667  15.025  22.120  0.00  0.00    +0.000 A 
ATOM      9  C   UNL     1       1.416  13.878  21.348  0.00  0.00    +0.000 A 
ENDBRANCH   2   4
BRANCH   1  11
ATOM     10  C   UNL     1       0.556   9.633  18.207  0.00  0.00    +0.000 C 
ATOM     11  C   UNL     1      -0.628  10.221  18.994  0.00  0.00    +0.000 C 
BRANCH  11  12
ATOM     12  C   UNL     1      -1.805  10.432  18.037  0.00  0.00    +0.000 A 
ATOM     13  C   UNL     1      -2.913  11.218  18.386  0.00  0.00    +0.000 A 
ATOM     14  C   UNL     1      -3.952  11.426  17.475  0.00  0.00    +0.000 A 
ATOM     15  F   UNL     1      -5.002  12.172  17.841  0.00  0.00    +0.000 F 
ATOM     16  C   UNL     1      -3.898  10.884  16.202  0.00  0.00    +0.000 A 
ATOM     17  F   UNL     1      -4.885  11.110  15.322  0.00  0.00    +0.000 F 
ATOM     18  C   UNL     1      -2.802  10.120  15.836  0.00  0.00    +0.000 A 
ATOM     19  F   UNL     1      -2.713   9.612  14.597  0.00  0.00    +0.000 F 
ATOM     20  C   UNL     1      -1.761   9.885  16.738  0.00  0.00    +0.000 A 
ENDBRANCH  11  12
ENDBRANCH   1  11
BRANCH   1  21
ATOM     21  C   UNL     1      -0.941  11.082  21.323  0.00  0.00    +0.000 C 
BRANCH  21  22
ATOM     22  C   UNL     1      -1.743  12.266  21.918  0.00  0.00    +0.000 A 
ATOM     23  C   UNL     1      -2.889  12.789  21.281  0.00  0.00    +0.000 A 
ATOM     24  C   UNL     1      -3.491  13.976  21.698  0.00  0.00    +0.000 A 
ATOM     25  C   UNL     1      -2.989  14.644  22.798  0.00  0.00    +0.000 A 
ATOM     26  C   UNL     1      -1.917  14.112  23.506  0.00  0.00    +0.000 A 
ATOM     27  C   UNL     1      -1.312  12.923  23.083  0.00  0.00    +0.000 A 
ENDBRANCH  21  22
BRANCH  21  28
ATOM     28  C   UNL     1       0.094  10.374  22.278  0.00  0.00    +0.000 C 
ATOM     29  N   UNL     1      -0.368   9.668  23.356  0.00  0.00    +0.000 N 
ATOM     30  O   UNL     1       1.314  10.413  22.113  0.00  0.00    +0.000 OA
ATOM     31  H   UNL     1      -1.318   9.327  23.400  0.00  0.00    +0.000 HD
ATOM     32  H   UNL     1       0.330   9.113  23.838  0.00  0.00    +0.000 HD
ENDBRANCH  21  28
ENDBRANCH   1  21
TORSDOF 6
ENDMDL
MODEL 7
REMARK VINA RESULT:      -6.6      3.979      6.823
REMARK  Name = 
REMARK  7 active torsions:
REMARK  status: ('A' for Active; 'I' for Inactive)
REMARK    1  A    between atoms: C_1  and  C_2
REMARK    2  A    between atoms: C_2  and  C_3
REMARK    3  A    between atoms: C_2  and  N_12
REMARK    4  A    between atoms: N_12  and  C_21
REMARK    5  A    between atoms: C_13  and  C_15
REMARK    6  A    between atoms: C_21  and  C_22
REMARK    7  A    between atoms: C_21  and  C_25
REMARK                            x       y       z     vdW  Elec       q    Type
REMARK                         _______ _______ _______ _____ _____    ______ ____
ROOT
ATOM      1  N   UNL     1       0.794  12.489  19.206  0.00  0.00    +0.000 N 
ATOM      2  C   UNL     1       2.089  12.999  18.940  0.00  0.00    +0.000 C 
ATOM      3  O   UNL     1       2.745  12.542  18.000  0.00  0.00    +0.000 OA
ENDROOT
BRANCH   2   4
ATOM      4  C   UNL     1       2.807  14.098  19.725  0.00  0.00    +0.000 A 
ATOM      5  C   UNL     1       3.118  13.815  21.070  0.00  0.00    +0.000 A 
ATOM      6  C   UNL     1       3.793  14.740  21.886  0.00  0.00    +0.000 A 
ATOM      7  C   UNL     1       4.180  15.976  21.381  0.00  0.00    +0.000 A 
ATOM      8  C   UNL     1       3.890  16.283  20.070  0.00  0.00    +0.000 A 
ATOM      9  C   UNL     1       3.208  15.354  19.266  0.00  0.00    +0.000 A 
ENDBRANCH   2   4
BRANCH   1  11
ATOM     10  C   UNL     1      -1.270  11.094  18.346  0.00  0.00    +0.000 C 
ATOM     11  C   UNL     1       0.250  11.315  18.441  0.00  0.00    +0.000 C 
BRANCH  11  12
ATOM     12  C   UNL     1       0.927   9.982  18.774  0.00  0.00    +0.000 A 
ATOM     13  C   UNL     1       1.763   9.326  17.859  0.00  0.00    +0.000 A 
ATOM     14  C   UNL     1       2.400   8.132  18.208  0.00  0.00    +0.000 A 
ATOM     15  F   UNL     1       3.183   7.522  17.309  0.00  0.00    +0.000 F 
ATOM     16  C   UNL     1       2.241   7.587  19.472  0.00  0.00    +0.000 A 
ATOM     17  F   UNL     1       2.877   6.456  19.811  0.00  0.00    +0.000 F 
ATOM     18  C   UNL     1       1.433   8.233  20.393  0.00  0.00    +0.000 A 
ATOM     19  F   UNL     1       1.290   7.740  21.633  0.00  0.00    +0.000 F 
ATOM     20  C   UNL     1       0.773   9.417  20.057  0.00  0.00    +0.000 A 
ENDBRANCH  11  12
ENDBRANCH   1  11
BRANCH   1  21
ATOM     21  C   UNL     1      -0.241  13.183  20.034  0.00  0.00    +0.000 C 
BRANCH  21  22
ATOM     22  C   UNL     1      -0.236  14.721  19.861  0.00  0.00    +0.000 A 
ATOM     23  C   UNL     1      -0.365  15.333  18.595  0.00  0.00    +0.000 A 
ATOM     24  C   UNL     1      -0.156  16.699  18.408  0.00  0.00    +0.000 A 
ATOM     25  C   UNL     1       0.138  17.498  19.496  0.00  0.00    +0.000 A 
ATOM     26  C   UNL     1       0.186  16.947  20.772  0.00  0.00    +0.000 A 
ATOM     27  C   UNL     1      -0.020  15.575  20.956  0.00  0.00    +0.000 A 
ENDBRANCH  21  22
BRANCH  21  28
ATOM     28  C   UNL     1      -0.347  12.634  21.507  0.00  0.00    +0.000 C 
ATOM     29  N   UNL     1      -1.491  12.863  22.223  0.00  0.00    +0.000 N 
ATOM     30  O   UNL     1       0.547  11.997  22.065  0.00  0.00    +0.000 OA
ATOM     31  H   UNL     1      -2.365  13.090  21.770  0.00  0.00    +0.000 HD
ATOM     32  H   UNL     1      -1.559  12.356  23.099  0.00  0.00    +0.000 HD
ENDBRANCH  21  28
ENDBRANCH   1  21
TORSDOF 6
ENDMDL
MODEL 8
REMARK VINA RESULT:      -6.5      3.295      6.042
REMARK  Name = 
REMARK  7 active torsions:
REMARK  status: ('A' for Active; 'I' for Inactive)
REMARK    1  A    between atoms: C_1  and  C_2
REMARK    2  A    between atoms: C_2  and  C_3
REMARK    3  A    between atoms: C_2  and  N_12
REMARK    4  A    between atoms: N_12  and  C_21
REMARK    5  A    between atoms: C_13  and  C_15
REMARK    6  A    between atoms: C_21  and  C_22
REMARK    7  A    between atoms: C_21  and  C_25
REMARK                            x       y       z     vdW  Elec       q    Type
REMARK                         _______ _______ _______ _____ _____    ______ ____
ROOT
ATOM      1  N   UNL     1      -0.435  12.205  20.729  0.00  0.00    +0.000 N 
ATOM      2  C   UNL     1       0.825  12.849  20.832  0.00  0.00    +0.000 C 
ATOM      3  O   UNL     1       1.810  12.206  21.204  0.00  0.00    +0.000 OA
ENDROOT
BRANCH   2   4
ATOM      4  C   UNL     1       1.117  14.318  20.528  0.00  0.00    +0.000 A 
ATOM      5  C   UNL     1       1.579  14.618  19.231  0.00  0.00    +0.000 A 
ATOM      6  C   UNL     1       1.864  15.934  18.829  0.00  0.00    +0.000 A 
ATOM      7  C   UNL     1       1.692  16.994  19.713  0.00  0.00    +0.000 A 
ATOM      8  C   UNL     1       1.244  16.735  20.989  0.00  0.00    +0.000 A 
ATOM      9  C   UNL     1       0.970  15.414  21.381  0.00  0.00    +0.000 A 
ENDBRANCH   2   4
BRANCH   1  11
ATOM     10  C   UNL     1      -0.638  10.449  22.683  0.00  0.00    +0.000 C 
ATOM     11  C   UNL     1      -0.620  10.784  21.182  0.00  0.00    +0.000 C 
BRANCH  11  12
ATOM     12  C   UNL     1       0.277   9.775  20.458  0.00  0.00    +0.000 A 
ATOM     13  C   UNL     1       0.762  10.009  19.163  0.00  0.00    +0.000 A 
ATOM     14  C   UNL     1       1.613   9.088  18.546  0.00  0.00    +0.000 A 
ATOM     15  F   UNL     1       2.050   9.334  17.304  0.00  0.00    +0.000 F 
ATOM     16  C   UNL     1       2.017   7.941  19.208  0.00  0.00    +0.000 A 
ATOM     17  F   UNL     1       2.856   7.074  18.621  0.00  0.00    +0.000 F 
ATOM     18  C   UNL     1       1.561   7.705  20.494  0.00  0.00    +0.000 A 
ATOM     19  F   UNL     1       1.965   6.616  21.168  0.00  0.00    +0.000 F 
ATOM     20  C   UNL     1       0.696   8.603  21.123  0.00  0.00    +0.000 A 
ENDBRANCH  11  12
ENDBRANCH   1  11
BRANCH   1  21
ATOM     21  C   UNL     1      -1.597  12.731  19.948  0.00  0.00    +0.000 C 
BRANCH  21  22
ATOM     22  C   UNL     1      -2.865  12.954  20.808  0.00  0.00    +0.000 A 
ATOM     23  C   UNL     1      -2.794  13.394  22.147  0.00  0.00    +0.000 A 
ATOM     24  C   UNL     1      -3.909  13.399  22.985  0.00  0.00    +0.000 A 
ATOM     25  C   UNL     1      -5.137  13.011  22.486  0.00  0.00    +0.000 A 
ATOM     26  C   UNL     1      -5.264  12.657  21.147  0.00  0.00    +0.000 A 
ATOM     27  C   UNL     1      -4.143  12.648  20.310  0.00  0.00    +0.000 A 
ENDBRANCH  21  22
BRANCH  21  28
ATOM     28  C   UNL     1      -1.798  12.020  18.556  0.00  0.00    +0.000 C 
ATOM     29  N   UNL     1      -1.221  12.564  17.440  0.00  0.00    +0.000 N 
ATOM     30  O   UNL     1      -2.449  10.986  18.404  0.00  0.00    +0.000 OA
ATOM     31  H   UNL     1      -0.443  13.205  17.503  0.00  0.00    +0.000 HD
ATOM     32  H   UNL     1      -1.257  11.982  16.610  0.00  0.00    +0.000 HD
ENDBRANCH  21  28
ENDBRANCH   1  21
TORSDOF 6
ENDMDL
MODEL 9
REMARK VINA RESULT:      -6.5      1.413      2.544
REMARK  Name = 
REMARK  7 active torsions:
REMARK  status: ('A' for Active; 'I' for Inactive)
REMARK    1  A    between atoms: C_1  and  C_2
REMARK    2  A    between atoms: C_2  and  C_3
REMARK    3  A    between atoms: C_2  and  N_12
REMARK    4  A    between atoms: N_12  and  C_21
REMARK    5  A    between atoms: C_13  and  C_15
REMARK    6  A    between atoms: C_21  and  C_22
REMARK    7  A    between atoms: C_21  and  C_25
REMARK                            x       y       z     vdW  Elec       q    Type
REMARK                         _______ _______ _______ _____ _____    ______ ____
ROOT
ATOM      1  N   UNL     1      -1.019  14.059  20.710  0.00  0.00    +0.000 N 
ATOM      2  C   UNL     1      -0.262  13.385  21.702  0.00  0.00    +0.000 C 
ATOM      3  O   UNL     1       0.294  14.035  22.592  0.00  0.00    +0.000 OA
ENDROOT
BRANCH   2   4
ATOM      4  C   UNL     1      -0.036  11.876  21.798  0.00  0.00    +0.000 A 
ATOM      5  C   UNL     1      -0.806  11.179  22.750  0.00  0.00    +0.000 A 
ATOM      6  C   UNL     1      -0.700   9.787  22.918  0.00  0.00    +0.000 A 
ATOM      7  C   UNL     1       0.180   9.049  22.134  0.00  0.00    +0.000 A 
ATOM      8  C   UNL     1       0.948   9.700  21.195  0.00  0.00    +0.000 A 
ATOM      9  C   UNL     1       0.839  11.092  21.043  0.00  0.00    +0.000 A 
ENDBRANCH   2   4
BRANCH   1  11
ATOM     10  C   UNL     1      -2.409  16.295  20.630  0.00  0.00    +0.000 C 
ATOM     11  C   UNL     1      -1.059  15.560  20.650  0.00  0.00    +0.000 C 
BRANCH  11  12
ATOM     12  C   UNL     1      -0.146  16.168  19.580  0.00  0.00    +0.000 A 
ATOM     13  C   UNL     1       1.201  15.798  19.458  0.00  0.00    +0.000 A 
ATOM     14  C   UNL     1       1.998  16.339  18.445  0.00  0.00    +0.000 A 
ATOM     15  F   UNL     1       3.284  15.976  18.360  0.00  0.00    +0.000 F 
ATOM     16  C   UNL     1       1.468  17.229  17.525  0.00  0.00    +0.000 A 
ATOM     17  F   UNL     1       2.229  17.724  16.539  0.00  0.00    +0.000 F 
ATOM     18  C   UNL     1       0.134  17.590  17.622  0.00  0.00    +0.000 A 
ATOM     19  F   UNL     1      -0.409  18.425  16.723  0.00  0.00    +0.000 F 
ATOM     20  C   UNL     1      -0.674  17.074  18.638  0.00  0.00    +0.000 A 
ENDBRANCH  11  12
ENDBRANCH   1  11
BRANCH   1  21
ATOM     21  C   UNL     1      -2.035  13.407  19.827  0.00  0.00    +0.000 C 
BRANCH  21  22
ATOM     22  C   UNL     1      -3.328  12.999  20.575  0.00  0.00    +0.000 A 
ATOM     23  C   UNL     1      -4.488  12.576  19.890  0.00  0.00    +0.000 A 
ATOM     24  C   UNL     1      -5.710  12.406  20.539  0.00  0.00    +0.000 A 
ATOM     25  C   UNL     1      -5.791  12.609  21.902  0.00  0.00    +0.000 A 
ATOM     26  C   UNL     1      -4.651  12.939  22.627  0.00  0.00    +0.000 A 
ATOM     27  C   UNL     1      -3.426  13.113  21.972  0.00  0.00    +0.000 A 
ENDBRANCH  21  22
BRANCH  21  28
ATOM     28  C   UNL     1      -1.425  12.346  18.834  0.00  0.00    +0.000 C 
ATOM     29  N   UNL     1      -0.466  12.743  17.941  0.00  0.00    +0.000 N 
ATOM     30  O   UNL     1      -1.758  11.161  18.811  0.00  0.00    +0.000 OA
ATOM     31  H   UNL     1       0.078  13.582  18.085  0.00  0.00    +0.000 HD
ATOM     32  H   UNL     1      -0.006  11.990  17.440  0.00  0.00    +0.000 HD
ENDBRANCH  21  28
ENDBRANCH   1  21
TORSDOF 6
ENDMDL
