MODEL 1
REMARK VINA RESULT:      -7.7      0.000      0.000
REMARK  Name = 
REMARK  15 active torsions:
REMARK  status: ('A' for Active; 'I' for Inactive)
REMARK    1  A    between atoms: C_1  and  C_2
REMARK    2  A    between atoms: C_2  and  O_3
REMARK    3  A    between atoms: O_3  and  C_4
REMARK    4  A    between atoms: C_4  and  C_6
REMARK    5  A    between atoms: C_6  and  N_7
REMARK    6  A    between atoms: C_8  and  C_10
REMARK    7  A    between atoms: C_11  and  C_12
REMARK    8  A    between atoms: C_11  and  C_13
REMARK    9  A    between atoms: C_14  and  C_15
REMARK   10  A    between atoms: C_16  and  C_17
REMARK   11  A    between atoms: C_16  and  C_18
REMARK   12  A    between atoms: C_19  and  C_20
REMARK   13  A    between atoms: C_21  and  C_22
REMARK   14  A    between atoms: C_26  and  C_27
REMARK   15  A    between atoms: C_26  and  C_28
REMARK                            x       y       z     vdW  Elec       q    Type
REMARK                         _______ _______ _______ _____ _____    ______ ____
ROOT
ATOM      1  C   UNL     1       6.928   7.608  17.556  0.00  0.00    +0.000 C 
ATOM      2  C   UNL     1       8.059   8.240  17.934  0.00  0.00    +0.000 C 
ENDROOT
BRANCH   1   4
ATOM      3  C   UNL     1       5.418   5.653  17.591  0.00  0.00    +0.000 C 
ATOM      4  C   UNL     1       6.597   6.215  17.949  0.00  0.00    +0.000 C 
ATOM      5  C   UNL     1       7.660   5.481  18.739  0.00  0.00    +0.000 C 
BRANCH   3   7
ATOM      6  N   UNL     1       4.922   4.093  19.369  0.00  0.00    +0.000 N 
ATOM      7  C   UNL     1       4.980   4.280  18.006  0.00  0.00    +0.000 C 
ATOM      8  O   UNL     1       4.716   3.399  17.196  0.00  0.00    +0.000 OA
ATOM      9  H   UNL     1       5.171   4.840  20.008  0.00  0.00    +0.000 HD
BRANCH   6  10
ATOM     10  C   UNL     1       4.442   2.823  19.930  0.00  0.00    +0.000 C 
BRANCH  10  11
ATOM     11  C   UNL     1       3.139   2.929  20.703  0.00  0.00    +0.000 C 
ATOM     12  O   UNL     1       2.952   2.454  21.817  0.00  0.00    +0.000 OA
BRANCH  11  13
ATOM     13  O   UNL     1       2.195   3.551  19.931  0.00  0.00    +0.000 OA
BRANCH  13  15
ATOM     14  C   UNL     1       0.621   2.241  18.710  0.00  0.00    +0.000 C 
ATOM     15  C   UNL     1       0.875   2.994  20.005  0.00  0.00    +0.000 C 
ENDBRANCH  13  15
ENDBRANCH  11  13
ENDBRANCH  10  11
ENDBRANCH   6  10
ENDBRANCH   3   7
ENDBRANCH   1   4
BRANCH   2  16
ATOM     16  C   UNL     1       8.501   9.587  17.605  0.00  0.00    +0.000 C 
ATOM     17  C   UNL     1       9.133  10.433  18.464  0.00  0.00    +0.000 C 
ATOM     18  C   UNL     1       9.453  10.100  19.907  0.00  0.00    +0.000 C 
BRANCH  17  19
ATOM     19  C   UNL     1       9.533  11.779  18.023  0.00  0.00    +0.000 C 
ATOM     20  C   UNL     1       9.427  12.911  18.746  0.00  0.00    +0.000 C 
BRANCH  20  21
ATOM     21  C   UNL     1       9.775  14.254  18.292  0.00  0.00    +0.000 C 
ATOM     22  C   UNL     1       8.874  15.266  18.283  0.00  0.00    +0.000 C 
ATOM     23  C   UNL     1       7.466  15.174  18.824  0.00  0.00    +0.000 C 
ATOM     24  C   UNL     1       9.191  16.650  17.754  0.00  0.00    +0.000 C 
ATOM     25  C   UNL     1      10.499  16.742  16.982  0.00  0.00    +0.000 C 
ATOM     26  C   UNL     1      11.591  16.000  17.731  0.00  0.00    +0.000 C 
ATOM     27  C   UNL     1      11.268  14.487  17.903  0.00  0.00    +0.000 C 
ATOM     28  C   UNL     1      12.257  13.970  18.975  0.00  0.00    +0.000 C 
ATOM     29  C   UNL     1      11.573  13.756  16.578  0.00  0.00    +0.000 C 
ENDBRANCH  20  21
ENDBRANCH  17  19
ENDBRANCH   2  16
TORSDOF 9
ENDMDL
MODEL 2
REMARK VINA RESULT:      -7.5      6.760      8.889
REMARK  Name = 
REMARK  15 active torsions:
REMARK  status: ('A' for Active; 'I' for Inactive)
REMARK    1  A    between atoms: C_1  and  C_2
REMARK    2  A    between atoms: C_2  and  O_3
REMARK    3  A    between atoms: O_3  and  C_4
REMARK    4  A    between atoms: C_4  and  C_6
REMARK    5  A    between atoms: C_6  and  N_7
REMARK    6  A    between atoms: C_8  and  C_10
REMARK    7  A    between atoms: C_11  and  C_12
REMARK    8  A    between atoms: C_11  and  C_13
REMARK    9  A    between atoms: C_14  and  C_15
REMARK   10  A    between atoms: C_16  and  C_17
REMARK   11  A    between atoms: C_16  and  C_18
REMARK   12  A    between atoms: C_19  and  C_20
REMARK   13  A    between atoms: C_21  and  C_22
REMARK   14  A    between atoms: C_26  and  C_27
REMARK   15  A    between atoms: C_26  and  C_28
REMARK                            x       y       z     vdW  Elec       q    Type
REMARK                         _______ _______ _______ _____ _____    ______ ____
ROOT
ATOM      1  C   UNL     1       3.172   5.873  17.826  0.00  0.00    +0.000 C 
ATOM      2  C   UNL     1       3.026   7.187  17.555  0.00  0.00    +0.000 C 
ENDROOT
BRANCH   1   4
ATOM      3  C   UNL     1       4.991   5.488  16.200  0.00  0.00    +0.000 C 
ATOM      4  C   UNL     1       4.104   4.983  17.089  0.00  0.00    +0.000 C 
ATOM      5  C   UNL     1       4.006   3.507  17.416  0.00  0.00    +0.000 C 
BRANCH   3   7
ATOM      6  N   UNL     1       5.471   4.423  14.084  0.00  0.00    +0.000 N 
ATOM      7  C   UNL     1       5.917   4.652  15.367  0.00  0.00    +0.000 C 
ATOM      8  O   UNL     1       6.969   4.200  15.802  0.00  0.00    +0.000 OA
ATOM      9  H   UNL     1       4.582   4.796  13.768  0.00  0.00    +0.000 HD
BRANCH   6  10
ATOM     10  C   UNL     1       6.300   3.681  13.126  0.00  0.00    +0.000 C 
BRANCH  10  11
ATOM     11  C   UNL     1       5.518   2.964  12.039  0.00  0.00    +0.000 C 
ATOM     12  O   UNL     1       5.826   1.877  11.565  0.00  0.00    +0.000 OA
BRANCH  11  13
ATOM     13  O   UNL     1       4.483   3.754  11.619  0.00  0.00    +0.000 OA
BRANCH  13  15
ATOM     14  C   UNL     1       3.037   4.091   9.754  0.00  0.00    +0.000 C 
ATOM     15  C   UNL     1       3.497   3.100  10.810  0.00  0.00    +0.000 C 
ENDBRANCH  13  15
ENDBRANCH  11  13
ENDBRANCH  10  11
ENDBRANCH   6  10
ENDBRANCH   3   7
ENDBRANCH   1   4
BRANCH   2  16
ATOM     16  C   UNL     1       2.143   8.153  18.191  0.00  0.00    +0.000 C 
ATOM     17  C   UNL     1       1.686   8.069  19.471  0.00  0.00    +0.000 C 
ATOM     18  C   UNL     1       2.017   6.937  20.422  0.00  0.00    +0.000 C 
BRANCH  17  19
ATOM     19  C   UNL     1       0.791   9.105  20.011  0.00  0.00    +0.000 C 
ATOM     20  C   UNL     1       1.169  10.176  20.736  0.00  0.00    +0.000 C 
BRANCH  20  21
ATOM     21  C   UNL     1       0.278  11.177  21.316  0.00  0.00    +0.000 C 
ATOM     22  C   UNL     1      -0.467  10.925  22.419  0.00  0.00    +0.000 C 
ATOM     23  C   UNL     1      -0.399   9.656  23.235  0.00  0.00    +0.000 C 
ATOM     24  C   UNL     1      -1.448  11.923  22.999  0.00  0.00    +0.000 C 
ATOM     25  C   UNL     1      -1.738  13.114  22.098  0.00  0.00    +0.000 C 
ATOM     26  C   UNL     1      -0.442  13.648  21.517  0.00  0.00    +0.000 C 
ATOM     27  C   UNL     1       0.298  12.588  20.649  0.00  0.00    +0.000 C 
ATOM     28  C   UNL     1       1.731  13.140  20.452  0.00  0.00    +0.000 C 
ATOM     29  C   UNL     1      -0.380  12.512  19.265  0.00  0.00    +0.000 C 
ENDBRANCH  20  21
ENDBRANCH  17  19
ENDBRANCH   2  16
TORSDOF 9
ENDMDL
MODEL 3
REMARK VINA RESULT:      -7.5      1.396      2.439
REMARK  Name = 
REMARK  15 active torsions:
REMARK  status: ('A' for Active; 'I' for Inactive)
REMARK    1  A    between atoms: C_1  and  C_2
REMARK    2  A    between atoms: C_2  and  O_3
REMARK    3  A    between atoms: O_3  and  C_4
REMARK    4  A    between atoms: C_4  and  C_6
REMARK    5  A    between atoms: C_6  and  N_7
REMARK    6  A    between atoms: C_8  and  C_10
REMARK    7  A    between atoms: C_11  and  C_12
REMARK    8  A    between atoms: C_11  and  C_13
REMARK    9  A    between atoms: C_14  and  C_15
REMARK   10  A    between atoms: C_16  and  C_17
REMARK   11  A    between atoms: C_16  and  C_18
REMARK   12  A    between atoms: C_19  and  C_20
REMARK   13  A    between atoms: C_21  and  C_22
REMARK   14  A    between atoms: C_26  and  C_27
REMARK   15  A    between atoms: C_26  and  C_28
REMARK                            x       y       z     vdW  Elec       q    Type
REMARK                         _______ _______ _______ _____ _____    ______ ____
ROOT
ATOM      1  C   UNL     1       7.486   8.478  17.578  0.00  0.00    +0.000 C 
ATOM      2  C   UNL     1       8.542   9.124  18.116  0.00  0.00    +0.000 C 
ENDROOT
BRANCH   1   4
ATOM      3  C   UNL     1       6.424   6.352  16.904  0.00  0.00    +0.000 C 
ATOM      4  C   UNL     1       7.241   7.024  17.749  0.00  0.00    +0.000 C 
ATOM      5  C   UNL     1       7.975   6.360  18.896  0.00  0.00    +0.000 C 
BRANCH   3   7
ATOM      6  N   UNL     1       5.130   4.643  18.021  0.00  0.00    +0.000 N 
ATOM      7  C   UNL     1       6.071   4.901  17.050  0.00  0.00    +0.000 C 
ATOM      8  O   UNL     1       6.593   4.024  16.371  0.00  0.00    +0.000 OA
ATOM      9  H   UNL     1       4.737   5.394  18.578  0.00  0.00    +0.000 HD
BRANCH   6  10
ATOM     10  C   UNL     1       4.630   3.279  18.234  0.00  0.00    +0.000 C 
BRANCH  10  11
ATOM     11  C   UNL     1       4.380   2.919  19.688  0.00  0.00    +0.000 C 
ATOM     12  O   UNL     1       5.078   2.155  20.344  0.00  0.00    +0.000 OA
BRANCH  11  13
ATOM     13  O   UNL     1       3.218   3.503  20.113  0.00  0.00    +0.000 OA
BRANCH  13  15
ATOM     14  C   UNL     1       0.843   3.286  20.123  0.00  0.00    +0.000 C 
ATOM     15  C   UNL     1       2.087   3.323  19.250  0.00  0.00    +0.000 C 
ENDBRANCH  13  15
ENDBRANCH  11  13
ENDBRANCH  10  11
ENDBRANCH   6  10
ENDBRANCH   3   7
ENDBRANCH   1   4
BRANCH   2  16
ATOM     16  C   UNL     1       8.897  10.531  18.009  0.00  0.00    +0.000 C 
ATOM     17  C   UNL     1       9.404  11.288  19.022  0.00  0.00    +0.000 C 
ATOM     18  C   UNL     1       9.655  10.775  20.425  0.00  0.00    +0.000 C 
BRANCH  17  19
ATOM     19  C   UNL     1       9.724  12.707  18.801  0.00  0.00    +0.000 C 
ATOM     20  C   UNL     1       9.399  13.727  19.619  0.00  0.00    +0.000 C 
BRANCH  20  21
ATOM     21  C   UNL     1       9.670  15.141  19.377  0.00  0.00    +0.000 C 
ATOM     22  C   UNL     1      10.925  15.649  19.414  0.00  0.00    +0.000 C 
ATOM     23  C   UNL     1      12.183  14.832  19.594  0.00  0.00    +0.000 C 
ATOM     24  C   UNL     1      11.226  17.123  19.234  0.00  0.00    +0.000 C 
ATOM     25  C   UNL     1      10.001  18.024  19.288  0.00  0.00    +0.000 C 
ATOM     26  C   UNL     1       8.881  17.420  18.459  0.00  0.00    +0.000 C 
ATOM     27  C   UNL     1       8.443  16.022  18.984  0.00  0.00    +0.000 C 
ATOM     28  C   UNL     1       7.594  15.399  17.850  0.00  0.00    +0.000 C 
ATOM     29  C   UNL     1       7.532  16.212  20.216  0.00  0.00    +0.000 C 
ENDBRANCH  20  21
ENDBRANCH  17  19
ENDBRANCH   2  16
TORSDOF 9
ENDMDL
MODEL 4
REMARK VINA RESULT:      -7.4      6.893      9.599
REMARK  Name = 
REMARK  15 active torsions:
REMARK  status: ('A' for Active; 'I' for Inactive)
REMARK    1  A    between atoms: C_1  and  C_2
REMARK    2  A    between atoms: C_2  and  O_3
REMARK    3  A    between atoms: O_3  and  C_4
REMARK    4  A    between atoms: C_4  and  C_6
REMARK    5  A    between atoms: C_6  and  N_7
REMARK    6  A    between atoms: C_8  and  C_10
REMARK    7  A    between atoms: C_11  and  C_12
REMARK    8  A    between atoms: C_11  and  C_13
REMARK    9  A    between atoms: C_14  and  C_15
REMARK   10  A    between atoms: C_16  and  C_17
REMARK   11  A    between atoms: C_16  and  C_18
REMARK   12  A    between atoms: C_19  and  C_20
REMARK   13  A    between atoms: C_21  and  C_22
REMARK   14  A    between atoms: C_26  and  C_27
REMARK   15  A    between atoms: C_26  and  C_28
REMARK                            x       y       z     vdW  Elec       q    Type
REMARK                         _______ _______ _______ _____ _____    ______ ____
ROOT
ATOM      1  C   UNL     1       2.719   6.742  18.122  0.00  0.00    +0.000 C 
ATOM      2  C   UNL     1       2.600   8.077  18.280  0.00  0.00    +0.000 C 
ENDROOT
BRANCH   1   4
ATOM      3  C   UNL     1       4.919   6.774  17.000  0.00  0.00    +0.000 C 
ATOM      4  C   UNL     1       3.965   6.079  17.664  0.00  0.00    +0.000 C 
ATOM      5  C   UNL     1       4.097   4.609  18.007  0.00  0.00    +0.000 C 
BRANCH   3   7
ATOM      6  N   UNL     1       5.993   5.489  15.257  0.00  0.00    +0.000 N 
ATOM      7  C   UNL     1       6.172   6.164  16.445  0.00  0.00    +0.000 C 
ATOM      8  O   UNL     1       7.254   6.248  17.013  0.00  0.00    +0.000 OA
ATOM      9  H   UNL     1       5.077   5.423  14.829  0.00  0.00    +0.000 HD
BRANCH   6  10
ATOM     10  C   UNL     1       7.139   4.899  14.554  0.00  0.00    +0.000 C 
BRANCH  10  11
ATOM     11  C   UNL     1       6.847   4.463  13.128  0.00  0.00    +0.000 C 
ATOM     12  O   UNL     1       7.525   4.770  12.155  0.00  0.00    +0.000 OA
BRANCH  11  13
ATOM     13  O   UNL     1       5.674   3.760  13.094  0.00  0.00    +0.000 OA
BRANCH  13  15
ATOM     14  C   UNL     1       4.177   3.192  11.327  0.00  0.00    +0.000 C 
ATOM     15  C   UNL     1       5.516   2.879  11.974  0.00  0.00    +0.000 C 
ENDBRANCH  13  15
ENDBRANCH  11  13
ENDBRANCH  10  11
ENDBRANCH   6  10
ENDBRANCH   3   7
ENDBRANCH   1   4
BRANCH   2  16
ATOM     16  C   UNL     1       1.437   8.842  18.705  0.00  0.00    +0.000 C 
ATOM     17  C   UNL     1       0.941   8.868  19.973  0.00  0.00    +0.000 C 
ATOM     18  C   UNL     1       1.519   8.081  21.131  0.00  0.00    +0.000 C 
BRANCH  17  19
ATOM     19  C   UNL     1      -0.247   9.677  20.290  0.00  0.00    +0.000 C 
ATOM     20  C   UNL     1      -0.319  11.021  20.255  0.00  0.00    +0.000 C 
BRANCH  20  21
ATOM     21  C   UNL     1      -1.481  11.828  20.618  0.00  0.00    +0.000 C 
ATOM     22  C   UNL     1      -2.467  12.111  19.733  0.00  0.00    +0.000 C 
ATOM     23  C   UNL     1      -2.551  11.558  18.329  0.00  0.00    +0.000 C 
ATOM     24  C   UNL     1      -3.646  13.001  20.065  0.00  0.00    +0.000 C 
ATOM     25  C   UNL     1      -3.500  13.775  21.368  0.00  0.00    +0.000 C 
ATOM     26  C   UNL     1      -2.974  12.857  22.456  0.00  0.00    +0.000 C 
ATOM     27  C   UNL     1      -1.572  12.274  22.111  0.00  0.00    +0.000 C 
ATOM     28  C   UNL     1      -1.352  11.106  23.102  0.00  0.00    +0.000 C 
ATOM     29  C   UNL     1      -0.500  13.349  22.393  0.00  0.00    +0.000 C 
ENDBRANCH  20  21
ENDBRANCH  17  19
ENDBRANCH   2  16
TORSDOF 9
ENDMDL
MODEL 5
REMARK VINA RESULT:      -7.2      1.448      2.704
REMARK  Name = 
REMARK  15 active torsions:
REMARK  status: ('A' for Active; 'I' for Inactive)
REMARK    1  A    between atoms: C_1  and  C_2
REMARK    2  A    between atoms: C_2  and  O_3
REMARK    3  A    between atoms: O_3  and  C_4
REMARK    4  A    between atoms: C_4  and  C_6
REMARK    5  A    between atoms: C_6  and  N_7
REMARK    6  A    between atoms: C_8  and  C_10
REMARK    7  A    between atoms: C_11  and  C_12
REMARK    8  A    between atoms: C_11  and  C_13
REMARK    9  A    between atoms: C_14  and  C_15
REMARK   10  A    between atoms: C_16  and  C_17
REMARK   11  A    between atoms: C_16  and  C_18
REMARK   12  A    between atoms: C_19  and  C_20
REMARK   13  A    between atoms: C_21  and  C_22
REMARK   14  A    between atoms: C_26  and  C_27
REMARK   15  A    between atoms: C_26  and  C_28
REMARK                            x       y       z     vdW  Elec       q    Type
REMARK                         _______ _______ _______ _____ _____    ______ ____
ROOT
ATOM      1  C   UNL     1       7.805   8.947  17.496  0.00  0.00    +0.000 C 
ATOM      2  C   UNL     1       8.661   9.495  18.384  0.00  0.00    +0.000 C 
ENDROOT
BRANCH   1   4
ATOM      3  C   UNL     1       7.716   6.734  18.591  0.00  0.00    +0.000 C 
ATOM      4  C   UNL     1       7.331   7.542  17.575  0.00  0.00    +0.000 C 
ATOM      5  C   UNL     1       6.389   7.099  16.474  0.00  0.00    +0.000 C 
BRANCH   3   7
ATOM      6  N   UNL     1       6.140   5.066  19.349  0.00  0.00    +0.000 N 
ATOM      7  C   UNL     1       7.338   5.288  18.706  0.00  0.00    +0.000 C 
ATOM      8  O   UNL     1       8.047   4.384  18.277  0.00  0.00    +0.000 OA
ATOM      9  H   UNL     1       5.592   5.839  19.710  0.00  0.00    +0.000 HD
BRANCH   6  10
ATOM     10  C   UNL     1       5.600   3.706  19.475  0.00  0.00    +0.000 C 
BRANCH  10  11
ATOM     11  C   UNL     1       4.133   3.573  19.105  0.00  0.00    +0.000 C 
ATOM     12  O   UNL     1       3.716   2.951  18.135  0.00  0.00    +0.000 OA
BRANCH  11  13
ATOM     13  O   UNL     1       3.373   4.322  19.961  0.00  0.00    +0.000 OA
BRANCH  13  15
ATOM     14  C   UNL     1       1.041   4.096  20.400  0.00  0.00    +0.000 C 
ATOM     15  C   UNL     1       2.080   4.698  19.469  0.00  0.00    +0.000 C 
ENDBRANCH  13  15
ENDBRANCH  11  13
ENDBRANCH  10  11
ENDBRANCH   6  10
ENDBRANCH   3   7
ENDBRANCH   1   4
BRANCH   2  16
ATOM     16  C   UNL     1       9.206  10.844  18.407  0.00  0.00    +0.000 C 
ATOM     17  C   UNL     1       9.499  11.550  19.534  0.00  0.00    +0.000 C 
ATOM     18  C   UNL     1       9.277  11.037  20.942  0.00  0.00    +0.000 C 
BRANCH  17  19
ATOM     19  C   UNL     1      10.045  12.913  19.438  0.00  0.00    +0.000 C 
ATOM     20  C   UNL     1       9.761  13.811  18.475  0.00  0.00    +0.000 C 
BRANCH  20  21
ATOM     21  C   UNL     1      10.341  15.145  18.347  0.00  0.00    +0.000 C 
ATOM     22  C   UNL     1      11.526  15.359  17.726  0.00  0.00    +0.000 C 
ATOM     23  C   UNL     1      12.328  14.298  17.009  0.00  0.00    +0.000 C 
ATOM     24  C   UNL     1      12.181  16.722  17.641  0.00  0.00    +0.000 C 
ATOM     25  C   UNL     1      11.552  17.777  18.539  0.00  0.00    +0.000 C 
ATOM     26  C   UNL     1      10.039  17.707  18.434  0.00  0.00    +0.000 C 
ATOM     27  C   UNL     1       9.478  16.328  18.888  0.00  0.00    +0.000 C 
ATOM     28  C   UNL     1       8.016  16.286  18.379  0.00  0.00    +0.000 C 
ATOM     29  C   UNL     1       9.449  16.281  20.430  0.00  0.00    +0.000 C 
ENDBRANCH  20  21
ENDBRANCH  17  19
ENDBRANCH   2  16
TORSDOF 9
ENDMDL
MODEL 6
REMARK VINA RESULT:      -7.2      7.914     10.180
REMARK  Name = 
REMARK  15 active torsions:
REMARK  status: ('A' for Active; 'I' for Inactive)
REMARK    1  A    between atoms: C_1  and  C_2
REMARK    2  A    between atoms: C_2  and  O_3
REMARK    3  A    between atoms: O_3  and  C_4
REMARK    4  A    between atoms: C_4  and  C_6
REMARK    5  A    between atoms: C_6  and  N_7
REMARK    6  A    between atoms: C_8  and  C_10
REMARK    7  A    between atoms: C_11  and  C_12
REMARK    8  A    between atoms: C_11  and  C_13
REMARK    9  A    between atoms: C_14  and  C_15
REMARK   10  A    between atoms: C_16  and  C_17
REMARK   11  A    between atoms: C_16  and  C_18
REMARK   12  A    between atoms: C_19  and  C_20
REMARK   13  A    between atoms: C_21  and  C_22
REMARK   14  A    between atoms: C_26  and  C_27
REMARK   15  A    between atoms: C_26  and  C_28
REMARK                            x       y       z     vdW  Elec       q    Type
REMARK                         _______ _______ _______ _____ _____    ______ ____
ROOT
ATOM      1  C   UNL     1       1.486   9.199  20.092  0.00  0.00    +0.000 C 
ATOM      2  C   UNL     1       0.196   9.595  20.099  0.00  0.00    +0.000 C 
ENDROOT
BRANCH   1   4
ATOM      3  C   UNL     1       2.237   6.878  19.705  0.00  0.00    +0.000 C 
ATOM      4  C   UNL     1       2.008   8.120  19.217  0.00  0.00    +0.000 C 
ATOM      5  C   UNL     1       2.234   8.496  17.767  0.00  0.00    +0.000 C 
BRANCH   3   7
ATOM      6  N   UNL     1       4.060   5.332  19.349  0.00  0.00    +0.000 N 
ATOM      7  C   UNL     1       2.827   5.755  18.905  0.00  0.00    +0.000 C 
ATOM      8  O   UNL     1       2.262   5.272  17.931  0.00  0.00    +0.000 OA
ATOM      9  H   UNL     1       4.506   5.772  20.146  0.00  0.00    +0.000 HD
BRANCH   6  10
ATOM     10  C   UNL     1       4.733   4.192  18.712  0.00  0.00    +0.000 C 
BRANCH  10  11
ATOM     11  C   UNL     1       4.040   2.856  18.918  0.00  0.00    +0.000 C 
ATOM     12  O   UNL     1       3.696   2.105  18.012  0.00  0.00    +0.000 OA
BRANCH  11  13
ATOM     13  O   UNL     1       3.784   2.671  20.249  0.00  0.00    +0.000 OA
BRANCH  13  15
ATOM     14  C   UNL     1       2.037   3.424  21.686  0.00  0.00    +0.000 C 
ATOM     15  C   UNL     1       2.409   2.444  20.586  0.00  0.00    +0.000 C 
ENDBRANCH  13  15
ENDBRANCH  11  13
ENDBRANCH  10  11
ENDBRANCH   6  10
ENDBRANCH   3   7
ENDBRANCH   1   4
BRANCH   2  16
ATOM     16  C   UNL     1      -0.436  10.622  20.915  0.00  0.00    +0.000 C 
ATOM     17  C   UNL     1      -0.566  10.573  22.269  0.00  0.00    +0.000 C 
ATOM     18  C   UNL     1      -0.086   9.423  23.131  0.00  0.00    +0.000 C 
BRANCH  17  19
ATOM     19  C   UNL     1      -1.227  11.671  22.992  0.00  0.00    +0.000 C 
ATOM     20  C   UNL     1      -2.035  12.601  22.448  0.00  0.00    +0.000 C 
BRANCH  20  21
ATOM     21  C   UNL     1      -2.652  13.721  23.154  0.00  0.00    +0.000 C 
ATOM     22  C   UNL     1      -1.973  14.862  23.426  0.00  0.00    +0.000 C 
ATOM     23  C   UNL     1      -0.568  15.164  22.958  0.00  0.00    +0.000 C 
ATOM     24  C   UNL     1      -2.568  16.009  24.215  0.00  0.00    +0.000 C 
ATOM     25  C   UNL     1      -3.878  15.677  24.914  0.00  0.00    +0.000 C 
ATOM     26  C   UNL     1      -4.789  14.918  23.966  0.00  0.00    +0.000 C 
ATOM     27  C   UNL     1      -4.166  13.570  23.499  0.00  0.00    +0.000 C 
ATOM     28  C   UNL     1      -5.017  13.117  22.287  0.00  0.00    +0.000 C 
ATOM     29  C   UNL     1      -4.336  12.524  24.621  0.00  0.00    +0.000 C 
ENDBRANCH  20  21
ENDBRANCH  17  19
ENDBRANCH   2  16
TORSDOF 9
ENDMDL
MODEL 7
REMARK VINA RESULT:      -7.1      6.895      9.586
REMARK  Name = 
REMARK  15 active torsions:
REMARK  status: ('A' for Active; 'I' for Inactive)
REMARK    1  A    between atoms: C_1  and  C_2
REMARK    2  A    between atoms: C_2  and  O_3
REMARK    3  A    between atoms: O_3  and  C_4
REMARK    4  A    between atoms: C_4  and  C_6
REMARK    5  A    between atoms: C_6  and  N_7
REMARK    6  A    between atoms: C_8  and  C_10
REMARK    7  A    between atoms: C_11  and  C_12
REMARK    8  A    between atoms: C_11  and  C_13
REMARK    9  A    between atoms: C_14  and  C_15
REMARK   10  A    between atoms: C_16  and  C_17
REMARK   11  A    between atoms: C_16  and  C_18
REMARK   12  A    between atoms: C_19  and  C_20
REMARK   13  A    between atoms: C_21  and  C_22
REMARK   14  A    between atoms: C_26  and  C_27
REMARK   15  A    between atoms: C_26  and  C_28
REMARK                            x       y       z     vdW  Elec       q    Type
REMARK                         _______ _______ _______ _____ _____    ______ ____
ROOT
ATOM      1  C   UNL     1       1.429   6.507  20.911  0.00  0.00    +0.000 C 
ATOM      2  C   UNL     1       1.565   7.823  20.643  0.00  0.00    +0.000 C 
ENDROOT
BRANCH   1   4
ATOM      3  C   UNL     1       2.212   5.645  18.733  0.00  0.00    +0.000 C 
ATOM      4  C   UNL     1       1.988   5.434  20.051  0.00  0.00    +0.000 C 
ATOM      5  C   UNL     1       2.303   4.126  20.747  0.00  0.00    +0.000 C 
BRANCH   3   7
ATOM      6  N   UNL     1       4.072   4.601  17.596  0.00  0.00    +0.000 N 
ATOM      7  C   UNL     1       2.707   4.594  17.784  0.00  0.00    +0.000 C 
ATOM      8  O   UNL     1       1.955   3.812  17.215  0.00  0.00    +0.000 OA
ATOM      9  H   UNL     1       4.659   5.280  18.068  0.00  0.00    +0.000 HD
BRANCH   6  10
ATOM     10  C   UNL     1       4.715   3.587  16.751  0.00  0.00    +0.000 C 
BRANCH  10  11
ATOM     11  C   UNL     1       5.905   4.093  15.954  0.00  0.00    +0.000 C 
ATOM     12  O   UNL     1       6.276   3.621  14.885  0.00  0.00    +0.000 OA
BRANCH  11  13
ATOM     13  O   UNL     1       6.538   5.084  16.653  0.00  0.00    +0.000 OA
BRANCH  13  15
ATOM     14  C   UNL     1       7.641   5.623  18.697  0.00  0.00    +0.000 C 
ATOM     15  C   UNL     1       7.581   4.646  17.535  0.00  0.00    +0.000 C 
ENDBRANCH  13  15
ENDBRANCH  11  13
ENDBRANCH  10  11
ENDBRANCH   6  10
ENDBRANCH   3   7
ENDBRANCH   1   4
BRANCH   2  16
ATOM     16  C   UNL     1       1.055   8.961  21.394  0.00  0.00    +0.000 C 
ATOM     17  C   UNL     1       0.303   9.968  20.871  0.00  0.00    +0.000 C 
ATOM     18  C   UNL     1      -0.098  10.064  19.413  0.00  0.00    +0.000 C 
BRANCH  17  19
ATOM     19  C   UNL     1      -0.156  11.074  21.726  0.00  0.00    +0.000 C 
ATOM     20  C   UNL     1      -0.986  12.068  21.354  0.00  0.00    +0.000 C 
BRANCH  20  21
ATOM     21  C   UNL     1      -1.403  13.194  22.184  0.00  0.00    +0.000 C 
ATOM     22  C   UNL     1      -0.573  14.229  22.462  0.00  0.00    +0.000 C 
ATOM     23  C   UNL     1       0.810  14.406  21.882  0.00  0.00    +0.000 C 
ATOM     24  C   UNL     1      -0.958  15.375  23.375  0.00  0.00    +0.000 C 
ATOM     25  C   UNL     1      -2.232  15.140  24.174  0.00  0.00    +0.000 C 
ATOM     26  C   UNL     1      -3.305  14.559  23.271  0.00  0.00    +0.000 C 
ATOM     27  C   UNL     1      -2.889  13.188  22.662  0.00  0.00    +0.000 C 
ATOM     28  C   UNL     1      -3.889  12.923  21.512  0.00  0.00    +0.000 C 
ATOM     29  C   UNL     1      -3.081  12.087  23.727  0.00  0.00    +0.000 C 
ENDBRANCH  20  21
ENDBRANCH  17  19
ENDBRANCH   2  16
TORSDOF 9
ENDMDL
MODEL 8
REMARK VINA RESULT:      -7.1      7.109      9.218
REMARK  Name = 
REMARK  15 active torsions:
REMARK  status: ('A' for Active; 'I' for Inactive)
REMARK    1  A    between atoms: C_1  and  C_2
REMARK    2  A    between atoms: C_2  and  O_3
REMARK    3  A    between atoms: O_3  and  C_4
REMARK    4  A    between atoms: C_4  and  C_6
REMARK    5  A    between atoms: C_6  and  N_7
REMARK    6  A    between atoms: C_8  and  C_10
REMARK    7  A    between atoms: C_11  and  C_12
REMARK    8  A    between atoms: C_11  and  C_13
REMARK    9  A    between atoms: C_14  and  C_15
REMARK   10  A    between atoms: C_16  and  C_17
REMARK   11  A    between atoms: C_16  and  C_18
REMARK   12  A    between atoms: C_19  and  C_20
REMARK   13  A    between atoms: C_21  and  C_22
REMARK   14  A    between atoms: C_26  and  C_27
REMARK   15  A    between atoms: C_26  and  C_28
REMARK                            x       y       z     vdW  Elec       q    Type
REMARK                         _______ _______ _______ _____ _____    ______ ____
ROOT
ATOM      1  C   UNL     1       3.668   6.802  17.566  0.00  0.00    +0.000 C 
ATOM      2  C   UNL     1       3.109   6.555  18.769  0.00  0.00    +0.000 C 
ENDROOT
BRANCH   1   4
ATOM      3  C   UNL     1       5.203   6.210  15.723  0.00  0.00    +0.000 C 
ATOM      4  C   UNL     1       4.698   5.929  16.947  0.00  0.00    +0.000 C 
ATOM      5  C   UNL     1       5.147   4.745  17.777  0.00  0.00    +0.000 C 
BRANCH   3   7
ATOM      6  N   UNL     1       5.633   4.519  14.051  0.00  0.00    +0.000 N 
ATOM      7  C   UNL     1       6.192   5.344  15.001  0.00  0.00    +0.000 C 
ATOM      8  O   UNL     1       7.391   5.361  15.253  0.00  0.00    +0.000 OA
ATOM      9  H   UNL     1       4.632   4.518  13.886  0.00  0.00    +0.000 HD
BRANCH   6  10
ATOM     10  C   UNL     1       6.481   3.663  13.211  0.00  0.00    +0.000 C 
BRANCH  10  11
ATOM     11  C   UNL     1       5.731   2.890  12.140  0.00  0.00    +0.000 C 
ATOM     12  O   UNL     1       6.229   2.020  11.435  0.00  0.00    +0.000 OA
BRANCH  11  13
ATOM     13  O   UNL     1       4.458   3.377  12.028  0.00  0.00    +0.000 OA
BRANCH  13  15
ATOM     14  C   UNL     1       2.987   3.186  10.161  0.00  0.00    +0.000 C 
ATOM     15  C   UNL     1       4.135   3.976  10.766  0.00  0.00    +0.000 C 
ENDBRANCH  13  15
ENDBRANCH  11  13
ENDBRANCH  10  11
ENDBRANCH   6  10
ENDBRANCH   3   7
ENDBRANCH   1   4
BRANCH   2  16
ATOM     16  C   UNL     1       2.109   7.336  19.483  0.00  0.00    +0.000 C 
ATOM     17  C   UNL     1       1.638   8.551  19.088  0.00  0.00    +0.000 C 
ATOM     18  C   UNL     1       2.107   9.284  17.847  0.00  0.00    +0.000 C 
BRANCH  17  19
ATOM     19  C   UNL     1       0.627   9.254  19.893  0.00  0.00    +0.000 C 
ATOM     20  C   UNL     1       0.754  10.488  20.418  0.00  0.00    +0.000 C 
BRANCH  20  21
ATOM     21  C   UNL     1      -0.227  11.167  21.260  0.00  0.00    +0.000 C 
ATOM     22  C   UNL     1      -0.581  10.693  22.479  0.00  0.00    +0.000 C 
ATOM     23  C   UNL     1       0.050   9.500  23.158  0.00  0.00    +0.000 C 
ATOM     24  C   UNL     1      -1.644  11.341  23.341  0.00  0.00    +0.000 C 
ATOM     25  C   UNL     1      -2.478  12.393  22.624  0.00  0.00    +0.000 C 
ATOM     26  C   UNL     1      -1.573  13.300  21.810  0.00  0.00    +0.000 C 
ATOM     27  C   UNL     1      -0.782  12.521  20.718  0.00  0.00    +0.000 C 
ATOM     28  C   UNL     1       0.335  13.484  20.248  0.00  0.00    +0.000 C 
ATOM     29  C   UNL     1      -1.717  12.251  19.520  0.00  0.00    +0.000 C 
ENDBRANCH  20  21
ENDBRANCH  17  19
ENDBRANCH   2  16
TORSDOF 9
ENDMDL
MODEL 9
REMARK VINA RESULT:      -7.1      7.549     10.099
REMARK  Name = 
REMARK  15 active torsions:
REMARK  status: ('A' for Active; 'I' for Inactive)
REMARK    1  A    between atoms: C_1  and  C_2
REMARK    2  A    between atoms: C_2  and  O_3
REMARK    3  A    between atoms: O_3  and  C_4
REMARK    4  A    between atoms: C_4  and  C_6
REMARK    5  A    between atoms: C_6  and  N_7
REMARK    6  A    between atoms: C_8  and  C_10
REMARK    7  A    between atoms: C_11  and  C_12
REMARK    8  A    between atoms: C_11  and  C_13
REMARK    9  A    between atoms: C_14  and  C_15
REMARK   10  A    between atoms: C_16  and  C_17
REMARK   11  A    between atoms: C_16  and  C_18
REMARK   12  A    between atoms: C_19  and  C_20
REMARK   13  A    between atoms: C_21  and  C_22
REMARK   14  A    between atoms: C_26  and  C_27
REMARK   15  A    between atoms: C_26  and  C_28
REMARK                            x       y       z     vdW  Elec       q    Type
REMARK                         _______ _______ _______ _____ _____    ______ ____
ROOT
ATOM      1  C   UNL     1       1.491   7.885  20.883  0.00  0.00    +0.000 C 
ATOM      2  C   UNL     1       1.070   8.987  20.228  0.00  0.00    +0.000 C 
ENDROOT
BRANCH   1   4
ATOM      3  C   UNL     1       3.043   6.904  19.230  0.00  0.00    +0.000 C 
ATOM      4  C   UNL     1       2.125   6.724  20.210  0.00  0.00    +0.000 C 
ATOM      5  C   UNL     1       1.699   5.358  20.705  0.00  0.00    +0.000 C 
BRANCH   3   7
ATOM      6  N   UNL     1       4.975   5.510  18.825  0.00  0.00    +0.000 N 
ATOM      7  C   UNL     1       3.677   5.788  18.456  0.00  0.00    +0.000 C 
ATOM      8  O   UNL     1       3.092   5.191  17.559  0.00  0.00    +0.000 OA
ATOM      9  H   UNL     1       5.433   6.042  19.556  0.00  0.00    +0.000 HD
BRANCH   6  10
ATOM     10  C   UNL     1       5.705   4.396  18.206  0.00  0.00    +0.000 C 
BRANCH  10  11
ATOM     11  C   UNL     1       7.180   4.669  17.960  0.00  0.00    +0.000 C 
ATOM     12  O   UNL     1       7.951   5.122  18.798  0.00  0.00    +0.000 OA
BRANCH  11  13
ATOM     13  O   UNL     1       7.481   4.418  16.650  0.00  0.00    +0.000 OA
BRANCH  13  15
ATOM     14  C   UNL     1       6.368   4.336  14.543  0.00  0.00    +0.000 C 
ATOM     15  C   UNL     1       6.794   5.234  15.692  0.00  0.00    +0.000 C 
ENDBRANCH  13  15
ENDBRANCH  11  13
ENDBRANCH  10  11
ENDBRANCH   6  10
ENDBRANCH   3   7
ENDBRANCH   1   4
BRANCH   2  16
ATOM     16  C   UNL     1       0.425  10.175  20.769  0.00  0.00    +0.000 C 
ATOM     17  C   UNL     1      -0.608  10.840  20.180  0.00  0.00    +0.000 C 
ATOM     18  C   UNL     1      -1.227  10.448  18.854  0.00  0.00    +0.000 C 
BRANCH  17  19
ATOM     19  C   UNL     1      -1.182  12.035  20.817  0.00  0.00    +0.000 C 
ATOM     20  C   UNL     1      -1.529  12.150  22.113  0.00  0.00    +0.000 C 
BRANCH  20  21
ATOM     21  C   UNL     1      -2.146  13.317  22.737  0.00  0.00    +0.000 C 
ATOM     22  C   UNL     1      -1.455  14.459  22.968  0.00  0.00    +0.000 C 
ATOM     23  C   UNL     1      -0.031  14.711  22.529  0.00  0.00    +0.000 C 
ATOM     24  C   UNL     1      -2.053  15.659  23.674  0.00  0.00    +0.000 C 
ATOM     25  C   UNL     1      -3.390  15.388  24.347  0.00  0.00    +0.000 C 
ATOM     26  C   UNL     1      -4.285  14.594  23.414  0.00  0.00    +0.000 C 
ATOM     27  C   UNL     1      -3.674  13.212  23.041  0.00  0.00    +0.000 C 
ATOM     28  C   UNL     1      -4.494  12.707  21.829  0.00  0.00    +0.000 C 
ATOM     29  C   UNL     1      -3.897  12.232  24.212  0.00  0.00    +0.000 C 
ENDBRANCH  20  21
ENDBRANCH  17  19
ENDBRANCH   2  16
TORSDOF 9
ENDMDL
