MODEL 1
REMARK VINA RESULT:      -8.8      0.000      0.000
REMARK  Name = 
REMARK  8 active torsions:
REMARK  status: ('A' for Active; 'I' for Inactive)
REMARK    1  A    between atoms: C_1  and  C_2
REMARK    2  A    between atoms: N_4  and  C_5
REMARK    3  A    between atoms: C_5  and  C_6
REMARK    4  A    between atoms: N_8  and  C_9
REMARK    5  A    between atoms: C_9  and  C_10
REMARK    6  A    between atoms: C_10  and  C_11
REMARK    7  A    between atoms: C_10  and  C_12
REMARK    8  A    between atoms: C_22  and  C_23
REMARK                            x       y       z     vdW  Elec       q    Type
REMARK                         _______ _______ _______ _____ _____    ______ ____
ROOT
ATOM      1  C   UNL     1       7.295   5.569  19.346  0.00  0.00    +0.000 C 
ATOM      2  C   UNL     1       6.038   4.851  18.994  0.00  0.00    +0.000 A 
ATOM      3  N   UNL     1       5.149   4.567  19.914  0.00  0.00    +0.000 NA
ATOM      4  N   UNL     1       3.988   3.896  19.539  0.00  0.00    +0.000 N 
ATOM      5  C   UNL     1       3.683   3.515  18.216  0.00  0.00    +0.000 A 
ATOM      6  O   UNL     1       2.655   2.940  17.906  0.00  0.00    +0.000 OA
ATOM      7  C   UNL     1       4.704   3.858  17.267  0.00  0.00    +0.000 A 
ATOM      8  C   UNL     1       4.809   3.685  15.915  0.00  0.00    +0.000 A 
ATOM      9  C   UNL     1       6.066   4.241  15.563  0.00  0.00    +0.000 A 
ATOM     10  N   UNL     1       6.703   4.725  16.651  0.00  0.00    +0.000 NA
ATOM     11  N   UNL     1       5.833   4.492  17.671  0.00  0.00    +0.000 N 
ENDROOT
BRANCH   9  12
ATOM     12  C   UNL     1       6.603   4.329  14.208  0.00  0.00    +0.000 A 
ATOM     13  C   UNL     1       7.573   5.287  13.893  0.00  0.00    +0.000 A 
ATOM     14  C   UNL     1       8.015   5.445  12.580  0.00  0.00    +0.000 A 
ATOM     15  C   UNL     1       7.496   4.637  11.569  0.00  0.00    +0.000 A 
ATOM     16  C   UNL     1       6.539   3.671  11.870  0.00  0.00    +0.000 A 
ATOM     17  C   UNL     1       6.094   3.511  13.185  0.00  0.00    +0.000 A 
ENDBRANCH   9  12
BRANCH   4  18
ATOM     18  C   UNL     1       3.014   3.612  20.595  0.00  0.00    +0.000 C 
BRANCH  18  19
ATOM     19  C   UNL     1       1.883   4.638  20.722  0.00  0.00    +0.000 C 
ATOM     20  O   UNL     1       0.696   4.351  20.539  0.00  0.00    +0.000 OA
ATOM     21  N   UNL     1       2.258   5.957  20.913  0.00  0.00    +0.000 N 
ATOM     22  H   UNL     1       3.244   6.197  20.962  0.00  0.00    +0.000 HD
BRANCH  21  23
ATOM     23  C   UNL     1       1.198   6.946  20.982  0.00  0.00    +0.000 C 
BRANCH  23  24
ATOM     24  C   UNL     1       1.596   8.393  20.676  0.00  0.00    +0.000 C 
ATOM     25  C   UNL     1       1.675   8.611  19.160  0.00  0.00    +0.000 C 
BRANCH  24  26
ATOM     26  C   UNL     1       0.635   9.394  21.319  0.00  0.00    +0.000 A 
ATOM     27  C   UNL     1       0.115  10.442  20.543  0.00  0.00    +0.000 A 
ATOM     28  C   UNL     1      -0.797  11.358  21.081  0.00  0.00    +0.000 A 
ATOM     29  C   UNL     1      -1.195  11.251  22.409  0.00  0.00    +0.000 A 
ATOM     30  C   UNL     1      -0.678  10.232  23.202  0.00  0.00    +0.000 A 
ATOM     31  C   UNL     1       0.227   9.311  22.663  0.00  0.00    +0.000 A 
ENDBRANCH  24  26
ENDBRANCH  23  24
ENDBRANCH  21  23
ENDBRANCH  18  19
ENDBRANCH   4  18
TORSDOF 6
ENDMDL
MODEL 2
REMARK VINA RESULT:      -8.7      0.123      1.250
REMARK  Name = 
REMARK  8 active torsions:
REMARK  status: ('A' for Active; 'I' for Inactive)
REMARK    1  A    between atoms: C_1  and  C_2
REMARK    2  A    between atoms: N_4  and  C_5
REMARK    3  A    between atoms: C_5  and  C_6
REMARK    4  A    between atoms: N_8  and  C_9
REMARK    5  A    between atoms: C_9  and  C_10
REMARK    6  A    between atoms: C_10  and  C_11
REMARK    7  A    between atoms: C_10  and  C_12
REMARK    8  A    between atoms: C_22  and  C_23
REMARK                            x       y       z     vdW  Elec       q    Type
REMARK                         _______ _______ _______ _____ _____    ______ ____
ROOT
ATOM      1  C   UNL     1       7.311   5.458  19.261  0.00  0.00    +0.000 C 
ATOM      2  C   UNL     1       6.029   4.773  18.932  0.00  0.00    +0.000 A 
ATOM      3  N   UNL     1       5.163   4.485  19.872  0.00  0.00    +0.000 NA
ATOM      4  N   UNL     1       3.978   3.847  19.518  0.00  0.00    +0.000 N 
ATOM      5  C   UNL     1       3.625   3.502  18.197  0.00  0.00    +0.000 A 
ATOM      6  O   UNL     1       2.576   2.955  17.906  0.00  0.00    +0.000 OA
ATOM      7  C   UNL     1       4.623   3.847  17.225  0.00  0.00    +0.000 A 
ATOM      8  C   UNL     1       4.684   3.703  15.867  0.00  0.00    +0.000 A 
ATOM      9  C   UNL     1       5.941   4.242  15.488  0.00  0.00    +0.000 A 
ATOM     10  N   UNL     1       6.620   4.688  16.567  0.00  0.00    +0.000 NA
ATOM     11  N   UNL     1       5.777   4.449  17.608  0.00  0.00    +0.000 N 
ENDROOT
BRANCH   9  12
ATOM     12  C   UNL     1       6.438   4.351  14.120  0.00  0.00    +0.000 A 
ATOM     13  C   UNL     1       5.975   3.480  13.128  0.00  0.00    +0.000 A 
ATOM     14  C   UNL     1       6.520   3.511  11.845  0.00  0.00    +0.000 A 
ATOM     15  C   UNL     1       7.531   4.422  11.540  0.00  0.00    +0.000 A 
ATOM     16  C   UNL     1       7.994   5.302  12.514  0.00  0.00    +0.000 A 
ATOM     17  C   UNL     1       7.449   5.273  13.801  0.00  0.00    +0.000 A 
ENDBRANCH   9  12
BRANCH   4  18
ATOM     18  C   UNL     1       3.031   3.557  20.597  0.00  0.00    +0.000 C 
BRANCH  18  19
ATOM     19  C   UNL     1       1.900   4.580  20.754  0.00  0.00    +0.000 C 
ATOM     20  O   UNL     1       0.708   4.278  20.653  0.00  0.00    +0.000 OA
ATOM     21  N   UNL     1       2.275   5.908  20.874  0.00  0.00    +0.000 N 
ATOM     22  H   UNL     1       3.260   6.155  20.855  0.00  0.00    +0.000 HD
BRANCH  21  23
ATOM     23  C   UNL     1       1.212   6.891  20.970  0.00  0.00    +0.000 C 
BRANCH  23  24
ATOM     24  C   UNL     1       1.588   8.336  20.625  0.00  0.00    +0.000 C 
ATOM     25  C   UNL     1       1.639   8.520  19.104  0.00  0.00    +0.000 C 
BRANCH  24  26
ATOM     26  C   UNL     1       0.627   9.340  21.261  0.00  0.00    +0.000 A 
ATOM     27  C   UNL     1       0.280   9.196  22.614  0.00  0.00    +0.000 A 
ATOM     28  C   UNL     1      -0.566  10.115  23.247  0.00  0.00    +0.000 A 
ATOM     29  C   UNL     1      -1.093  11.187  22.534  0.00  0.00    +0.000 A 
ATOM     30  C   UNL     1      -0.780  11.338  21.188  0.00  0.00    +0.000 A 
ATOM     31  C   UNL     1       0.073  10.425  20.557  0.00  0.00    +0.000 A 
ENDBRANCH  24  26
ENDBRANCH  23  24
ENDBRANCH  21  23
ENDBRANCH  18  19
ENDBRANCH   4  18
TORSDOF 6
ENDMDL
MODEL 3
REMARK VINA RESULT:      -8.5      3.586      6.010
REMARK  Name = 
REMARK  8 active torsions:
REMARK  status: ('A' for Active; 'I' for Inactive)
REMARK    1  A    between atoms: C_1  and  C_2
REMARK    2  A    between atoms: N_4  and  C_5
REMARK    3  A    between atoms: C_5  and  C_6
REMARK    4  A    between atoms: N_8  and  C_9
REMARK    5  A    between atoms: C_9  and  C_10
REMARK    6  A    between atoms: C_10  and  C_11
REMARK    7  A    between atoms: C_10  and  C_12
REMARK    8  A    between atoms: C_22  and  C_23
REMARK                            x       y       z     vdW  Elec       q    Type
REMARK                         _______ _______ _______ _____ _____    ______ ____
ROOT
ATOM      1  C   UNL     1       8.612   5.231  20.259  0.00  0.00    +0.000 C 
ATOM      2  C   UNL     1       7.842   5.594  19.036  0.00  0.00    +0.000 A 
ATOM      3  N   UNL     1       7.097   4.707  18.425  0.00  0.00    +0.000 NA
ATOM      4  N   UNL     1       6.394   5.091  17.287  0.00  0.00    +0.000 N 
ATOM      5  C   UNL     1       6.407   6.395  16.748  0.00  0.00    +0.000 A 
ATOM      6  O   UNL     1       5.773   6.715  15.758  0.00  0.00    +0.000 OA
ATOM      7  C   UNL     1       7.245   7.308  17.470  0.00  0.00    +0.000 A 
ATOM      8  C   UNL     1       7.532   8.634  17.300  0.00  0.00    +0.000 A 
ATOM      9  C   UNL     1       8.435   8.959  18.346  0.00  0.00    +0.000 A 
ATOM     10  N   UNL     1       8.693   7.879  19.115  0.00  0.00    +0.000 NA
ATOM     11  N   UNL     1       7.934   6.894  18.562  0.00  0.00    +0.000 N 
ENDROOT
BRANCH   9  12
ATOM     12  C   UNL     1       8.991  10.284  18.604  0.00  0.00    +0.000 A 
ATOM     13  C   UNL     1       9.752  10.520  19.754  0.00  0.00    +0.000 A 
ATOM     14  C   UNL     1      10.199  11.805  20.059  0.00  0.00    +0.000 A 
ATOM     15  C   UNL     1       9.896  12.867  19.208  0.00  0.00    +0.000 A 
ATOM     16  C   UNL     1       9.150  12.645  18.053  0.00  0.00    +0.000 A 
ATOM     17  C   UNL     1       8.700  11.358  17.746  0.00  0.00    +0.000 A 
ENDBRANCH   9  12
BRANCH   4  18
ATOM     18  C   UNL     1       5.562   4.072  16.643  0.00  0.00    +0.000 C 
BRANCH  18  19
ATOM     19  C   UNL     1       4.556   3.382  17.571  0.00  0.00    +0.000 C 
ATOM     20  O   UNL     1       3.822   2.463  17.196  0.00  0.00    +0.000 OA
ATOM     21  N   UNL     1       4.394   3.931  18.832  0.00  0.00    +0.000 N 
ATOM     22  H   UNL     1       4.933   4.751  19.095  0.00  0.00    +0.000 HD
BRANCH  21  23
ATOM     23  C   UNL     1       3.406   3.320  19.701  0.00  0.00    +0.000 C 
BRANCH  23  24
ATOM     24  C   UNL     1       1.985   3.886  19.621  0.00  0.00    +0.000 C 
ATOM     25  C   UNL     1       1.185   3.485  20.865  0.00  0.00    +0.000 C 
BRANCH  24  26
ATOM     26  C   UNL     1       1.989   5.405  19.444  0.00  0.00    +0.000 A 
ATOM     27  C   UNL     1       1.735   6.227  20.554  0.00  0.00    +0.000 A 
ATOM     28  C   UNL     1       1.768   7.622  20.445  0.00  0.00    +0.000 A 
ATOM     29  C   UNL     1       2.039   8.222  19.220  0.00  0.00    +0.000 A 
ATOM     30  C   UNL     1       2.273   7.429  18.102  0.00  0.00    +0.000 A 
ATOM     31  C   UNL     1       2.251   6.033  18.212  0.00  0.00    +0.000 A 
ENDBRANCH  24  26
ENDBRANCH  23  24
ENDBRANCH  21  23
ENDBRANCH  18  19
ENDBRANCH   4  18
TORSDOF 6
ENDMDL
MODEL 4
REMARK VINA RESULT:      -8.5      1.513      8.650
REMARK  Name = 
REMARK  8 active torsions:
REMARK  status: ('A' for Active; 'I' for Inactive)
REMARK    1  A    between atoms: C_1  and  C_2
REMARK    2  A    between atoms: N_4  and  C_5
REMARK    3  A    between atoms: C_5  and  C_6
REMARK    4  A    between atoms: N_8  and  C_9
REMARK    5  A    between atoms: C_9  and  C_10
REMARK    6  A    between atoms: C_10  and  C_11
REMARK    7  A    between atoms: C_10  and  C_12
REMARK    8  A    between atoms: C_22  and  C_23
REMARK                            x       y       z     vdW  Elec       q    Type
REMARK                         _______ _______ _______ _____ _____    ______ ____
ROOT
ATOM      1  C   UNL     1       3.350   7.773  17.509  0.00  0.00    +0.000 C 
ATOM      2  C   UNL     1       2.931   6.803  18.559  0.00  0.00    +0.000 A 
ATOM      3  N   UNL     1       3.329   5.555  18.516  0.00  0.00    +0.000 NA
ATOM      4  N   UNL     1       2.914   4.684  19.519  0.00  0.00    +0.000 N 
ATOM      5  C   UNL     1       2.100   5.058  20.609  0.00  0.00    +0.000 A 
ATOM      6  O   UNL     1       1.758   4.284  21.484  0.00  0.00    +0.000 OA
ATOM      7  C   UNL     1       1.704   6.437  20.585  0.00  0.00    +0.000 A 
ATOM      8  C   UNL     1       0.942   7.197  21.429  0.00  0.00    +0.000 A 
ATOM      9  C   UNL     1       0.920   8.492  20.850  0.00  0.00    +0.000 A 
ATOM     10  N   UNL     1       1.628   8.520  19.700  0.00  0.00    +0.000 NA
ATOM     11  N   UNL     1       2.108   7.253  19.580  0.00  0.00    +0.000 N 
ENDROOT
BRANCH   9  12
ATOM     12  C   UNL     1       0.262   9.664  21.421  0.00  0.00    +0.000 A 
ATOM     13  C   UNL     1       0.477  10.933  20.872  0.00  0.00    +0.000 A 
ATOM     14  C   UNL     1      -0.065  12.068  21.473  0.00  0.00    +0.000 A 
ATOM     15  C   UNL     1      -0.836  11.943  22.628  0.00  0.00    +0.000 A 
ATOM     16  C   UNL     1      -1.067  10.685  23.179  0.00  0.00    +0.000 A 
ATOM     17  C   UNL     1      -0.525   9.546  22.578  0.00  0.00    +0.000 A 
ENDBRANCH   9  12
BRANCH   4  18
ATOM     18  C   UNL     1       3.395   3.303  19.441  0.00  0.00    +0.000 C 
BRANCH  18  19
ATOM     19  C   UNL     1       3.954   2.892  18.074  0.00  0.00    +0.000 C 
ATOM     20  O   UNL     1       3.677   1.816  17.535  0.00  0.00    +0.000 OA
ATOM     21  N   UNL     1       4.911   3.724  17.518  0.00  0.00    +0.000 N 
ATOM     22  H   UNL     1       5.205   4.556  18.019  0.00  0.00    +0.000 HD
BRANCH  21  23
ATOM     23  C   UNL     1       5.486   3.317  16.249  0.00  0.00    +0.000 C 
BRANCH  23  24
ATOM     24  C   UNL     1       6.673   4.143  15.743  0.00  0.00    +0.000 C 
ATOM     25  C   UNL     1       6.318   4.822  14.415  0.00  0.00    +0.000 C 
BRANCH  24  26
ATOM     26  C   UNL     1       7.127   5.175  16.776  0.00  0.00    +0.000 A 
ATOM     27  C   UNL     1       7.652   4.735  18.002  0.00  0.00    +0.000 A 
ATOM     28  C   UNL     1       8.116   5.644  18.960  0.00  0.00    +0.000 A 
ATOM     29  C   UNL     1       8.050   7.012  18.716  0.00  0.00    +0.000 A 
ATOM     30  C   UNL     1       7.516   7.472  17.517  0.00  0.00    +0.000 A 
ATOM     31  C   UNL     1       7.061   6.563  16.554  0.00  0.00    +0.000 A 
ENDBRANCH  24  26
ENDBRANCH  23  24
ENDBRANCH  21  23
ENDBRANCH  18  19
ENDBRANCH   4  18
TORSDOF 6
ENDMDL
MODEL 5
REMARK VINA RESULT:      -8.3      1.124      1.879
REMARK  Name = 
REMARK  8 active torsions:
REMARK  status: ('A' for Active; 'I' for Inactive)
REMARK    1  A    between atoms: C_1  and  C_2
REMARK    2  A    between atoms: N_4  and  C_5
REMARK    3  A    between atoms: C_5  and  C_6
REMARK    4  A    between atoms: N_8  and  C_9
REMARK    5  A    between atoms: C_9  and  C_10
REMARK    6  A    between atoms: C_10  and  C_11
REMARK    7  A    between atoms: C_10  and  C_12
REMARK    8  A    between atoms: C_22  and  C_23
REMARK                            x       y       z     vdW  Elec       q    Type
REMARK                         _______ _______ _______ _____ _____    ______ ____
ROOT
ATOM      1  C   UNL     1       7.491   5.865  19.107  0.00  0.00    +0.000 C 
ATOM      2  C   UNL     1       6.142   5.291  18.840  0.00  0.00    +0.000 A 
ATOM      3  N   UNL     1       5.265   5.163  19.804  0.00  0.00    +0.000 NA
ATOM      4  N   UNL     1       4.016   4.624  19.507  0.00  0.00    +0.000 N 
ATOM      5  C   UNL     1       3.612   4.218  18.219  0.00  0.00    +0.000 A 
ATOM      6  O   UNL     1       2.510   3.760  17.977  0.00  0.00    +0.000 OA
ATOM      7  C   UNL     1       4.626   4.387  17.217  0.00  0.00    +0.000 A 
ATOM      8  C   UNL     1       4.653   4.135  15.874  0.00  0.00    +0.000 A 
ATOM      9  C   UNL     1       5.952   4.515  15.447  0.00  0.00    +0.000 A 
ATOM     10  N   UNL     1       6.688   4.969  16.484  0.00  0.00    +0.000 NA
ATOM     11  N   UNL     1       5.840   4.895  17.545  0.00  0.00    +0.000 N 
ENDROOT
BRANCH   9  12
ATOM     12  C   UNL     1       6.439   4.470  14.071  0.00  0.00    +0.000 A 
ATOM     13  C   UNL     1       5.932   3.525  13.173  0.00  0.00    +0.000 A 
ATOM     14  C   UNL     1       6.464   3.409  11.889  0.00  0.00    +0.000 A 
ATOM     15  C   UNL     1       7.506   4.245  11.489  0.00  0.00    +0.000 A 
ATOM     16  C   UNL     1       8.012   5.198  12.369  0.00  0.00    +0.000 A 
ATOM     17  C   UNL     1       7.480   5.316  13.656  0.00  0.00    +0.000 A 
ENDBRANCH   9  12
BRANCH   4  18
ATOM     18  C   UNL     1       3.061   4.513  20.612  0.00  0.00    +0.000 C 
BRANCH  18  19
ATOM     19  C   UNL     1       1.973   5.594  20.633  0.00  0.00    +0.000 C 
ATOM     20  O   UNL     1       0.771   5.330  20.723  0.00  0.00    +0.000 OA
ATOM     21  N   UNL     1       2.386   6.895  20.400  0.00  0.00    +0.000 N 
ATOM     22  H   UNL     1       3.367   7.087  20.227  0.00  0.00    +0.000 HD
BRANCH  21  23
ATOM     23  C   UNL     1       1.359   7.920  20.365  0.00  0.00    +0.000 C 
BRANCH  23  24
ATOM     24  C   UNL     1       1.586   9.078  19.389  0.00  0.00    +0.000 C 
ATOM     25  C   UNL     1       2.075   8.544  18.038  0.00  0.00    +0.000 C 
BRANCH  24  26
ATOM     26  C   UNL     1       0.326   9.928  19.213  0.00  0.00    +0.000 A 
ATOM     27  C   UNL     1      -0.065  10.798  20.243  0.00  0.00    +0.000 A 
ATOM     28  C   UNL     1      -1.188  11.622  20.107  0.00  0.00    +0.000 A 
ATOM     29  C   UNL     1      -1.951  11.580  18.945  0.00  0.00    +0.000 A 
ATOM     30  C   UNL     1      -1.595  10.711  17.920  0.00  0.00    +0.000 A 
ATOM     31  C   UNL     1      -0.466   9.893  18.051  0.00  0.00    +0.000 A 
ENDBRANCH  24  26
ENDBRANCH  23  24
ENDBRANCH  21  23
ENDBRANCH  18  19
ENDBRANCH   4  18
TORSDOF 6
ENDMDL
MODEL 6
REMARK VINA RESULT:      -8.3      1.602      8.918
REMARK  Name = 
REMARK  8 active torsions:
REMARK  status: ('A' for Active; 'I' for Inactive)
REMARK    1  A    between atoms: C_1  and  C_2
REMARK    2  A    between atoms: N_4  and  C_5
REMARK    3  A    between atoms: C_5  and  C_6
REMARK    4  A    between atoms: N_8  and  C_9
REMARK    5  A    between atoms: C_9  and  C_10
REMARK    6  A    between atoms: C_10  and  C_11
REMARK    7  A    between atoms: C_10  and  C_12
REMARK    8  A    between atoms: C_22  and  C_23
REMARK                            x       y       z     vdW  Elec       q    Type
REMARK                         _______ _______ _______ _____ _____    ______ ____
ROOT
ATOM      1  C   UNL     1       2.935   8.465  17.405  0.00  0.00    +0.000 C 
ATOM      2  C   UNL     1       2.559   7.450  18.429  0.00  0.00    +0.000 A 
ATOM      3  N   UNL     1       2.913   6.197  18.292  0.00  0.00    +0.000 NA
ATOM      4  N   UNL     1       2.541   5.284  19.275  0.00  0.00    +0.000 N 
ATOM      5  C   UNL     1       1.817   5.620  20.437  0.00  0.00    +0.000 A 
ATOM      6  O   UNL     1       1.512   4.808  21.293  0.00  0.00    +0.000 OA
ATOM      7  C   UNL     1       1.464   7.008  20.515  0.00  0.00    +0.000 A 
ATOM      8  C   UNL     1       0.787   7.741  21.450  0.00  0.00    +0.000 A 
ATOM      9  C   UNL     1       0.765   9.067  20.943  0.00  0.00    +0.000 A 
ATOM     10  N   UNL     1       1.392   9.138  19.748  0.00  0.00    +0.000 NA
ATOM     11  N   UNL     1       1.823   7.866  19.529  0.00  0.00    +0.000 N 
ENDROOT
BRANCH   9  12
ATOM     12  C   UNL     1       0.186  10.223  21.620  0.00  0.00    +0.000 A 
ATOM     13  C   UNL     1      -0.707  10.047  22.682  0.00  0.00    +0.000 A 
ATOM     14  C   UNL     1      -1.341  11.143  23.266  0.00  0.00    +0.000 A 
ATOM     15  C   UNL     1      -1.081  12.429  22.796  0.00  0.00    +0.000 A 
ATOM     16  C   UNL     1      -0.186  12.621  21.747  0.00  0.00    +0.000 A 
ATOM     17  C   UNL     1       0.451  11.524  21.160  0.00  0.00    +0.000 A 
ENDBRANCH   9  12
BRANCH   4  18
ATOM     18  C   UNL     1       2.972   3.896  19.090  0.00  0.00    +0.000 C 
BRANCH  18  19
ATOM     19  C   UNL     1       3.492   3.564  17.686  0.00  0.00    +0.000 C 
ATOM     20  O   UNL     1       2.777   3.074  16.808  0.00  0.00    +0.000 OA
ATOM     21  N   UNL     1       4.854   3.705  17.479  0.00  0.00    +0.000 N 
ATOM     22  H   UNL     1       5.449   4.014  18.241  0.00  0.00    +0.000 HD
BRANCH  21  23
ATOM     23  C   UNL     1       5.366   3.343  16.170  0.00  0.00    +0.000 C 
BRANCH  23  24
ATOM     24  C   UNL     1       6.622   4.084  15.701  0.00  0.00    +0.000 C 
ATOM     25  C   UNL     1       6.370   4.744  14.341  0.00  0.00    +0.000 C 
BRANCH  24  26
ATOM     26  C   UNL     1       7.088   5.117  16.728  0.00  0.00    +0.000 A 
ATOM     27  C   UNL     1       7.623   4.678  17.949  0.00  0.00    +0.000 A 
ATOM     28  C   UNL     1       8.098   5.588  18.901  0.00  0.00    +0.000 A 
ATOM     29  C   UNL     1       8.032   6.956  18.656  0.00  0.00    +0.000 A 
ATOM     30  C   UNL     1       7.488   7.415  17.461  0.00  0.00    +0.000 A 
ATOM     31  C   UNL     1       7.021   6.505  16.505  0.00  0.00    +0.000 A 
ENDBRANCH  24  26
ENDBRANCH  23  24
ENDBRANCH  21  23
ENDBRANCH  18  19
ENDBRANCH   4  18
TORSDOF 6
ENDMDL
MODEL 7
REMARK VINA RESULT:      -8.2      1.542      9.567
REMARK  Name = 
REMARK  8 active torsions:
REMARK  status: ('A' for Active; 'I' for Inactive)
REMARK    1  A    between atoms: C_1  and  C_2
REMARK    2  A    between atoms: N_4  and  C_5
REMARK    3  A    between atoms: C_5  and  C_6
REMARK    4  A    between atoms: N_8  and  C_9
REMARK    5  A    between atoms: C_9  and  C_10
REMARK    6  A    between atoms: C_10  and  C_11
REMARK    7  A    between atoms: C_10  and  C_12
REMARK    8  A    between atoms: C_22  and  C_23
REMARK                            x       y       z     vdW  Elec       q    Type
REMARK                         _______ _______ _______ _____ _____    ______ ____
ROOT
ATOM      1  C   UNL     1       2.919   8.244  17.321  0.00  0.00    +0.000 C 
ATOM      2  C   UNL     1       2.627   7.315  18.448  0.00  0.00    +0.000 A 
ATOM      3  N   UNL     1       3.063   6.079  18.428  0.00  0.00    +0.000 NA
ATOM      4  N   UNL     1       2.767   5.247  19.504  0.00  0.00    +0.000 N 
ATOM      5  C   UNL     1       2.041   5.650  20.644  0.00  0.00    +0.000 A 
ATOM      6  O   UNL     1       1.804   4.910  21.582  0.00  0.00    +0.000 OA
ATOM      7  C   UNL     1       1.597   7.014  20.592  0.00  0.00    +0.000 A 
ATOM      8  C   UNL     1       0.888   7.791  21.464  0.00  0.00    +0.000 A 
ATOM      9  C   UNL     1       0.771   9.055  20.829  0.00  0.00    +0.000 A 
ATOM     10  N   UNL     1       1.373   9.047  19.620  0.00  0.00    +0.000 NA
ATOM     11  N   UNL     1       1.884   7.790  19.518  0.00  0.00    +0.000 N 
ENDROOT
BRANCH   9  12
ATOM     12  C   UNL     1       0.127  10.234  21.402  0.00  0.00    +0.000 A 
ATOM     13  C   UNL     1       0.385  11.505  20.878  0.00  0.00    +0.000 A 
ATOM     14  C   UNL     1      -0.145  12.644  21.483  0.00  0.00    +0.000 A 
ATOM     15  C   UNL     1      -0.948  12.520  22.617  0.00  0.00    +0.000 A 
ATOM     16  C   UNL     1      -1.223  11.261  23.142  0.00  0.00    +0.000 A 
ATOM     17  C   UNL     1      -0.693  10.118  22.537  0.00  0.00    +0.000 A 
ENDBRANCH   9  12
BRANCH   4  18
ATOM     18  C   UNL     1       3.286   3.879  19.448  0.00  0.00    +0.000 C 
BRANCH  18  19
ATOM     19  C   UNL     1       4.568   3.709  18.623  0.00  0.00    +0.000 C 
ATOM     20  O   UNL     1       5.686   3.615  19.139  0.00  0.00    +0.000 OA
ATOM     21  N   UNL     1       4.440   3.809  17.248  0.00  0.00    +0.000 N 
ATOM     22  H   UNL     1       3.528   3.987  16.840  0.00  0.00    +0.000 HD
BRANCH  21  23
ATOM     23  C   UNL     1       5.654   3.703  16.460  0.00  0.00    +0.000 C 
BRANCH  23  24
ATOM     24  C   UNL     1       6.078   4.958  15.691  0.00  0.00    +0.000 C 
ATOM     25  C   UNL     1       7.223   5.666  16.424  0.00  0.00    +0.000 C 
BRANCH  24  26
ATOM     26  C   UNL     1       6.474   4.634  14.250  0.00  0.00    +0.000 A 
ATOM     27  C   UNL     1       5.753   3.659  13.542  0.00  0.00    +0.000 A 
ATOM     28  C   UNL     1       6.056   3.359  12.209  0.00  0.00    +0.000 A 
ATOM     29  C   UNL     1       7.097   4.018  11.563  0.00  0.00    +0.000 A 
ATOM     30  C   UNL     1       7.838   4.973  12.250  0.00  0.00    +0.000 A 
ATOM     31  C   UNL     1       7.529   5.281  13.580  0.00  0.00    +0.000 A 
ENDBRANCH  24  26
ENDBRANCH  23  24
ENDBRANCH  21  23
ENDBRANCH  18  19
ENDBRANCH   4  18
TORSDOF 6
ENDMDL
MODEL 8
REMARK VINA RESULT:      -8.0      3.866     11.093
REMARK  Name = 
REMARK  8 active torsions:
REMARK  status: ('A' for Active; 'I' for Inactive)
REMARK    1  A    between atoms: C_1  and  C_2
REMARK    2  A    between atoms: N_4  and  C_5
REMARK    3  A    between atoms: C_5  and  C_6
REMARK    4  A    between atoms: N_8  and  C_9
REMARK    5  A    between atoms: C_9  and  C_10
REMARK    6  A    between atoms: C_10  and  C_11
REMARK    7  A    between atoms: C_10  and  C_12
REMARK    8  A    between atoms: C_22  and  C_23
REMARK                            x       y       z     vdW  Elec       q    Type
REMARK                         _______ _______ _______ _____ _____    ______ ____
ROOT
ATOM      1  C   UNL     1       0.423   9.286  22.949  0.00  0.00    +0.000 C 
ATOM      2  C   UNL     1       0.055  10.026  21.709  0.00  0.00    +0.000 A 
ATOM      3  N   UNL     1       0.309   9.522  20.527  0.00  0.00    +0.000 NA
ATOM      4  N   UNL     1      -0.054  10.248  19.396  0.00  0.00    +0.000 N 
ATOM      5  C   UNL     1      -0.706  11.498  19.431  0.00  0.00    +0.000 A 
ATOM      6  O   UNL     1      -1.027  12.112  18.429  0.00  0.00    +0.000 OA
ATOM      7  C   UNL     1      -0.947  11.985  20.758  0.00  0.00    +0.000 A 
ATOM      8  C   UNL     1      -1.543  13.120  21.235  0.00  0.00    +0.000 A 
ATOM      9  C   UNL     1      -1.468  13.017  22.649  0.00  0.00    +0.000 A 
ATOM     10  N   UNL     1      -0.846  11.876  23.018  0.00  0.00    +0.000 NA
ATOM     11  N   UNL     1      -0.561  11.262  21.838  0.00  0.00    +0.000 N 
ENDROOT
BRANCH   9  12
ATOM     12  C   UNL     1      -2.017  13.980  23.599  0.00  0.00    +0.000 A 
ATOM     13  C   UNL     1      -3.401  14.115  23.749  0.00  0.00    +0.000 A 
ATOM     14  C   UNL     1      -3.933  15.102  24.577  0.00  0.00    +0.000 A 
ATOM     15  C   UNL     1      -3.082  15.961  25.272  0.00  0.00    +0.000 A 
ATOM     16  C   UNL     1      -1.702  15.831  25.141  0.00  0.00    +0.000 A 
ATOM     17  C   UNL     1      -1.166  14.842  24.312  0.00  0.00    +0.000 A 
ENDBRANCH   9  12
BRANCH   4  18
ATOM     18  C   UNL     1       0.234   9.640  18.095  0.00  0.00    +0.000 C 
BRANCH  18  19
ATOM     19  C   UNL     1       1.677   9.155  17.916  0.00  0.00    +0.000 C 
ATOM     20  O   UNL     1       2.570   9.869  17.450  0.00  0.00    +0.000 OA
ATOM     21  N   UNL     1       1.918   7.814  18.169  0.00  0.00    +0.000 N 
ATOM     22  H   UNL     1       1.153   7.212  18.456  0.00  0.00    +0.000 HD
BRANCH  21  23
ATOM     23  C   UNL     1       3.269   7.331  17.952  0.00  0.00    +0.000 C 
BRANCH  23  24
ATOM     24  C   UNL     1       3.416   5.839  17.636  0.00  0.00    +0.000 C 
ATOM     25  C   UNL     1       4.895   5.436  17.662  0.00  0.00    +0.000 C 
BRANCH  24  26
ATOM     26  C   UNL     1       2.600   4.973  18.596  0.00  0.00    +0.000 A 
ATOM     27  C   UNL     1       2.761   5.143  19.981  0.00  0.00    +0.000 A 
ATOM     28  C   UNL     1       2.006   4.398  20.895  0.00  0.00    +0.000 A 
ATOM     29  C   UNL     1       1.087   3.458  20.441  0.00  0.00    +0.000 A 
ATOM     30  C   UNL     1       0.925   3.258  19.075  0.00  0.00    +0.000 A 
ATOM     31  C   UNL     1       1.673   4.009  18.160  0.00  0.00    +0.000 A 
ENDBRANCH  24  26
ENDBRANCH  23  24
ENDBRANCH  21  23
ENDBRANCH  18  19
ENDBRANCH   4  18
TORSDOF 6
ENDMDL
MODEL 9
REMARK VINA RESULT:      -7.9      3.716     10.770
REMARK  Name = 
REMARK  8 active torsions:
REMARK  status: ('A' for Active; 'I' for Inactive)
REMARK    1  A    between atoms: C_1  and  C_2
REMARK    2  A    between atoms: N_4  and  C_5
REMARK    3  A    between atoms: C_5  and  C_6
REMARK    4  A    between atoms: N_8  and  C_9
REMARK    5  A    between atoms: C_9  and  C_10
REMARK    6  A    between atoms: C_10  and  C_11
REMARK    7  A    between atoms: C_10  and  C_12
REMARK    8  A    between atoms: C_22  and  C_23
REMARK                            x       y       z     vdW  Elec       q    Type
REMARK                         _______ _______ _______ _____ _____    ______ ____
ROOT
ATOM      1  C   UNL     1       1.171   9.246  22.735  0.00  0.00    +0.000 C 
ATOM      2  C   UNL     1       0.614   9.856  21.496  0.00  0.00    +0.000 A 
ATOM      3  N   UNL     1       0.861   9.331  20.321  0.00  0.00    +0.000 NA
ATOM      4  N   UNL     1       0.317   9.934  19.190  0.00  0.00    +0.000 N 
ATOM      5  C   UNL     1      -0.511  11.075  19.219  0.00  0.00    +0.000 A 
ATOM      6  O   UNL     1      -0.988  11.581  18.219  0.00  0.00    +0.000 OA
ATOM      7  C   UNL     1      -0.733  11.593  20.539  0.00  0.00    +0.000 A 
ATOM      8  C   UNL     1      -1.459  12.651  21.009  0.00  0.00    +0.000 A 
ATOM      9  C   UNL     1      -1.274  12.637  22.416  0.00  0.00    +0.000 A 
ATOM     10  N   UNL     1      -0.465  11.621  22.787  0.00  0.00    +0.000 NA
ATOM     11  N   UNL     1      -0.170  10.993  21.617  0.00  0.00    +0.000 N 
ENDROOT
BRANCH   9  12
ATOM     12  C   UNL     1      -1.897  13.559  23.362  0.00  0.00    +0.000 A 
ATOM     13  C   UNL     1      -1.136  14.556  23.983  0.00  0.00    +0.000 A 
ATOM     14  C   UNL     1      -1.700  15.373  24.962  0.00  0.00    +0.000 A 
ATOM     15  C   UNL     1      -3.035  15.205  25.324  0.00  0.00    +0.000 A 
ATOM     16  C   UNL     1      -3.808  14.225  24.707  0.00  0.00    +0.000 A 
ATOM     17  C   UNL     1      -3.245  13.405  23.725  0.00  0.00    +0.000 A 
ENDBRANCH   9  12
BRANCH   4  18
ATOM     18  C   UNL     1       0.605   9.307  17.899  0.00  0.00    +0.000 C 
BRANCH  18  19
ATOM     19  C   UNL     1       2.010   8.705  17.774  0.00  0.00    +0.000 C 
ATOM     20  O   UNL     1       2.976   9.347  17.351  0.00  0.00    +0.000 OA
ATOM     21  N   UNL     1       2.130   7.348  18.022  0.00  0.00    +0.000 N 
ATOM     22  H   UNL     1       1.306   6.809  18.271  0.00  0.00    +0.000 HD
BRANCH  21  23
ATOM     23  C   UNL     1       3.444   6.757  17.855  0.00  0.00    +0.000 C 
BRANCH  23  24
ATOM     24  C   UNL     1       3.492   5.233  17.702  0.00  0.00    +0.000 C 
ATOM     25  C   UNL     1       4.943   4.741  17.755  0.00  0.00    +0.000 C 
BRANCH  24  26
ATOM     26  C   UNL     1       2.641   4.530  18.761  0.00  0.00    +0.000 A 
ATOM     27  C   UNL     1       2.953   4.703  20.119  0.00  0.00    +0.000 A 
ATOM     28  C   UNL     1       2.178   4.110  21.122  0.00  0.00    +0.000 A 
ATOM     29  C   UNL     1       1.084   3.319  20.785  0.00  0.00    +0.000 A 
ATOM     30  C   UNL     1       0.768   3.117  19.446  0.00  0.00    +0.000 A 
ATOM     31  C   UNL     1       1.537   3.718  18.442  0.00  0.00    +0.000 A 
ENDBRANCH  24  26
ENDBRANCH  23  24
ENDBRANCH  21  23
ENDBRANCH  18  19
ENDBRANCH   4  18
TORSDOF 6
ENDMDL
