MODEL 1
REMARK VINA RESULT:      -6.8      0.000      0.000
REMARK  Name = 
REMARK  8 active torsions:
REMARK  status: ('A' for Active; 'I' for Inactive)
REMARK    1  A    between atoms: C_1  and  O_2
REMARK    2  A    between atoms: O_2  and  C_3
REMARK    3  A    between atoms: C_6  and  C_7
REMARK    4  A    between atoms: C_7  and  C_9
REMARK    5  A    between atoms: C_9  and  C_10
REMARK    6  A    between atoms: C_10  and  N_11
REMARK    7  A    between atoms: N_11  and  C_12
REMARK    8  A    between atoms: N_11  and  C_13
REMARK                            x       y       z     vdW  Elec       q    Type
REMARK                         _______ _______ _______ _____ _____    ______ ____
ROOT
ATOM      1  C   UNL     1       6.889   5.624  18.085  0.00  0.00    +0.000 A 
ATOM      2  C   UNL     1       6.117   5.350  19.212  0.00  0.00    +0.000 A 
ATOM      3  C   UNL     1       5.023   4.496  19.118  0.00  0.00    +0.000 A 
ATOM      4  C   UNL     1       4.656   3.926  17.889  0.00  0.00    +0.000 A 
ATOM      5  C   UNL     1       5.408   4.215  16.712  0.00  0.00    +0.000 A 
ATOM      6  C   UNL     1       5.095   3.716  15.422  0.00  0.00    +0.000 A 
ATOM      7  C   UNL     1       5.866   4.014  14.297  0.00  0.00    +0.000 A 
ATOM      8  C   UNL     1       6.977   4.827  14.423  0.00  0.00    +0.000 A 
ATOM      9  C   UNL     1       7.305   5.353  15.671  0.00  0.00    +0.000 A 
ATOM     10  C   UNL     1       6.541   5.072  16.825  0.00  0.00    +0.000 A 
ENDROOT
BRANCH   1  12
ATOM     11  C   UNL     1       7.720   7.844  17.884  0.00  0.00    +0.000 C 
ATOM     12  O   UNL     1       7.978   6.464  18.122  0.00  0.00    +0.000 OA
ENDBRANCH   1  12
BRANCH   4  13
ATOM     13  C   UNL     1       3.474   2.997  17.882  0.00  0.00    +0.000 C 
ATOM     14  O   UNL     1       3.635   1.786  18.024  0.00  0.00    +0.000 OA
BRANCH  13  15
ATOM     15  C   UNL     1       2.070   3.575  17.794  0.00  0.00    +0.000 C 
BRANCH  15  16
ATOM     16  C   UNL     1       1.229   3.237  19.027  0.00  0.00    +0.000 C 
BRANCH  16  17
ATOM     17  N   UNL     1       1.847   3.633  20.306  0.00  0.00    +0.000 NA
ATOM     18  C   UNL     1       1.602   5.036  20.644  0.00  0.00    +0.000 C 
ATOM     19  C   UNL     1       1.334   2.774  21.382  0.00  0.00    +0.000 C 
ENDBRANCH  16  17
ENDBRANCH  15  16
ENDBRANCH  13  15
ENDBRANCH   4  13
TORSDOF 5
ENDMDL
MODEL 2
REMARK VINA RESULT:      -6.7      3.779      5.124
REMARK  Name = 
REMARK  8 active torsions:
REMARK  status: ('A' for Active; 'I' for Inactive)
REMARK    1  A    between atoms: C_1  and  O_2
REMARK    2  A    between atoms: O_2  and  C_3
REMARK    3  A    between atoms: C_6  and  C_7
REMARK    4  A    between atoms: C_7  and  C_9
REMARK    5  A    between atoms: C_9  and  C_10
REMARK    6  A    between atoms: C_10  and  N_11
REMARK    7  A    between atoms: N_11  and  C_12
REMARK    8  A    between atoms: N_11  and  C_13
REMARK                            x       y       z     vdW  Elec       q    Type
REMARK                         _______ _______ _______ _____ _____    ______ ____
ROOT
ATOM      1  C   UNL     1       5.070   4.817  16.748  0.00  0.00    +0.000 A 
ATOM      2  C   UNL     1       5.334   6.185  16.773  0.00  0.00    +0.000 A 
ATOM      3  C   UNL     1       4.436   7.058  17.377  0.00  0.00    +0.000 A 
ATOM      4  C   UNL     1       3.238   6.588  17.936  0.00  0.00    +0.000 A 
ATOM      5  C   UNL     1       2.924   5.197  17.895  0.00  0.00    +0.000 A 
ATOM      6  C   UNL     1       1.725   4.633  18.401  0.00  0.00    +0.000 A 
ATOM      7  C   UNL     1       1.465   3.263  18.351  0.00  0.00    +0.000 A 
ATOM      8  C   UNL     1       2.393   2.407  17.789  0.00  0.00    +0.000 A 
ATOM      9  C   UNL     1       3.575   2.927  17.263  0.00  0.00    +0.000 A 
ATOM     10  C   UNL     1       3.863   4.309  17.296  0.00  0.00    +0.000 A 
ENDROOT
BRANCH   1  12
ATOM     11  C   UNL     1       6.552   4.328  14.953  0.00  0.00    +0.000 C 
ATOM     12  O   UNL     1       5.923   3.911  16.161  0.00  0.00    +0.000 OA
ENDBRANCH   1  12
BRANCH   4  13
ATOM     13  C   UNL     1       2.334   7.599  18.589  0.00  0.00    +0.000 C 
ATOM     14  O   UNL     1       2.236   7.644  19.813  0.00  0.00    +0.000 OA
BRANCH  13  15
ATOM     15  C   UNL     1       1.617   8.626  17.726  0.00  0.00    +0.000 C 
BRANCH  15  16
ATOM     16  C   UNL     1       1.937  10.060  18.153  0.00  0.00    +0.000 C 
BRANCH  16  17
ATOM     17  N   UNL     1       0.779  10.805  18.681  0.00  0.00    +0.000 NA
ATOM     18  C   UNL     1      -0.502  10.194  18.318  0.00  0.00    +0.000 C 
ATOM     19  C   UNL     1       0.880  10.894  20.144  0.00  0.00    +0.000 C 
ENDBRANCH  16  17
ENDBRANCH  15  16
ENDBRANCH  13  15
ENDBRANCH   4  13
TORSDOF 5
ENDMDL
MODEL 3
REMARK VINA RESULT:      -6.6      1.140      2.985
REMARK  Name = 
REMARK  8 active torsions:
REMARK  status: ('A' for Active; 'I' for Inactive)
REMARK    1  A    between atoms: C_1  and  O_2
REMARK    2  A    between atoms: O_2  and  C_3
REMARK    3  A    between atoms: C_6  and  C_7
REMARK    4  A    between atoms: C_7  and  C_9
REMARK    5  A    between atoms: C_9  and  C_10
REMARK    6  A    between atoms: C_10  and  N_11
REMARK    7  A    between atoms: N_11  and  C_12
REMARK    8  A    between atoms: N_11  and  C_13
REMARK                            x       y       z     vdW  Elec       q    Type
REMARK                         _______ _______ _______ _____ _____    ______ ____
ROOT
ATOM      1  C   UNL     1       6.692   5.003  15.305  0.00  0.00    +0.000 A 
ATOM      2  C   UNL     1       5.709   4.233  14.688  0.00  0.00    +0.000 A 
ATOM      3  C   UNL     1       4.679   3.681  15.441  0.00  0.00    +0.000 A 
ATOM      4  C   UNL     1       4.628   3.857  16.833  0.00  0.00    +0.000 A 
ATOM      5  C   UNL     1       5.640   4.611  17.497  0.00  0.00    +0.000 A 
ATOM      6  C   UNL     1       5.695   4.814  18.900  0.00  0.00    +0.000 A 
ATOM      7  C   UNL     1       6.697   5.571  19.508  0.00  0.00    +0.000 A 
ATOM      8  C   UNL     1       7.685   6.150  18.733  0.00  0.00    +0.000 A 
ATOM      9  C   UNL     1       7.677   5.957  17.353  0.00  0.00    +0.000 A 
ATOM     10  C   UNL     1       6.677   5.192  16.711  0.00  0.00    +0.000 A 
ENDROOT
BRANCH   1  12
ATOM     11  C   UNL     1       7.804   5.259  13.218  0.00  0.00    +0.000 C 
ATOM     12  O   UNL     1       7.734   5.568  14.607  0.00  0.00    +0.000 OA
ENDBRANCH   1  12
BRANCH   4  13
ATOM     13  C   UNL     1       3.467   3.244  17.567  0.00  0.00    +0.000 C 
ATOM     14  O   UNL     1       3.521   2.076  17.948  0.00  0.00    +0.000 OA
BRANCH  13  15
ATOM     15  C   UNL     1       2.266   4.108  17.919  0.00  0.00    +0.000 C 
BRANCH  15  16
ATOM     16  C   UNL     1       1.211   3.333  18.710  0.00  0.00    +0.000 C 
BRANCH  16  17
ATOM     17  N   UNL     1       1.028   3.804  20.095  0.00  0.00    +0.000 NA
ATOM     18  C   UNL     1       1.413   2.802  21.091  0.00  0.00    +0.000 C 
ATOM     19  C   UNL     1       1.816   5.027  20.303  0.00  0.00    +0.000 C 
ENDBRANCH  16  17
ENDBRANCH  15  16
ENDBRANCH  13  15
ENDBRANCH   4  13
TORSDOF 5
ENDMDL
MODEL 4
REMARK VINA RESULT:      -6.6      2.532      5.653
REMARK  Name = 
REMARK  8 active torsions:
REMARK  status: ('A' for Active; 'I' for Inactive)
REMARK    1  A    between atoms: C_1  and  O_2
REMARK    2  A    between atoms: O_2  and  C_3
REMARK    3  A    between atoms: C_6  and  C_7
REMARK    4  A    between atoms: C_7  and  C_9
REMARK    5  A    between atoms: C_9  and  C_10
REMARK    6  A    between atoms: C_10  and  N_11
REMARK    7  A    between atoms: N_11  and  C_12
REMARK    8  A    between atoms: N_11  and  C_13
REMARK                            x       y       z     vdW  Elec       q    Type
REMARK                         _______ _______ _______ _____ _____    ______ ____
ROOT
ATOM      1  C   UNL     1       2.339   3.756  19.368  0.00  0.00    +0.000 A 
ATOM      2  C   UNL     1       2.963   2.660  18.774  0.00  0.00    +0.000 A 
ATOM      3  C   UNL     1       3.914   2.853  17.778  0.00  0.00    +0.000 A 
ATOM      4  C   UNL     1       4.236   4.143  17.328  0.00  0.00    +0.000 A 
ATOM      5  C   UNL     1       3.589   5.281  17.893  0.00  0.00    +0.000 A 
ATOM      6  C   UNL     1       3.821   6.619  17.481  0.00  0.00    +0.000 A 
ATOM      7  C   UNL     1       3.174   7.706  18.071  0.00  0.00    +0.000 A 
ATOM      8  C   UNL     1       2.268   7.493  19.093  0.00  0.00    +0.000 A 
ATOM      9  C   UNL     1       1.998   6.192  19.512  0.00  0.00    +0.000 A 
ATOM     10  C   UNL     1       2.634   5.072  18.930  0.00  0.00    +0.000 A 
ENDROOT
BRANCH   1  12
ATOM     11  C   UNL     1       1.834   3.055  21.584  0.00  0.00    +0.000 C 
ATOM     12  O   UNL     1       1.390   3.619  20.354  0.00  0.00    +0.000 OA
ENDBRANCH   1  12
BRANCH   4  13
ATOM     13  C   UNL     1       5.291   4.262  16.263  0.00  0.00    +0.000 C 
ATOM     14  O   UNL     1       4.973   4.305  15.076  0.00  0.00    +0.000 OA
BRANCH  13  15
ATOM     15  C   UNL     1       6.748   4.425  16.669  0.00  0.00    +0.000 C 
BRANCH  15  16
ATOM     16  C   UNL     1       7.200   5.886  16.619  0.00  0.00    +0.000 C 
BRANCH  16  17
ATOM     17  N   UNL     1       7.137   6.583  17.917  0.00  0.00    +0.000 NA
ATOM     18  C   UNL     1       7.680   5.782  19.017  0.00  0.00    +0.000 C 
ATOM     19  C   UNL     1       7.872   7.851  17.826  0.00  0.00    +0.000 C 
ENDBRANCH  16  17
ENDBRANCH  15  16
ENDBRANCH  13  15
ENDBRANCH   4  13
TORSDOF 5
ENDMDL
MODEL 5
REMARK VINA RESULT:      -6.5      2.808      5.776
REMARK  Name = 
REMARK  8 active torsions:
REMARK  status: ('A' for Active; 'I' for Inactive)
REMARK    1  A    between atoms: C_1  and  O_2
REMARK    2  A    between atoms: O_2  and  C_3
REMARK    3  A    between atoms: C_6  and  C_7
REMARK    4  A    between atoms: C_7  and  C_9
REMARK    5  A    between atoms: C_9  and  C_10
REMARK    6  A    between atoms: C_10  and  N_11
REMARK    7  A    between atoms: N_11  and  C_12
REMARK    8  A    between atoms: N_11  and  C_13
REMARK                            x       y       z     vdW  Elec       q    Type
REMARK                         _______ _______ _______ _____ _____    ______ ____
ROOT
ATOM      1  C   UNL     1       2.201   6.332  19.919  0.00  0.00    +0.000 A 
ATOM      2  C   UNL     1       2.703   7.040  18.829  0.00  0.00    +0.000 A 
ATOM      3  C   UNL     1       3.558   6.418  17.927  0.00  0.00    +0.000 A 
ATOM      4  C   UNL     1       3.960   5.086  18.114  0.00  0.00    +0.000 A 
ATOM      5  C   UNL     1       3.489   4.347  19.239  0.00  0.00    +0.000 A 
ATOM      6  C   UNL     1       3.865   3.011  19.532  0.00  0.00    +0.000 A 
ATOM      7  C   UNL     1       3.369   2.320  20.638  0.00  0.00    +0.000 A 
ATOM      8  C   UNL     1       2.482   2.943  21.496  0.00  0.00    +0.000 A 
ATOM      9  C   UNL     1       2.105   4.263  21.253  0.00  0.00    +0.000 A 
ATOM     10  C   UNL     1       2.593   4.988  20.144  0.00  0.00    +0.000 A 
ENDROOT
BRANCH   1  12
ATOM     11  C   UNL     1       1.325   8.325  20.878  0.00  0.00    +0.000 C 
ATOM     12  O   UNL     1       1.355   6.902  20.843  0.00  0.00    +0.000 OA
ENDBRANCH   1  12
BRANCH   4  13
ATOM     13  C   UNL     1       4.869   4.484  17.078  0.00  0.00    +0.000 C 
ATOM     14  O   UNL     1       4.401   3.969  16.064  0.00  0.00    +0.000 OA
BRANCH  13  15
ATOM     15  C   UNL     1       6.376   4.602  17.248  0.00  0.00    +0.000 C 
BRANCH  15  16
ATOM     16  C   UNL     1       6.917   5.922  16.695  0.00  0.00    +0.000 C 
BRANCH  16  17
ATOM     17  N   UNL     1       7.873   6.604  17.587  0.00  0.00    +0.000 NA
ATOM     18  C   UNL     1       7.694   8.057  17.607  0.00  0.00    +0.000 C 
ATOM     19  C   UNL     1       7.731   6.075  18.950  0.00  0.00    +0.000 C 
ENDBRANCH  16  17
ENDBRANCH  15  16
ENDBRANCH  13  15
ENDBRANCH   4  13
TORSDOF 5
ENDMDL
MODEL 6
REMARK VINA RESULT:      -6.5      3.155      5.827
REMARK  Name = 
REMARK  8 active torsions:
REMARK  status: ('A' for Active; 'I' for Inactive)
REMARK    1  A    between atoms: C_1  and  O_2
REMARK    2  A    between atoms: O_2  and  C_3
REMARK    3  A    between atoms: C_6  and  C_7
REMARK    4  A    between atoms: C_7  and  C_9
REMARK    5  A    between atoms: C_9  and  C_10
REMARK    6  A    between atoms: C_10  and  N_11
REMARK    7  A    between atoms: N_11  and  C_12
REMARK    8  A    between atoms: N_11  and  C_13
REMARK                            x       y       z     vdW  Elec       q    Type
REMARK                         _______ _______ _______ _____ _____    ______ ____
ROOT
ATOM      1  C   UNL     1       3.168   6.762  17.924  0.00  0.00    +0.000 A 
ATOM      2  C   UNL     1       4.367   7.364  17.548  0.00  0.00    +0.000 A 
ATOM      3  C   UNL     1       5.412   6.590  17.056  0.00  0.00    +0.000 A 
ATOM      4  C   UNL     1       5.295   5.195  16.963  0.00  0.00    +0.000 A 
ATOM      5  C   UNL     1       4.092   4.548  17.373  0.00  0.00    +0.000 A 
ATOM      6  C   UNL     1       3.892   3.143  17.350  0.00  0.00    +0.000 A 
ATOM      7  C   UNL     1       2.692   2.552  17.748  0.00  0.00    +0.000 A 
ATOM      8  C   UNL     1       1.649   3.345  18.189  0.00  0.00    +0.000 A 
ATOM      9  C   UNL     1       1.814   4.728  18.245  0.00  0.00    +0.000 A 
ATOM     10  C   UNL     1       3.019   5.353  17.852  0.00  0.00    +0.000 A 
ENDROOT
BRANCH   1  12
ATOM     11  C   UNL     1       1.888   8.765  17.842  0.00  0.00    +0.000 C 
ATOM     12  O   UNL     1       2.105   7.482  18.419  0.00  0.00    +0.000 OA
ENDBRANCH   1  12
BRANCH   4  13
ATOM     13  C   UNL     1       6.466   4.436  16.400  0.00  0.00    +0.000 C 
ATOM     14  O   UNL     1       7.567   4.499  16.944  0.00  0.00    +0.000 OA
BRANCH  13  15
ATOM     15  C   UNL     1       6.256   3.516  15.207  0.00  0.00    +0.000 C 
BRANCH  15  16
ATOM     16  C   UNL     1       6.051   4.296  13.907  0.00  0.00    +0.000 C 
BRANCH  16  17
ATOM     17  N   UNL     1       6.338   3.520  12.686  0.00  0.00    +0.000 NA
ATOM     18  C   UNL     1       5.128   3.178  11.935  0.00  0.00    +0.000 C 
ATOM     19  C   UNL     1       7.248   4.285  11.824  0.00  0.00    +0.000 C 
ENDBRANCH  16  17
ENDBRANCH  15  16
ENDBRANCH  13  15
ENDBRANCH   4  13
TORSDOF 5
ENDMDL
MODEL 7
REMARK VINA RESULT:      -6.4      2.659      5.288
REMARK  Name = 
REMARK  8 active torsions:
REMARK  status: ('A' for Active; 'I' for Inactive)
REMARK    1  A    between atoms: C_1  and  O_2
REMARK    2  A    between atoms: O_2  and  C_3
REMARK    3  A    between atoms: C_6  and  C_7
REMARK    4  A    between atoms: C_7  and  C_9
REMARK    5  A    between atoms: C_9  and  C_10
REMARK    6  A    between atoms: C_10  and  N_11
REMARK    7  A    between atoms: N_11  and  C_12
REMARK    8  A    between atoms: N_11  and  C_13
REMARK                            x       y       z     vdW  Elec       q    Type
REMARK                         _______ _______ _______ _____ _____    ______ ____
ROOT
ATOM      1  C   UNL     1       2.468   6.008  19.300  0.00  0.00    +0.000 A 
ATOM      2  C   UNL     1       3.127   6.983  18.554  0.00  0.00    +0.000 A 
ATOM      3  C   UNL     1       3.975   6.614  17.516  0.00  0.00    +0.000 A 
ATOM      4  C   UNL     1       4.211   5.262  17.223  0.00  0.00    +0.000 A 
ATOM      5  C   UNL     1       3.577   4.241  17.992  0.00  0.00    +0.000 A 
ATOM      6  C   UNL     1       3.779   2.851  17.796  0.00  0.00    +0.000 A 
ATOM      7  C   UNL     1       3.127   1.884  18.563  0.00  0.00    +0.000 A 
ATOM      8  C   UNL     1       2.252   2.274  19.559  0.00  0.00    +0.000 A 
ATOM      9  C   UNL     1       2.042   3.632  19.795  0.00  0.00    +0.000 A 
ATOM     10  C   UNL     1       2.691   4.632  19.037  0.00  0.00    +0.000 A 
ENDROOT
BRANCH   1  12
ATOM     11  C   UNL     1       1.507   7.701  20.667  0.00  0.00    +0.000 C 
ATOM     12  O   UNL     1       1.622   6.320  20.339  0.00  0.00    +0.000 OA
ENDBRANCH   1  12
BRANCH   4  13
ATOM     13  C   UNL     1       5.125   4.951  16.070  0.00  0.00    +0.000 C 
ATOM     14  O   UNL     1       4.692   4.376  15.073  0.00  0.00    +0.000 OA
BRANCH  13  15
ATOM     15  C   UNL     1       6.565   5.438  16.106  0.00  0.00    +0.000 C 
BRANCH  15  16
ATOM     16  C   UNL     1       7.372   4.770  17.220  0.00  0.00    +0.000 C 
BRANCH  16  17
ATOM     17  N   UNL     1       7.759   5.680  18.314  0.00  0.00    +0.000 NA
ATOM     18  C   UNL     1       7.689   7.091  17.929  0.00  0.00    +0.000 C 
ATOM     19  C   UNL     1       6.890   5.446  19.475  0.00  0.00    +0.000 C 
ENDBRANCH  16  17
ENDBRANCH  15  16
ENDBRANCH  13  15
ENDBRANCH   4  13
TORSDOF 5
ENDMDL
MODEL 8
REMARK VINA RESULT:      -6.4      1.417      3.027
REMARK  Name = 
REMARK  8 active torsions:
REMARK  status: ('A' for Active; 'I' for Inactive)
REMARK    1  A    between atoms: C_1  and  O_2
REMARK    2  A    between atoms: O_2  and  C_3
REMARK    3  A    between atoms: C_6  and  C_7
REMARK    4  A    between atoms: C_7  and  C_9
REMARK    5  A    between atoms: C_9  and  C_10
REMARK    6  A    between atoms: C_10  and  N_11
REMARK    7  A    between atoms: N_11  and  C_12
REMARK    8  A    between atoms: N_11  and  C_13
REMARK                            x       y       z     vdW  Elec       q    Type
REMARK                         _______ _______ _______ _____ _____    ______ ____
ROOT
ATOM      1  C   UNL     1       6.707   4.951  15.251  0.00  0.00    +0.000 A 
ATOM      2  C   UNL     1       5.731   4.236  14.559  0.00  0.00    +0.000 A 
ATOM      3  C   UNL     1       4.626   3.729  15.234  0.00  0.00    +0.000 A 
ATOM      4  C   UNL     1       4.490   3.893  16.621  0.00  0.00    +0.000 A 
ATOM      5  C   UNL     1       5.490   4.591  17.361  0.00  0.00    +0.000 A 
ATOM      6  C   UNL     1       5.459   4.777  18.767  0.00  0.00    +0.000 A 
ATOM      7  C   UNL     1       6.452   5.478  19.451  0.00  0.00    +0.000 A 
ATOM      8  C   UNL     1       7.518   6.015  18.753  0.00  0.00    +0.000 A 
ATOM      9  C   UNL     1       7.595   5.835  17.373  0.00  0.00    +0.000 A 
ATOM     10  C   UNL     1       6.605   5.127  16.655  0.00  0.00    +0.000 A 
ENDROOT
BRANCH   1  12
ATOM     11  C   UNL     1       7.897   5.295  13.221  0.00  0.00    +0.000 C 
ATOM     12  O   UNL     1       7.820   5.470  14.632  0.00  0.00    +0.000 OA
ENDBRANCH   1  12
BRANCH   4  13
ATOM     13  C   UNL     1       3.253   3.332  17.267  0.00  0.00    +0.000 C 
ATOM     14  O   UNL     1       2.144   3.776  16.975  0.00  0.00    +0.000 OA
BRANCH  13  15
ATOM     15  C   UNL     1       3.377   2.148  18.214  0.00  0.00    +0.000 C 
BRANCH  15  16
ATOM     16  C   UNL     1       2.236   2.103  19.232  0.00  0.00    +0.000 C 
BRANCH  16  17
ATOM     17  N   UNL     1       2.251   3.211  20.205  0.00  0.00    +0.000 NA
ATOM     18  C   UNL     1       0.975   3.926  20.269  0.00  0.00    +0.000 C 
ATOM     19  C   UNL     1       2.585   2.688  21.536  0.00  0.00    +0.000 C 
ENDBRANCH  16  17
ENDBRANCH  15  16
ENDBRANCH  13  15
ENDBRANCH   4  13
TORSDOF 5
ENDMDL
MODEL 9
REMARK VINA RESULT:      -6.4      0.997      1.283
REMARK  Name = 
REMARK  8 active torsions:
REMARK  status: ('A' for Active; 'I' for Inactive)
REMARK    1  A    between atoms: C_1  and  O_2
REMARK    2  A    between atoms: O_2  and  C_3
REMARK    3  A    between atoms: C_6  and  C_7
REMARK    4  A    between atoms: C_7  and  C_9
REMARK    5  A    between atoms: C_9  and  C_10
REMARK    6  A    between atoms: C_10  and  N_11
REMARK    7  A    between atoms: N_11  and  C_12
REMARK    8  A    between atoms: N_11  and  C_13
REMARK                            x       y       z     vdW  Elec       q    Type
REMARK                         _______ _______ _______ _____ _____    ______ ____
ROOT
ATOM      1  C   UNL     1       7.136   6.293  17.479  0.00  0.00    +0.000 A 
ATOM      2  C   UNL     1       6.763   6.236  18.821  0.00  0.00    +0.000 A 
ATOM      3  C   UNL     1       5.893   5.246  19.262  0.00  0.00    +0.000 A 
ATOM      4  C   UNL     1       5.348   4.312  18.367  0.00  0.00    +0.000 A 
ATOM      5  C   UNL     1       5.684   4.367  16.982  0.00  0.00    +0.000 A 
ATOM      6  C   UNL     1       5.159   3.492  15.997  0.00  0.00    +0.000 A 
ATOM      7  C   UNL     1       5.526   3.571  14.653  0.00  0.00    +0.000 A 
ATOM      8  C   UNL     1       6.429   4.534  14.245  0.00  0.00    +0.000 A 
ATOM      9  C   UNL     1       6.952   5.426  15.180  0.00  0.00    +0.000 A 
ATOM     10  C   UNL     1       6.596   5.371  16.546  0.00  0.00    +0.000 A 
ENDROOT
BRANCH   1  12
ATOM     11  C   UNL     1       7.980   8.509  17.664  0.00  0.00    +0.000 C 
ATOM     12  O   UNL     1       7.990   7.254  16.990  0.00  0.00    +0.000 OA
ENDBRANCH   1  12
BRANCH   4  13
ATOM     13  C   UNL     1       4.433   3.261  18.933  0.00  0.00    +0.000 C 
ATOM     14  O   UNL     1       4.857   2.441  19.746  0.00  0.00    +0.000 OA
BRANCH  13  15
ATOM     15  C   UNL     1       2.957   3.279  18.566  0.00  0.00    +0.000 C 
BRANCH  15  16
ATOM     16  C   UNL     1       2.158   2.228  19.339  0.00  0.00    +0.000 C 
BRANCH  16  17
ATOM     17  N   UNL     1       1.264   2.786  20.370  0.00  0.00    +0.000 NA
ATOM     18  C   UNL     1       1.771   2.585  21.729  0.00  0.00    +0.000 C 
ATOM     19  C   UNL     1       1.076   4.223  20.127  0.00  0.00    +0.000 C 
ENDBRANCH  16  17
ENDBRANCH  15  16
ENDBRANCH  13  15
ENDBRANCH   4  13
TORSDOF 5
ENDMDL
