MODEL 1
REMARK VINA RESULT:      -7.0      0.000      0.000
REMARK  Name = 
REMARK  5 active torsions:
REMARK  status: ('A' for Active; 'I' for Inactive)
REMARK    1  A    between atoms: C_1  and  C_2
REMARK    2  A    between atoms: C_6  and  N_7
REMARK    3  A    between atoms: N_7  and  C_8
REMARK    4  A    between atoms: C_8  and  C_9
REMARK    5  A    between atoms: N_19  and  C_20
REMARK                            x       y       z     vdW  Elec       q    Type
REMARK                         _______ _______ _______ _____ _____    ______ ____
ROOT
ATOM      1  C   UNL     1      -1.755  11.623  23.059  0.00  0.00    +0.000 C 
ATOM      2  C   UNL     1      -0.875  10.808  22.183  0.00  0.00    +0.000 A 
ATOM      3  N   UNL     1      -0.203   9.740  22.556  0.00  0.00    +0.000 NA
ATOM      4  C   UNL     1       0.455   9.301  21.433  0.00  0.00    +0.000 A 
ATOM      5  C   UNL     1       1.292   8.186  21.271  0.00  0.00    +0.000 A 
ATOM      6  C   UNL     1       1.890   7.921  20.026  0.00  0.00    +0.000 A 
ATOM      7  C   UNL     1       1.573   8.760  18.947  0.00  0.00    +0.000 A 
ATOM      8  C   UNL     1       0.733   9.880  19.080  0.00  0.00    +0.000 A 
ATOM      9  C   UNL     1       0.187  10.123  20.345  0.00  0.00    +0.000 A 
ATOM     10  N   UNL     1      -0.669  11.075  20.845  0.00  0.00    +0.000 N 
ATOM     11  C   UNL     1      -1.278  12.154  20.110  0.00  0.00    +0.000 C 
ENDROOT
BRANCH   6  12
ATOM     12  N   UNL     1       2.654   6.751  19.892  0.00  0.00    +0.000 N 
ATOM     13  H   UNL     1       3.645   6.970  19.820  0.00  0.00    +0.000 HD
BRANCH  12  14
ATOM     14  C   UNL     1       2.258   5.756  18.900  0.00  0.00    +0.000 C 
BRANCH  14  15
ATOM     15  C   UNL     1       3.355   5.550  17.870  0.00  0.00    +0.000 A 
ATOM     16  C   UNL     1       4.123   6.620  17.381  0.00  0.00    +0.000 A 
ATOM     17  C   UNL     1       5.129   6.404  16.435  0.00  0.00    +0.000 A 
ATOM     18  C   UNL     1       5.395   5.112  15.991  0.00  0.00    +0.000 A 
ATOM     19 CL   UNL     1       6.620   4.846  14.813  0.00  0.00    +0.000 Cl
ATOM     20  C   UNL     1       4.675   4.033  16.496  0.00  0.00    +0.000 A 
ATOM     21  C   UNL     1       3.662   4.250  17.435  0.00  0.00    +0.000 A 
ENDBRANCH  14  15
ENDBRANCH  12  14
ENDBRANCH   6  12
TORSDOF 3
ENDMDL
MODEL 2
REMARK VINA RESULT:      -6.9      0.974      1.481
REMARK  Name = 
REMARK  5 active torsions:
REMARK  status: ('A' for Active; 'I' for Inactive)
REMARK    1  A    between atoms: C_1  and  C_2
REMARK    2  A    between atoms: C_6  and  N_7
REMARK    3  A    between atoms: N_7  and  C_8
REMARK    4  A    between atoms: C_8  and  C_9
REMARK    5  A    between atoms: N_19  and  C_20
REMARK                            x       y       z     vdW  Elec       q    Type
REMARK                         _______ _______ _______ _____ _____    ______ ____
ROOT
ATOM      1  C   UNL     1      -0.959  11.254  22.763  0.00  0.00    +0.000 C 
ATOM      2  C   UNL     1      -0.184  10.387  21.839  0.00  0.00    +0.000 A 
ATOM      3  N   UNL     1       0.280   9.189  22.125  0.00  0.00    +0.000 NA
ATOM      4  C   UNL     1       0.911   8.751  20.986  0.00  0.00    +0.000 A 
ATOM      5  C   UNL     1       1.559   7.530  20.741  0.00  0.00    +0.000 A 
ATOM      6  C   UNL     1       2.165   7.285  19.497  0.00  0.00    +0.000 A 
ATOM      7  C   UNL     1       2.048   8.263  18.498  0.00  0.00    +0.000 A 
ATOM      8  C   UNL     1       1.401   9.493  18.715  0.00  0.00    +0.000 A 
ATOM      9  C   UNL     1       0.840   9.705  19.978  0.00  0.00    +0.000 A 
ATOM     10  N   UNL     1       0.131  10.738  20.543  0.00  0.00    +0.000 N 
ATOM     11  C   UNL     1      -0.253  11.970  19.900  0.00  0.00    +0.000 C 
ENDROOT
BRANCH   6  12
ATOM     12  N   UNL     1       2.730   6.019  19.271  0.00  0.00    +0.000 N 
ATOM     13  H   UNL     1       2.314   5.321  19.882  0.00  0.00    +0.000 HD
BRANCH  12  14
ATOM     14  C   UNL     1       4.184   5.889  19.228  0.00  0.00    +0.000 C 
BRANCH  14  15
ATOM     15  C   UNL     1       4.648   5.441  17.854  0.00  0.00    +0.000 A 
ATOM     16  C   UNL     1       4.729   4.082  17.506  0.00  0.00    +0.000 A 
ATOM     17  C   UNL     1       5.157   3.694  16.233  0.00  0.00    +0.000 A 
ATOM     18  C   UNL     1       5.481   4.662  15.288  0.00  0.00    +0.000 A 
ATOM     19 CL   UNL     1       6.026   4.187  13.726  0.00  0.00    +0.000 Cl
ATOM     20  C   UNL     1       5.365   6.015  15.598  0.00  0.00    +0.000 A 
ATOM     21  C   UNL     1       4.946   6.402  16.874  0.00  0.00    +0.000 A 
ENDBRANCH  14  15
ENDBRANCH  12  14
ENDBRANCH   6  12
TORSDOF 3
ENDMDL
MODEL 3
REMARK VINA RESULT:      -6.8      3.651      8.300
REMARK  Name = 
REMARK  5 active torsions:
REMARK  status: ('A' for Active; 'I' for Inactive)
REMARK    1  A    between atoms: C_1  and  C_2
REMARK    2  A    between atoms: C_6  and  N_7
REMARK    3  A    between atoms: N_7  and  C_8
REMARK    4  A    between atoms: C_8  and  C_9
REMARK    5  A    between atoms: N_19  and  C_20
REMARK                            x       y       z     vdW  Elec       q    Type
REMARK                         _______ _______ _______ _____ _____    ______ ____
ROOT
ATOM      1  C   UNL     1       5.215   3.981  15.736  0.00  0.00    +0.000 C 
ATOM      2  C   UNL     1       4.412   4.437  16.899  0.00  0.00    +0.000 A 
ATOM      3  N   UNL     1       4.244   5.689  17.268  0.00  0.00    +0.000 NA
ATOM      4  C   UNL     1       3.425   5.647  18.369  0.00  0.00    +0.000 A 
ATOM      5  C   UNL     1       2.916   6.704  19.140  0.00  0.00    +0.000 A 
ATOM      6  C   UNL     1       2.099   6.442  20.254  0.00  0.00    +0.000 A 
ATOM      7  C   UNL     1       1.760   5.108  20.528  0.00  0.00    +0.000 A 
ATOM      8  C   UNL     1       2.252   4.031  19.770  0.00  0.00    +0.000 A 
ATOM      9  C   UNL     1       3.087   4.338  18.691  0.00  0.00    +0.000 A 
ATOM     10  N   UNL     1       3.724   3.583  17.735  0.00  0.00    +0.000 N 
ATOM     11  C   UNL     1       3.669   2.149  17.595  0.00  0.00    +0.000 C 
ENDROOT
BRANCH   6  12
ATOM     12  N   UNL     1       1.548   7.533  20.946  0.00  0.00    +0.000 N 
ATOM     13  H   UNL     1       0.761   7.240  21.520  0.00  0.00    +0.000 HD
BRANCH  12  14
ATOM     14  C   UNL     1       1.243   8.757  20.211  0.00  0.00    +0.000 C 
BRANCH  14  15
ATOM     15  C   UNL     1       0.364   9.680  21.037  0.00  0.00    +0.000 A 
ATOM     16  C   UNL     1      -0.249  10.814  20.479  0.00  0.00    +0.000 A 
ATOM     17  C   UNL     1      -1.056  11.647  21.259  0.00  0.00    +0.000 A 
ATOM     18  C   UNL     1      -1.279  11.338  22.597  0.00  0.00    +0.000 A 
ATOM     19 CL   UNL     1      -2.256  12.372  23.565  0.00  0.00    +0.000 Cl
ATOM     20  C   UNL     1      -0.715  10.195  23.158  0.00  0.00    +0.000 A 
ATOM     21  C   UNL     1       0.099   9.367  22.380  0.00  0.00    +0.000 A 
ENDBRANCH  14  15
ENDBRANCH  12  14
ENDBRANCH   6  12
TORSDOF 3
ENDMDL
MODEL 4
REMARK VINA RESULT:      -6.8      1.554      2.303
REMARK  Name = 
REMARK  5 active torsions:
REMARK  status: ('A' for Active; 'I' for Inactive)
REMARK    1  A    between atoms: C_1  and  C_2
REMARK    2  A    between atoms: C_6  and  N_7
REMARK    3  A    between atoms: N_7  and  C_8
REMARK    4  A    between atoms: C_8  and  C_9
REMARK    5  A    between atoms: N_19  and  C_20
REMARK                            x       y       z     vdW  Elec       q    Type
REMARK                         _______ _______ _______ _____ _____    ______ ____
ROOT
ATOM      1  C   UNL     1      -0.104  10.229  22.185  0.00  0.00    +0.000 C 
ATOM      2  C   UNL     1       0.632   9.322  21.269  0.00  0.00    +0.000 A 
ATOM      3  N   UNL     1       1.013   8.094  21.552  0.00  0.00    +0.000 NA
ATOM      4  C   UNL     1       1.638   7.627  20.422  0.00  0.00    +0.000 A 
ATOM      5  C   UNL     1       2.211   6.369  20.177  0.00  0.00    +0.000 A 
ATOM      6  C   UNL     1       2.827   6.096  18.943  0.00  0.00    +0.000 A 
ATOM      7  C   UNL     1       2.793   7.089  17.952  0.00  0.00    +0.000 A 
ATOM      8  C   UNL     1       2.222   8.356  18.169  0.00  0.00    +0.000 A 
ATOM      9  C   UNL     1       1.650   8.593  19.422  0.00  0.00    +0.000 A 
ATOM     10  N   UNL     1       0.997   9.664  19.983  0.00  0.00    +0.000 N 
ATOM     11  C   UNL     1       0.707  10.924  19.345  0.00  0.00    +0.000 C 
ENDROOT
BRANCH   6  12
ATOM     12  N   UNL     1       3.314   4.799  18.716  0.00  0.00    +0.000 N 
ATOM     13  H   UNL     1       2.767   4.110  19.227  0.00  0.00    +0.000 HD
BRANCH  12  14
ATOM     14  C   UNL     1       4.745   4.546  18.849  0.00  0.00    +0.000 C 
BRANCH  14  15
ATOM     15  C   UNL     1       5.438   4.624  17.500  0.00  0.00    +0.000 A 
ATOM     16  C   UNL     1       6.815   4.880  17.387  0.00  0.00    +0.000 A 
ATOM     17  C   UNL     1       7.429   4.945  16.134  0.00  0.00    +0.000 A 
ATOM     18  C   UNL     1       6.678   4.727  14.983  0.00  0.00    +0.000 A 
ATOM     19 CL   UNL     1       7.429   4.824  13.438  0.00  0.00    +0.000 Cl
ATOM     20  C   UNL     1       5.321   4.429  15.075  0.00  0.00    +0.000 A 
ATOM     21  C   UNL     1       4.704   4.373  16.328  0.00  0.00    +0.000 A 
ENDBRANCH  14  15
ENDBRANCH  12  14
ENDBRANCH   6  12
TORSDOF 3
ENDMDL
MODEL 5
REMARK VINA RESULT:      -6.8      1.164      1.398
REMARK  Name = 
REMARK  5 active torsions:
REMARK  status: ('A' for Active; 'I' for Inactive)
REMARK    1  A    between atoms: C_1  and  C_2
REMARK    2  A    between atoms: C_6  and  N_7
REMARK    3  A    between atoms: N_7  and  C_8
REMARK    4  A    between atoms: C_8  and  C_9
REMARK    5  A    between atoms: N_19  and  C_20
REMARK                            x       y       z     vdW  Elec       q    Type
REMARK                         _______ _______ _______ _____ _____    ______ ____
ROOT
ATOM      1  C   UNL     1      -0.792  10.908  22.642  0.00  0.00    +0.000 C 
ATOM      2  C   UNL     1      -0.018  10.089  21.675  0.00  0.00    +0.000 A 
ATOM      3  N   UNL     1       0.506   8.907  21.921  0.00  0.00    +0.000 NA
ATOM      4  C   UNL     1       1.110   8.515  20.752  0.00  0.00    +0.000 A 
ATOM      5  C   UNL     1       1.797   7.326  20.461  0.00  0.00    +0.000 A 
ATOM      6  C   UNL     1       2.365   7.126  19.191  0.00  0.00    +0.000 A 
ATOM      7  C   UNL     1       2.170   8.115  18.215  0.00  0.00    +0.000 A 
ATOM      8  C   UNL     1       1.483   9.313  18.478  0.00  0.00    +0.000 A 
ATOM      9  C   UNL     1       0.962   9.482  19.765  0.00  0.00    +0.000 A 
ATOM     10  N   UNL     1       0.233  10.475  20.375  0.00  0.00    +0.000 N 
ATOM     11  C   UNL     1      -0.224  11.700  19.769  0.00  0.00    +0.000 C 
ENDROOT
BRANCH   6  12
ATOM     12  N   UNL     1       2.972   5.889  18.921  0.00  0.00    +0.000 N 
ATOM     13  H   UNL     1       2.517   5.140  19.437  0.00  0.00    +0.000 HD
BRANCH  12  14
ATOM     14  C   UNL     1       4.426   5.780  18.999  0.00  0.00    +0.000 C 
BRANCH  14  15
ATOM     15  C   UNL     1       5.022   5.492  17.633  0.00  0.00    +0.000 A 
ATOM     16  C   UNL     1       4.834   6.360  16.544  0.00  0.00    +0.000 A 
ATOM     17  C   UNL     1       5.396   6.073  15.296  0.00  0.00    +0.000 A 
ATOM     18  C   UNL     1       6.174   4.931  15.134  0.00  0.00    +0.000 A 
ATOM     19 CL   UNL     1       6.851   4.566  13.595  0.00  0.00    +0.000 Cl
ATOM     20  C   UNL     1       6.408   4.080  16.212  0.00  0.00    +0.000 A 
ATOM     21  C   UNL     1       5.838   4.362  17.457  0.00  0.00    +0.000 A 
ENDBRANCH  14  15
ENDBRANCH  12  14
ENDBRANCH   6  12
TORSDOF 3
ENDMDL
MODEL 6
REMARK VINA RESULT:      -6.8      3.646      7.364
REMARK  Name = 
REMARK  5 active torsions:
REMARK  status: ('A' for Active; 'I' for Inactive)
REMARK    1  A    between atoms: C_1  and  C_2
REMARK    2  A    between atoms: C_6  and  N_7
REMARK    3  A    between atoms: N_7  and  C_8
REMARK    4  A    between atoms: C_8  and  C_9
REMARK    5  A    between atoms: N_19  and  C_20
REMARK                            x       y       z     vdW  Elec       q    Type
REMARK                         _______ _______ _______ _____ _____    ______ ____
ROOT
ATOM      1  C   UNL     1       2.453   2.695  21.518  0.00  0.00    +0.000 C 
ATOM      2  C   UNL     1       2.478   3.947  20.720  0.00  0.00    +0.000 A 
ATOM      3  N   UNL     1       1.786   5.036  20.984  0.00  0.00    +0.000 NA
ATOM      4  C   UNL     1       2.125   5.940  20.008  0.00  0.00    +0.000 A 
ATOM      5  C   UNL     1       1.693   7.264  19.833  0.00  0.00    +0.000 A 
ATOM      6  C   UNL     1       2.153   8.023  18.742  0.00  0.00    +0.000 A 
ATOM      7  C   UNL     1       3.096   7.442  17.881  0.00  0.00    +0.000 A 
ATOM      8  C   UNL     1       3.550   6.121  18.037  0.00  0.00    +0.000 A 
ATOM      9  C   UNL     1       3.041   5.393  19.117  0.00  0.00    +0.000 A 
ATOM     10  N   UNL     1       3.256   4.122  19.595  0.00  0.00    +0.000 N 
ATOM     11  C   UNL     1       4.157   3.139  19.047  0.00  0.00    +0.000 C 
ENDROOT
BRANCH   6  12
ATOM     12  N   UNL     1       1.756   9.367  18.654  0.00  0.00    +0.000 N 
ATOM     13  H   UNL     1       2.564   9.982  18.601  0.00  0.00    +0.000 HD
BRANCH  12  14
ATOM     14  C   UNL     1       0.762   9.876  19.594  0.00  0.00    +0.000 C 
BRANCH  14  15
ATOM     15  C   UNL     1      -0.500  10.307  18.869  0.00  0.00    +0.000 A 
ATOM     16  C   UNL     1      -0.868   9.755  17.630  0.00  0.00    +0.000 A 
ATOM     17  C   UNL     1      -2.037  10.166  16.983  0.00  0.00    +0.000 A 
ATOM     18  C   UNL     1      -2.863  11.112  17.582  0.00  0.00    +0.000 A 
ATOM     19 CL   UNL     1      -4.292  11.634  16.779  0.00  0.00    +0.000 Cl
ATOM     20  C   UNL     1      -2.538  11.639  18.830  0.00  0.00    +0.000 A 
ATOM     21  C   UNL     1      -1.365  11.235  19.472  0.00  0.00    +0.000 A 
ENDBRANCH  14  15
ENDBRANCH  12  14
ENDBRANCH   6  12
TORSDOF 3
ENDMDL
MODEL 7
REMARK VINA RESULT:      -6.7      3.769      7.297
REMARK  Name = 
REMARK  5 active torsions:
REMARK  status: ('A' for Active; 'I' for Inactive)
REMARK    1  A    between atoms: C_1  and  C_2
REMARK    2  A    between atoms: C_6  and  N_7
REMARK    3  A    between atoms: N_7  and  C_8
REMARK    4  A    between atoms: C_8  and  C_9
REMARK    5  A    between atoms: N_19  and  C_20
REMARK                            x       y       z     vdW  Elec       q    Type
REMARK                         _______ _______ _______ _____ _____    ______ ____
ROOT
ATOM      1  C   UNL     1       2.340   2.983  21.581  0.00  0.00    +0.000 C 
ATOM      2  C   UNL     1       2.466   4.165  20.691  0.00  0.00    +0.000 A 
ATOM      3  N   UNL     1       1.710   5.242  20.739  0.00  0.00    +0.000 NA
ATOM      4  C   UNL     1       2.187   6.076  19.757  0.00  0.00    +0.000 A 
ATOM      5  C   UNL     1       1.755   7.362  19.396  0.00  0.00    +0.000 A 
ATOM      6  C   UNL     1       2.373   8.047  18.336  0.00  0.00    +0.000 A 
ATOM      7  C   UNL     1       3.465   7.438  17.700  0.00  0.00    +0.000 A 
ATOM      8  C   UNL     1       3.922   6.154  18.045  0.00  0.00    +0.000 A 
ATOM      9  C   UNL     1       3.256   5.497  19.085  0.00  0.00    +0.000 A 
ATOM     10  N   UNL     1       3.421   4.280  19.702  0.00  0.00    +0.000 N 
ATOM     11  C   UNL     1       4.428   3.294  19.402  0.00  0.00    +0.000 C 
ENDROOT
BRANCH   6  12
ATOM     12  N   UNL     1       1.961   9.362  18.063  0.00  0.00    +0.000 N 
ATOM     13  H   UNL     1       2.701   9.888  17.606  0.00  0.00    +0.000 HD
BRANCH  12  14
ATOM     14  C   UNL     1       1.333  10.142  19.126  0.00  0.00    +0.000 C 
BRANCH  14  15
ATOM     15  C   UNL     1      -0.100  10.494  18.765  0.00  0.00    +0.000 A 
ATOM     16  C   UNL     1      -0.815  11.487  19.456  0.00  0.00    +0.000 A 
ATOM     17  C   UNL     1      -2.132  11.795  19.104  0.00  0.00    +0.000 A 
ATOM     18  C   UNL     1      -2.736  11.133  18.039  0.00  0.00    +0.000 A 
ATOM     19 CL   UNL     1      -4.364  11.496  17.616  0.00  0.00    +0.000 Cl
ATOM     20  C   UNL     1      -2.030  10.176  17.314  0.00  0.00    +0.000 A 
ATOM     21  C   UNL     1      -0.716   9.862  17.673  0.00  0.00    +0.000 A 
ENDBRANCH  14  15
ENDBRANCH  12  14
ENDBRANCH   6  12
TORSDOF 3
ENDMDL
MODEL 8
REMARK VINA RESULT:      -6.7      1.975      3.378
REMARK  Name = 
REMARK  5 active torsions:
REMARK  status: ('A' for Active; 'I' for Inactive)
REMARK    1  A    between atoms: C_1  and  C_2
REMARK    2  A    between atoms: C_6  and  N_7
REMARK    3  A    between atoms: N_7  and  C_8
REMARK    4  A    between atoms: C_8  and  C_9
REMARK    5  A    between atoms: N_19  and  C_20
REMARK                            x       y       z     vdW  Elec       q    Type
REMARK                         _______ _______ _______ _____ _____    ______ ____
ROOT
ATOM      1  C   UNL     1       1.429  11.090  18.239  0.00  0.00    +0.000 C 
ATOM      2  C   UNL     1       1.668   9.667  18.592  0.00  0.00    +0.000 A 
ATOM      3  N   UNL     1       2.241   8.772  17.815  0.00  0.00    +0.000 NA
ATOM      4  C   UNL     1       2.270   7.609  18.543  0.00  0.00    +0.000 A 
ATOM      5  C   UNL     1       2.792   6.354  18.195  0.00  0.00    +0.000 A 
ATOM      6  C   UNL     1       2.702   5.273  19.089  0.00  0.00    +0.000 A 
ATOM      7  C   UNL     1       2.138   5.504  20.353  0.00  0.00    +0.000 A 
ATOM      8  C   UNL     1       1.611   6.752  20.730  0.00  0.00    +0.000 A 
ATOM      9  C   UNL     1       1.694   7.789  19.795  0.00  0.00    +0.000 A 
ATOM     10  N   UNL     1       1.323   9.113  19.806  0.00  0.00    +0.000 N 
ATOM     11  C   UNL     1       0.706   9.823  20.899  0.00  0.00    +0.000 C 
ENDROOT
BRANCH   6  12
ATOM     12  N   UNL     1       3.310   4.060  18.729  0.00  0.00    +0.000 N 
ATOM     13  H   UNL     1       2.825   3.271  19.150  0.00  0.00    +0.000 HD
BRANCH  12  14
ATOM     14  C   UNL     1       4.758   3.925  18.863  0.00  0.00    +0.000 C 
BRANCH  14  15
ATOM     15  C   UNL     1       5.453   4.216  17.545  0.00  0.00    +0.000 A 
ATOM     16  C   UNL     1       6.785   4.661  17.491  0.00  0.00    +0.000 A 
ATOM     17  C   UNL     1       7.404   4.919  16.265  0.00  0.00    +0.000 A 
ATOM     18  C   UNL     1       6.706   4.707  15.080  0.00  0.00    +0.000 A 
ATOM     19 CL   UNL     1       7.459   5.042  13.570  0.00  0.00    +0.000 Cl
ATOM     20  C   UNL     1       5.399   4.225  15.110  0.00  0.00    +0.000 A 
ATOM     21  C   UNL     1       4.777   3.976  16.336  0.00  0.00    +0.000 A 
ENDBRANCH  14  15
ENDBRANCH  12  14
ENDBRANCH   6  12
TORSDOF 3
ENDMDL
MODEL 9
REMARK VINA RESULT:      -6.7      3.710      7.669
REMARK  Name = 
REMARK  5 active torsions:
REMARK  status: ('A' for Active; 'I' for Inactive)
REMARK    1  A    between atoms: C_1  and  C_2
REMARK    2  A    between atoms: C_6  and  N_7
REMARK    3  A    between atoms: N_7  and  C_8
REMARK    4  A    between atoms: C_8  and  C_9
REMARK    5  A    between atoms: N_19  and  C_20
REMARK                            x       y       z     vdW  Elec       q    Type
REMARK                         _______ _______ _______ _____ _____    ______ ____
ROOT
ATOM      1  C   UNL     1       3.538   1.955  17.961  0.00  0.00    +0.000 C 
ATOM      2  C   UNL     1       3.137   3.320  18.387  0.00  0.00    +0.000 A 
ATOM      3  N   UNL     1       3.178   4.398  17.633  0.00  0.00    +0.000 NA
ATOM      4  C   UNL     1       2.706   5.421  18.419  0.00  0.00    +0.000 A 
ATOM      5  C   UNL     1       2.520   6.775  18.100  0.00  0.00    +0.000 A 
ATOM      6  C   UNL     1       2.037   7.673  19.067  0.00  0.00    +0.000 A 
ATOM      7  C   UNL     1       1.690   7.166  20.328  0.00  0.00    +0.000 A 
ATOM      8  C   UNL     1       1.861   5.813  20.673  0.00  0.00    +0.000 A 
ATOM      9  C   UNL     1       2.374   4.963  19.688  0.00  0.00    +0.000 A 
ATOM     10  N   UNL     1       2.652   3.617  19.643  0.00  0.00    +0.000 N 
ATOM     11  C   UNL     1       2.450   2.662  20.703  0.00  0.00    +0.000 C 
ENDROOT
BRANCH   6  12
ATOM     12  N   UNL     1       1.792   9.000  18.679  0.00  0.00    +0.000 N 
ATOM     13  H   UNL     1       2.643   9.446  18.346  0.00  0.00    +0.000 HD
BRANCH  12  14
ATOM     14  C   UNL     1       1.051   9.877  19.581  0.00  0.00    +0.000 C 
BRANCH  14  15
ATOM     15  C   UNL     1      -0.279  10.284  18.971  0.00  0.00    +0.000 A 
ATOM     16  C   UNL     1      -1.091  11.270  19.555  0.00  0.00    +0.000 A 
ATOM     17  C   UNL     1      -2.310  11.629  18.973  0.00  0.00    +0.000 A 
ATOM     18  C   UNL     1      -2.715  11.025  17.787  0.00  0.00    +0.000 A 
ATOM     19 CL   UNL     1      -4.224  11.451  17.078  0.00  0.00    +0.000 Cl
ATOM     20  C   UNL     1      -1.904  10.075  17.169  0.00  0.00    +0.000 A 
ATOM     21  C   UNL     1      -0.689   9.710  17.756  0.00  0.00    +0.000 A 
ENDBRANCH  14  15
ENDBRANCH  12  14
ENDBRANCH   6  12
TORSDOF 3
ENDMDL
