MODEL 1
REMARK VINA RESULT:      -8.2      0.000      0.000
REMARK  Name = 
REMARK  5 active torsions:
REMARK  status: ('A' for Active; 'I' for Inactive)
REMARK    1  A    between atoms: C_2  and  C_3
REMARK    2  A    between atoms: C_2  and  C_20
REMARK    3  A    between atoms: C_3  and  N_4
REMARK    4  A    between atoms: C_5  and  C_6
REMARK    5  A    between atoms: C_6  and  C_7
REMARK                            x       y       z     vdW  Elec       q    Type
REMARK                         _______ _______ _______ _____ _____    ______ ____
ROOT
ATOM      1  N   UNL     1       3.691   5.221  18.009  0.00  0.00    +0.000 N 
ATOM      2  C   UNL     1       3.714   4.309  19.050  0.00  0.00    +0.000 A 
ATOM      3  N   UNL     1       3.152   4.828  20.127  0.00  0.00    +0.000 NA
ATOM      4  C   UNL     1       2.713   6.073  19.774  0.00  0.00    +0.000 A 
ATOM      5  C   UNL     1       2.001   7.010  20.534  0.00  0.00    +0.000 A 
ATOM      6  C   UNL     1       1.644   8.228  19.940  0.00  0.00    +0.000 A 
ATOM      7 CL   UNL     1       0.751   9.349  20.910  0.00  0.00    +0.000 Cl
ATOM      8  C   UNL     1       1.998   8.507  18.614  0.00  0.00    +0.000 A 
ATOM      9 CL   UNL     1       1.582  10.000  17.844  0.00  0.00    +0.000 Cl
ATOM     10  C   UNL     1       2.710   7.574  17.843  0.00  0.00    +0.000 A 
ATOM     11  C   UNL     1       3.046   6.358  18.456  0.00  0.00    +0.000 A 
ENDROOT
BRANCH   1  12
ATOM     12  C   UNL     1       4.203   5.060  16.651  0.00  0.00    +0.000 C 
BRANCH  12  14
ATOM     13  O   UNL     1       6.139   3.717  16.156  0.00  0.00    +0.000 OA
ATOM     14  C   UNL     1       5.683   4.751  16.645  0.00  0.00    +0.000 C 
BRANCH  14  15
ATOM     15  C   UNL     1       6.597   5.722  17.309  0.00  0.00    +0.000 A 
ATOM     16  C   UNL     1       7.299   5.335  18.445  0.00  0.00    +0.000 A 
ATOM     17  C   UNL     1       8.119   6.272  19.067  0.00  0.00    +0.000 A 
ATOM     18  C   UNL     1       8.211   7.554  18.536  0.00  0.00    +0.000 A 
ATOM     19  C   UNL     1       7.482   7.848  17.394  0.00  0.00    +0.000 A 
ATOM     20  N   UNL     1       6.675   6.962  16.765  0.00  0.00    +0.000 NA
ENDBRANCH  14  15
ENDBRANCH  12  14
ENDBRANCH   1  12
BRANCH   2  21
ATOM     21  C   UNL     1       4.170   2.888  18.970  0.00  0.00    +0.000 C 
BRANCH  21  22
ATOM     22  C   UNL     1       3.118   1.882  18.548  0.00  0.00    +0.000 C 
ATOM     23  F   UNL     1       2.091   1.777  19.419  0.00  0.00    +0.000 F 
ATOM     24  F   UNL     1       2.598   2.174  17.335  0.00  0.00    +0.000 F 
ATOM     25  F   UNL     1       3.674   0.646  18.455  0.00  0.00    +0.000 F 
ENDBRANCH  21  22
ENDBRANCH   2  21
TORSDOF 5
ENDMDL
MODEL 2
REMARK VINA RESULT:      -8.1      2.475      4.846
REMARK  Name = 
REMARK  5 active torsions:
REMARK  status: ('A' for Active; 'I' for Inactive)
REMARK    1  A    between atoms: C_2  and  C_3
REMARK    2  A    between atoms: C_2  and  C_20
REMARK    3  A    between atoms: C_3  and  N_4
REMARK    4  A    between atoms: C_5  and  C_6
REMARK    5  A    between atoms: C_6  and  C_7
REMARK                            x       y       z     vdW  Elec       q    Type
REMARK                         _______ _______ _______ _____ _____    ______ ____
ROOT
ATOM      1  N   UNL     1       4.757   5.363  17.874  0.00  0.00    +0.000 N 
ATOM      2  C   UNL     1       5.271   5.882  16.698  0.00  0.00    +0.000 A 
ATOM      3  N   UNL     1       4.667   7.018  16.395  0.00  0.00    +0.000 NA
ATOM      4  C   UNL     1       3.784   7.269  17.407  0.00  0.00    +0.000 A 
ATOM      5  C   UNL     1       2.942   8.372  17.594  0.00  0.00    +0.000 A 
ATOM      6  C   UNL     1       2.126   8.413  18.733  0.00  0.00    +0.000 A 
ATOM      7 CL   UNL     1       1.114   9.801  18.932  0.00  0.00    +0.000 Cl
ATOM      8  C   UNL     1       2.148   7.366  19.664  0.00  0.00    +0.000 A 
ATOM      9 CL   UNL     1       1.154   7.374  21.081  0.00  0.00    +0.000 Cl
ATOM     10  C   UNL     1       2.990   6.257  19.488  0.00  0.00    +0.000 A 
ATOM     11  C   UNL     1       3.804   6.245  18.345  0.00  0.00    +0.000 A 
ENDROOT
BRANCH   1  12
ATOM     12  C   UNL     1       5.136   4.133  18.563  0.00  0.00    +0.000 C 
BRANCH  12  14
ATOM     13  O   UNL     1       4.063   2.313  17.407  0.00  0.00    +0.000 OA
ATOM     14  C   UNL     1       4.092   3.052  18.391  0.00  0.00    +0.000 C 
BRANCH  14  15
ATOM     15  C   UNL     1       3.040   2.933  19.438  0.00  0.00    +0.000 A 
ATOM     16  C   UNL     1       1.701   3.047  19.079  0.00  0.00    +0.000 A 
ATOM     17  C   UNL     1       0.738   2.967  20.081  0.00  0.00    +0.000 A 
ATOM     18  C   UNL     1       1.141   2.776  21.398  0.00  0.00    +0.000 A 
ATOM     19  C   UNL     1       2.497   2.663  21.662  0.00  0.00    +0.000 A 
ATOM     20  N   UNL     1       3.460   2.737  20.713  0.00  0.00    +0.000 NA
ENDBRANCH  14  15
ENDBRANCH  12  14
ENDBRANCH   1  12
BRANCH   2  21
ATOM     21  C   UNL     1       6.434   5.344  15.928  0.00  0.00    +0.000 C 
BRANCH  21  22
ATOM     22  C   UNL     1       6.105   4.290  14.890  0.00  0.00    +0.000 C 
ATOM     23  F   UNL     1       6.919   4.321  13.812  0.00  0.00    +0.000 F 
ATOM     24  F   UNL     1       6.154   3.042  15.405  0.00  0.00    +0.000 F 
ATOM     25  F   UNL     1       4.843   4.480  14.427  0.00  0.00    +0.000 F 
ENDBRANCH  21  22
ENDBRANCH   2  21
TORSDOF 5
ENDMDL
MODEL 3
REMARK VINA RESULT:      -8.0      0.616      1.234
REMARK  Name = 
REMARK  5 active torsions:
REMARK  status: ('A' for Active; 'I' for Inactive)
REMARK    1  A    between atoms: C_2  and  C_3
REMARK    2  A    between atoms: C_2  and  C_20
REMARK    3  A    between atoms: C_3  and  N_4
REMARK    4  A    between atoms: C_5  and  C_6
REMARK    5  A    between atoms: C_6  and  C_7
REMARK                            x       y       z     vdW  Elec       q    Type
REMARK                         _______ _______ _______ _____ _____    ______ ____
ROOT
ATOM      1  N   UNL     1       3.649   5.129  18.068  0.00  0.00    +0.000 N 
ATOM      2  C   UNL     1       3.671   4.245  19.133  0.00  0.00    +0.000 A 
ATOM      3  N   UNL     1       3.116   4.796  20.198  0.00  0.00    +0.000 NA
ATOM      4  C   UNL     1       2.683   6.033  19.814  0.00  0.00    +0.000 A 
ATOM      5  C   UNL     1       1.980   6.994  20.551  0.00  0.00    +0.000 A 
ATOM      6  C   UNL     1       1.627   8.198  19.927  0.00  0.00    +0.000 A 
ATOM      7 CL   UNL     1       0.745   9.350  20.869  0.00  0.00    +0.000 Cl
ATOM      8  C   UNL     1       1.978   8.439  18.592  0.00  0.00    +0.000 A 
ATOM      9 CL   UNL     1       1.566   9.914  17.784  0.00  0.00    +0.000 Cl
ATOM     10  C   UNL     1       2.680   7.482  17.843  0.00  0.00    +0.000 A 
ATOM     11  C   UNL     1       3.012   6.281  18.487  0.00  0.00    +0.000 A 
ENDROOT
BRANCH   1  12
ATOM     12  C   UNL     1       4.154   4.928  16.713  0.00  0.00    +0.000 C 
BRANCH  12  14
ATOM     13  O   UNL     1       6.080   3.594  16.159  0.00  0.00    +0.000 OA
ATOM     14  C   UNL     1       5.629   4.599  16.710  0.00  0.00    +0.000 C 
BRANCH  14  15
ATOM     15  C   UNL     1       6.545   5.510  17.452  0.00  0.00    +0.000 A 
ATOM     16  C   UNL     1       6.763   6.798  16.977  0.00  0.00    +0.000 A 
ATOM     17  C   UNL     1       7.650   7.618  17.669  0.00  0.00    +0.000 A 
ATOM     18  C   UNL     1       8.283   7.127  18.806  0.00  0.00    +0.000 A 
ATOM     19  C   UNL     1       7.997   5.833  19.213  0.00  0.00    +0.000 A 
ATOM     20  N   UNL     1       7.142   5.009  18.563  0.00  0.00    +0.000 NA
ENDBRANCH  14  15
ENDBRANCH  12  14
ENDBRANCH   1  12
BRANCH   2  21
ATOM     21  C   UNL     1       4.119   2.820  19.089  0.00  0.00    +0.000 C 
BRANCH  21  22
ATOM     22  C   UNL     1       3.102   1.826  18.561  0.00  0.00    +0.000 C 
ATOM     23  F   UNL     1       2.574   2.177  17.368  0.00  0.00    +0.000 F 
ATOM     24  F   UNL     1       3.628   0.589  18.429  0.00  0.00    +0.000 F 
ATOM     25  F   UNL     1       2.064   1.726  19.430  0.00  0.00    +0.000 F 
ENDBRANCH  21  22
ENDBRANCH   2  21
TORSDOF 5
ENDMDL
MODEL 4
REMARK VINA RESULT:      -7.9      3.974      6.373
REMARK  Name = 
REMARK  5 active torsions:
REMARK  status: ('A' for Active; 'I' for Inactive)
REMARK    1  A    between atoms: C_2  and  C_3
REMARK    2  A    between atoms: C_2  and  C_20
REMARK    3  A    between atoms: C_3  and  N_4
REMARK    4  A    between atoms: C_5  and  C_6
REMARK    5  A    between atoms: C_6  and  C_7
REMARK                            x       y       z     vdW  Elec       q    Type
REMARK                         _______ _______ _______ _____ _____    ______ ____
ROOT
ATOM      1  N   UNL     1       4.308   4.329  16.834  0.00  0.00    +0.000 N 
ATOM      2  C   UNL     1       4.707   5.274  17.764  0.00  0.00    +0.000 A 
ATOM      3  N   UNL     1       5.804   5.886  17.353  0.00  0.00    +0.000 NA
ATOM      4  C   UNL     1       6.097   5.372  16.121  0.00  0.00    +0.000 A 
ATOM      5  C   UNL     1       7.124   5.723  15.236  0.00  0.00    +0.000 A 
ATOM      6  C   UNL     1       7.214   5.055  14.007  0.00  0.00    +0.000 A 
ATOM      7 CL   UNL     1       8.488   5.532  12.939  0.00  0.00    +0.000 Cl
ATOM      8  C   UNL     1       6.296   4.051  13.673  0.00  0.00    +0.000 A 
ATOM      9 CL   UNL     1       6.373   3.198  12.168  0.00  0.00    +0.000 Cl
ATOM     10  C   UNL     1       5.261   3.693  14.551  0.00  0.00    +0.000 A 
ATOM     11  C   UNL     1       5.188   4.383  15.770  0.00  0.00    +0.000 A 
ENDROOT
BRANCH   1  12
ATOM     12  C   UNL     1       3.156   3.433  16.891  0.00  0.00    +0.000 C 
BRANCH  12  14
ATOM     13  O   UNL     1       3.955   1.342  17.777  0.00  0.00    +0.000 OA
ATOM     14  C   UNL     1       3.319   2.380  17.963  0.00  0.00    +0.000 C 
BRANCH  14  15
ATOM     15  C   UNL     1       2.631   2.604  19.265  0.00  0.00    +0.000 A 
ATOM     16  C   UNL     1       1.314   3.049  19.276  0.00  0.00    +0.000 A 
ATOM     17  C   UNL     1       0.705   3.285  20.505  0.00  0.00    +0.000 A 
ATOM     18  C   UNL     1       1.426   3.068  21.673  0.00  0.00    +0.000 A 
ATOM     19  C   UNL     1       2.732   2.613  21.567  0.00  0.00    +0.000 A 
ATOM     20  N   UNL     1       3.355   2.375  20.389  0.00  0.00    +0.000 NA
ENDBRANCH  14  15
ENDBRANCH  12  14
ENDBRANCH   1  12
BRANCH   2  21
ATOM     21  C   UNL     1       3.961   5.673  18.995  0.00  0.00    +0.000 C 
BRANCH  21  22
ATOM     22  C   UNL     1       2.815   6.643  18.785  0.00  0.00    +0.000 C 
ATOM     23  F   UNL     1       3.197   7.822  18.248  0.00  0.00    +0.000 F 
ATOM     24  F   UNL     1       1.854   6.123  17.990  0.00  0.00    +0.000 F 
ATOM     25  F   UNL     1       2.232   6.931  19.977  0.00  0.00    +0.000 F 
ENDBRANCH  21  22
ENDBRANCH   2  21
TORSDOF 5
ENDMDL
MODEL 5
REMARK VINA RESULT:      -7.9      4.082      5.338
REMARK  Name = 
REMARK  5 active torsions:
REMARK  status: ('A' for Active; 'I' for Inactive)
REMARK    1  A    between atoms: C_2  and  C_3
REMARK    2  A    between atoms: C_2  and  C_20
REMARK    3  A    between atoms: C_3  and  N_4
REMARK    4  A    between atoms: C_5  and  C_6
REMARK    5  A    between atoms: C_6  and  C_7
REMARK                            x       y       z     vdW  Elec       q    Type
REMARK                         _______ _______ _______ _____ _____    ______ ____
ROOT
ATOM      1  N   UNL     1       5.655   4.541  17.847  0.00  0.00    +0.000 N 
ATOM      2  C   UNL     1       6.216   5.447  18.730  0.00  0.00    +0.000 A 
ATOM      3  N   UNL     1       5.431   5.609  19.781  0.00  0.00    +0.000 NA
ATOM      4  C   UNL     1       4.371   4.764  19.607  0.00  0.00    +0.000 A 
ATOM      5  C   UNL     1       3.290   4.512  20.461  0.00  0.00    +0.000 A 
ATOM      6  C   UNL     1       2.322   3.580  20.067  0.00  0.00    +0.000 A 
ATOM      7 CL   UNL     1       1.012   3.288  21.159  0.00  0.00    +0.000 Cl
ATOM      8  C   UNL     1       2.430   2.915  18.838  0.00  0.00    +0.000 A 
ATOM      9 CL   UNL     1       1.254   1.759  18.310  0.00  0.00    +0.000 Cl
ATOM     10  C   UNL     1       3.511   3.158  17.976  0.00  0.00    +0.000 A 
ATOM     11  C   UNL     1       4.471   4.089  18.398  0.00  0.00    +0.000 A 
ENDROOT
BRANCH   1  12
ATOM     12  C   UNL     1       6.184   4.076  16.568  0.00  0.00    +0.000 C 
BRANCH  12  14
ATOM     13  O   UNL     1       5.129   6.018  15.611  0.00  0.00    +0.000 OA
ATOM     14  C   UNL     1       5.826   5.018  15.440  0.00  0.00    +0.000 C 
BRANCH  14  15
ATOM     15  C   UNL     1       6.300   4.671  14.071  0.00  0.00    +0.000 A 
ATOM     16  C   UNL     1       5.664   3.657  13.362  0.00  0.00    +0.000 A 
ATOM     17  C   UNL     1       6.148   3.328  12.100  0.00  0.00    +0.000 A 
ATOM     18  C   UNL     1       7.242   4.019  11.590  0.00  0.00    +0.000 A 
ATOM     19  C   UNL     1       7.806   5.023  12.362  0.00  0.00    +0.000 A 
ATOM     20  N   UNL     1       7.362   5.367  13.594  0.00  0.00    +0.000 NA
ENDBRANCH  14  15
ENDBRANCH  12  14
ENDBRANCH   1  12
BRANCH   2  21
ATOM     21  C   UNL     1       7.571   6.067  18.619  0.00  0.00    +0.000 C 
BRANCH  21  22
ATOM     22  C   UNL     1       7.640   7.362  17.835  0.00  0.00    +0.000 C 
ATOM     23  F   UNL     1       6.443   7.975  17.697  0.00  0.00    +0.000 F 
ATOM     24  F   UNL     1       8.491   8.248  18.398  0.00  0.00    +0.000 F 
ATOM     25  F   UNL     1       8.095   7.116  16.579  0.00  0.00    +0.000 F 
ENDBRANCH  21  22
ENDBRANCH   2  21
TORSDOF 5
ENDMDL
MODEL 6
REMARK VINA RESULT:      -7.8      2.493      4.732
REMARK  Name = 
REMARK  5 active torsions:
REMARK  status: ('A' for Active; 'I' for Inactive)
REMARK    1  A    between atoms: C_2  and  C_3
REMARK    2  A    between atoms: C_2  and  C_20
REMARK    3  A    between atoms: C_3  and  N_4
REMARK    4  A    between atoms: C_5  and  C_6
REMARK    5  A    between atoms: C_6  and  C_7
REMARK                            x       y       z     vdW  Elec       q    Type
REMARK                         _______ _______ _______ _____ _____    ______ ____
ROOT
ATOM      1  N   UNL     1       4.758   5.376  17.866  0.00  0.00    +0.000 N 
ATOM      2  C   UNL     1       5.263   5.888  16.683  0.00  0.00    +0.000 A 
ATOM      3  N   UNL     1       4.653   7.019  16.375  0.00  0.00    +0.000 NA
ATOM      4  C   UNL     1       3.776   7.275  17.391  0.00  0.00    +0.000 A 
ATOM      5  C   UNL     1       2.931   8.378  17.576  0.00  0.00    +0.000 A 
ATOM      6  C   UNL     1       2.123   8.424  18.719  0.00  0.00    +0.000 A 
ATOM      7 CL   UNL     1       1.108   9.811  18.915  0.00  0.00    +0.000 Cl
ATOM      8  C   UNL     1       2.154   7.384  19.658  0.00  0.00    +0.000 A 
ATOM      9 CL   UNL     1       1.169   7.400  21.081  0.00  0.00    +0.000 Cl
ATOM     10  C   UNL     1       2.999   6.276  19.484  0.00  0.00    +0.000 A 
ATOM     11  C   UNL     1       3.805   6.259  18.337  0.00  0.00    +0.000 A 
ENDROOT
BRANCH   1  12
ATOM     12  C   UNL     1       5.145   4.152  18.561  0.00  0.00    +0.000 C 
BRANCH  12  14
ATOM     13  O   UNL     1       4.084   2.303  17.442  0.00  0.00    +0.000 OA
ATOM     14  C   UNL     1       4.103   3.068  18.406  0.00  0.00    +0.000 C 
BRANCH  14  15
ATOM     15  C   UNL     1       3.038   2.977  19.444  0.00  0.00    +0.000 A 
ATOM     16  C   UNL     1       3.392   2.779  20.774  0.00  0.00    +0.000 A 
ATOM     17  C   UNL     1       2.378   2.662  21.719  0.00  0.00    +0.000 A 
ATOM     18  C   UNL     1       1.052   2.748  21.308  0.00  0.00    +0.000 A 
ATOM     19  C   UNL     1       0.792   2.956  19.962  0.00  0.00    +0.000 A 
ATOM     20  N   UNL     1       1.754   3.073  19.017  0.00  0.00    +0.000 NA
ENDBRANCH  14  15
ENDBRANCH  12  14
ENDBRANCH   1  12
BRANCH   2  21
ATOM     21  C   UNL     1       6.422   5.348  15.910  0.00  0.00    +0.000 C 
BRANCH  21  22
ATOM     22  C   UNL     1       6.090   4.285  14.881  0.00  0.00    +0.000 C 
ATOM     23  F   UNL     1       6.158   3.025  15.365  0.00  0.00    +0.000 F 
ATOM     24  F   UNL     1       4.855   4.457  14.359  0.00  0.00    +0.000 F 
ATOM     25  F   UNL     1       6.971   4.351  13.850  0.00  0.00    +0.000 F 
ENDBRANCH  21  22
ENDBRANCH   2  21
TORSDOF 5
ENDMDL
MODEL 7
REMARK VINA RESULT:      -7.8      1.064      1.379
REMARK  Name = 
REMARK  5 active torsions:
REMARK  status: ('A' for Active; 'I' for Inactive)
REMARK    1  A    between atoms: C_2  and  C_3
REMARK    2  A    between atoms: C_2  and  C_20
REMARK    3  A    between atoms: C_3  and  N_4
REMARK    4  A    between atoms: C_5  and  C_6
REMARK    5  A    between atoms: C_6  and  C_7
REMARK                            x       y       z     vdW  Elec       q    Type
REMARK                         _______ _______ _______ _____ _____    ______ ____
ROOT
ATOM      1  N   UNL     1       2.988   5.398  18.403  0.00  0.00    +0.000 N 
ATOM      2  C   UNL     1       2.792   4.528  19.462  0.00  0.00    +0.000 A 
ATOM      3  N   UNL     1       2.278   5.172  20.495  0.00  0.00    +0.000 NA
ATOM      4  C   UNL     1       2.090   6.464  20.093  0.00  0.00    +0.000 A 
ATOM      5  C   UNL     1       1.521   7.536  20.792  0.00  0.00    +0.000 A 
ATOM      6  C   UNL     1       1.421   8.780  20.155  0.00  0.00    +0.000 A 
ATOM      7 CL   UNL     1       0.697  10.072  21.049  0.00  0.00    +0.000 Cl
ATOM      8  C   UNL     1       1.888   8.950  18.845  0.00  0.00    +0.000 A 
ATOM      9 CL   UNL     1       1.788  10.471  18.023  0.00  0.00    +0.000 Cl
ATOM     10  C   UNL     1       2.458   7.882  18.134  0.00  0.00    +0.000 A 
ATOM     11  C   UNL     1       2.537   6.645  18.790  0.00  0.00    +0.000 A 
ENDROOT
BRANCH   1  12
ATOM     12  C   UNL     1       3.532   5.106  17.080  0.00  0.00    +0.000 C 
BRANCH  12  14
ATOM     13  O   UNL     1       5.156   3.342  16.862  0.00  0.00    +0.000 OA
ATOM     14  C   UNL     1       4.919   4.512  17.164  0.00  0.00    +0.000 C 
BRANCH  14  15
ATOM     15  C   UNL     1       6.013   5.377  17.687  0.00  0.00    +0.000 A 
ATOM     16  C   UNL     1       6.327   6.560  17.025  0.00  0.00    +0.000 A 
ATOM     17  C   UNL     1       7.376   7.333  17.513  0.00  0.00    +0.000 A 
ATOM     18  C   UNL     1       8.071   6.904  18.639  0.00  0.00    +0.000 A 
ATOM     19  C   UNL     1       7.682   5.717  19.240  0.00  0.00    +0.000 A 
ATOM     20  N   UNL     1       6.668   4.940  18.791  0.00  0.00    +0.000 NA
ENDBRANCH  14  15
ENDBRANCH  12  14
ENDBRANCH   1  12
BRANCH   2  21
ATOM     21  C   UNL     1       2.987   3.047  19.437  0.00  0.00    +0.000 C 
BRANCH  21  22
ATOM     22  C   UNL     1       1.949   2.259  18.663  0.00  0.00    +0.000 C 
ATOM     23  F   UNL     1       1.511   1.158  19.313  0.00  0.00    +0.000 F 
ATOM     24  F   UNL     1       0.868   3.011  18.359  0.00  0.00    +0.000 F 
ATOM     25  F   UNL     1       2.478   1.830  17.488  0.00  0.00    +0.000 F 
ENDBRANCH  21  22
ENDBRANCH   2  21
TORSDOF 5
ENDMDL
MODEL 8
REMARK VINA RESULT:      -7.8      0.838      1.130
REMARK  Name = 
REMARK  5 active torsions:
REMARK  status: ('A' for Active; 'I' for Inactive)
REMARK    1  A    between atoms: C_2  and  C_3
REMARK    2  A    between atoms: C_2  and  C_20
REMARK    3  A    between atoms: C_3  and  N_4
REMARK    4  A    between atoms: C_5  and  C_6
REMARK    5  A    between atoms: C_6  and  C_7
REMARK                            x       y       z     vdW  Elec       q    Type
REMARK                         _______ _______ _______ _____ _____    ______ ____
ROOT
ATOM      1  N   UNL     1       3.796   5.224  18.024  0.00  0.00    +0.000 N 
ATOM      2  C   UNL     1       3.782   4.328  19.079  0.00  0.00    +0.000 A 
ATOM      3  N   UNL     1       3.165   4.856  20.121  0.00  0.00    +0.000 NA
ATOM      4  C   UNL     1       2.728   6.089  19.729  0.00  0.00    +0.000 A 
ATOM      5  C   UNL     1       1.970   7.029  20.440  0.00  0.00    +0.000 A 
ATOM      6  C   UNL     1       1.627   8.233  19.812  0.00  0.00    +0.000 A 
ATOM      7 CL   UNL     1       0.677   9.357  20.722  0.00  0.00    +0.000 Cl
ATOM      8  C   UNL     1       2.039   8.496  18.499  0.00  0.00    +0.000 A 
ATOM      9 CL   UNL     1       1.640   9.973  17.688  0.00  0.00    +0.000 Cl
ATOM     10  C   UNL     1       2.795   7.561  17.776  0.00  0.00    +0.000 A 
ATOM     11  C   UNL     1       3.118   6.359  18.423  0.00  0.00    +0.000 A 
ENDROOT
BRANCH   1  12
ATOM     12  C   UNL     1       4.372   5.048  16.693  0.00  0.00    +0.000 C 
BRANCH  12  14
ATOM     13  O   UNL     1       5.056   6.860  15.263  0.00  0.00    +0.000 OA
ATOM     14  C   UNL     1       5.238   6.223  16.300  0.00  0.00    +0.000 C 
BRANCH  14  15
ATOM     15  C   UNL     1       6.382   6.569  17.190  0.00  0.00    +0.000 A 
ATOM     16  C   UNL     1       6.846   5.631  18.106  0.00  0.00    +0.000 A 
ATOM     17  C   UNL     1       7.892   5.991  18.950  0.00  0.00    +0.000 A 
ATOM     18  C   UNL     1       8.438   7.266  18.851  0.00  0.00    +0.000 A 
ATOM     19  C   UNL     1       7.919   8.133  17.901  0.00  0.00    +0.000 A 
ATOM     20  N   UNL     1       6.902   7.816  17.066  0.00  0.00    +0.000 NA
ENDBRANCH  14  15
ENDBRANCH  12  14
ENDBRANCH   1  12
BRANCH   2  21
ATOM     21  C   UNL     1       4.258   2.912  19.042  0.00  0.00    +0.000 C 
BRANCH  21  22
ATOM     22  C   UNL     1       3.236   1.885  18.594  0.00  0.00    +0.000 C 
ATOM     23  F   UNL     1       3.749   0.645  18.438  0.00  0.00    +0.000 F 
ATOM     24  F   UNL     1       2.201   1.794  19.458  0.00  0.00    +0.000 F 
ATOM     25  F   UNL     1       2.720   2.244  17.391  0.00  0.00    +0.000 F 
ENDBRANCH  21  22
ENDBRANCH   2  21
TORSDOF 5
ENDMDL
MODEL 9
REMARK VINA RESULT:      -7.6      3.977      6.318
REMARK  Name = 
REMARK  5 active torsions:
REMARK  status: ('A' for Active; 'I' for Inactive)
REMARK    1  A    between atoms: C_2  and  C_3
REMARK    2  A    between atoms: C_2  and  C_20
REMARK    3  A    between atoms: C_3  and  N_4
REMARK    4  A    between atoms: C_5  and  C_6
REMARK    5  A    between atoms: C_6  and  C_7
REMARK                            x       y       z     vdW  Elec       q    Type
REMARK                         _______ _______ _______ _____ _____    ______ ____
ROOT
ATOM      1  N   UNL     1       4.327   4.350  16.840  0.00  0.00    +0.000 N 
ATOM      2  C   UNL     1       4.743   5.287  17.770  0.00  0.00    +0.000 A 
ATOM      3  N   UNL     1       5.844   5.888  17.355  0.00  0.00    +0.000 NA
ATOM      4  C   UNL     1       6.124   5.375  16.120  0.00  0.00    +0.000 A 
ATOM      5  C   UNL     1       7.150   5.717  15.230  0.00  0.00    +0.000 A 
ATOM      6  C   UNL     1       7.224   5.053  13.998  0.00  0.00    +0.000 A 
ATOM      7 CL   UNL     1       8.497   5.518  12.924  0.00  0.00    +0.000 Cl
ATOM      8  C   UNL     1       6.293   4.061  13.665  0.00  0.00    +0.000 A 
ATOM      9 CL   UNL     1       6.351   3.213  12.157  0.00  0.00    +0.000 Cl
ATOM     10  C   UNL     1       5.259   3.712  14.549  0.00  0.00    +0.000 A 
ATOM     11  C   UNL     1       5.201   4.398  15.770  0.00  0.00    +0.000 A 
ENDROOT
BRANCH   1  12
ATOM     12  C   UNL     1       3.165   3.468  16.899  0.00  0.00    +0.000 C 
BRANCH  12  14
ATOM     13  O   UNL     1       3.945   1.375  17.797  0.00  0.00    +0.000 OA
ATOM     14  C   UNL     1       3.316   2.417  17.976  0.00  0.00    +0.000 C 
BRANCH  14  15
ATOM     15  C   UNL     1       2.622   2.650  19.274  0.00  0.00    +0.000 A 
ATOM     16  C   UNL     1       3.301   2.415  20.465  0.00  0.00    +0.000 A 
ATOM     17  C   UNL     1       2.620   2.606  21.663  0.00  0.00    +0.000 A 
ATOM     18  C   UNL     1       1.295   3.025  21.633  0.00  0.00    +0.000 A 
ATOM     19  C   UNL     1       0.701   3.245  20.399  0.00  0.00    +0.000 A 
ATOM     20  N   UNL     1       1.333   3.067  19.216  0.00  0.00    +0.000 NA
ENDBRANCH  14  15
ENDBRANCH  12  14
ENDBRANCH   1  12
BRANCH   2  21
ATOM     21  C   UNL     1       4.008   5.690  19.007  0.00  0.00    +0.000 C 
BRANCH  21  22
ATOM     22  C   UNL     1       2.882   6.685  18.809  0.00  0.00    +0.000 C 
ATOM     23  F   UNL     1       2.361   7.149  19.966  0.00  0.00    +0.000 F 
ATOM     24  F   UNL     1       3.274   7.753  18.080  0.00  0.00    +0.000 F 
ATOM     25  F   UNL     1       1.861   6.096  18.134  0.00  0.00    +0.000 F 
ENDBRANCH  21  22
ENDBRANCH   2  21
TORSDOF 5
ENDMDL
