MODEL 1
REMARK VINA RESULT:      -8.2      0.000      0.000
REMARK  Name = 
REMARK  11 active torsions:
REMARK  status: ('A' for Active; 'I' for Inactive)
REMARK    1  A    between atoms: C_1  and  C_2
REMARK    2  A    between atoms: C_2  and  O_3
REMARK    3  A    between atoms: O_3  and  C_4
REMARK    4  A    between atoms: C_4  and  C_6
REMARK    5  A    between atoms: C_6  and  C_7
REMARK    6  A    between atoms: C_6  and  C_8
REMARK    7  A    between atoms: C_6  and  O_9
REMARK    8  A    between atoms: O_9  and  C_10
REMARK    9  A    between atoms: C_13  and  C_14
REMARK   10  A    between atoms: C_14  and  C_16
REMARK   11  A    between atoms: C_17  and  C_18
REMARK                            x       y       z     vdW  Elec       q    Type
REMARK                         _______ _______ _______ _____ _____    ______ ____
ROOT
ATOM      1  C   UNL     1       4.389   3.938  18.669  0.00  0.00    +0.000 A 
ATOM      2  C   UNL     1       4.519   4.198  17.309  0.00  0.00    +0.000 A 
ATOM      3  C   UNL     1       5.525   5.039  16.844  0.00  0.00    +0.000 A 
ATOM      4  C   UNL     1       6.385   5.670  17.743  0.00  0.00    +0.000 A 
ATOM      5  C   UNL     1       6.234   5.454  19.116  0.00  0.00    +0.000 A 
ATOM      6  C   UNL     1       5.235   4.589  19.572  0.00  0.00    +0.000 A 
ENDROOT
BRANCH   4   7
ATOM      7  C   UNL     1       7.402   6.578  17.167  0.00  0.00    +0.000 C 
ATOM      8  O   UNL     1       7.805   6.390  16.022  0.00  0.00    +0.000 OA
BRANCH   7   9
ATOM      9  C   UNL     1       7.980   7.622  18.045  0.00  0.00    +0.000 C 
ATOM     10  C   UNL     1       7.799   8.903  17.700  0.00  0.00    +0.000 C 
BRANCH  10  11
ATOM     11  C   UNL     1       8.489  10.033  18.322  0.00  0.00    +0.000 A 
ATOM     12  C   UNL     1       9.276   9.861  19.487  0.00  0.00    +0.000 A 
ATOM     13  C   UNL     1      10.132  10.870  19.936  0.00  0.00    +0.000 A 
ATOM     14  C   UNL     1      10.206  12.011  19.176  0.00  0.00    +0.000 A 
ATOM     15  C   UNL     1       9.415  12.201  18.064  0.00  0.00    +0.000 A 
ATOM     16  C   UNL     1       8.528  11.246  17.625  0.00  0.00    +0.000 A 
ATOM     17  O   UNL     1       9.703  13.368  17.425  0.00  0.00    +0.000 OA
ATOM     18  C   UNL     1      10.942  13.700  18.082  0.00  0.00    +0.000 C 
ATOM     19  O   UNL     1      11.094  13.028  19.350  0.00  0.00    +0.000 OA
ENDBRANCH  10  11
ENDBRANCH   7   9
ENDBRANCH   4   7
BRANCH   1  20
ATOM     20  O   UNL     1       3.464   3.105  19.221  0.00  0.00    +0.000 OA
BRANCH  20  21
ATOM     21  C   UNL     1       2.071   3.477  19.294  0.00  0.00    +0.000 C 
ATOM     22  C   UNL     1       1.244   2.588  20.248  0.00  0.00    +0.000 C 
ATOM     23  C   UNL     1       1.469   3.614  17.890  0.00  0.00    +0.000 C 
BRANCH  21  24
ATOM     24  C   UNL     1       2.067   4.877  19.955  0.00  0.00    +0.000 C 
ATOM     25  O   UNL     1       2.112   5.105  21.155  0.00  0.00    +0.000 OA
BRANCH  24  26
ATOM     26  O   UNL     1       1.870   5.838  18.997  0.00  0.00    +0.000 OA
BRANCH  26  28
ATOM     27  C   UNL     1       2.965   7.702  17.965  0.00  0.00    +0.000 C 
ATOM     28  C   UNL     1       2.461   7.112  19.273  0.00  0.00    +0.000 C 
ENDBRANCH  26  28
ENDBRANCH  24  26
ENDBRANCH  21  24
ENDBRANCH  20  21
ENDBRANCH   1  20
TORSDOF 8
ENDMDL
MODEL 2
REMARK VINA RESULT:      -8.2      1.350      2.246
REMARK  Name = 
REMARK  11 active torsions:
REMARK  status: ('A' for Active; 'I' for Inactive)
REMARK    1  A    between atoms: C_1  and  C_2
REMARK    2  A    between atoms: C_2  and  O_3
REMARK    3  A    between atoms: O_3  and  C_4
REMARK    4  A    between atoms: C_4  and  C_6
REMARK    5  A    between atoms: C_6  and  C_7
REMARK    6  A    between atoms: C_6  and  C_8
REMARK    7  A    between atoms: C_6  and  O_9
REMARK    8  A    between atoms: O_9  and  C_10
REMARK    9  A    between atoms: C_13  and  C_14
REMARK   10  A    between atoms: C_14  and  C_16
REMARK   11  A    between atoms: C_17  and  C_18
REMARK                            x       y       z     vdW  Elec       q    Type
REMARK                         _______ _______ _______ _____ _____    ______ ____
ROOT
ATOM      1  C   UNL     1       4.199   4.976  18.664  0.00  0.00    +0.000 A 
ATOM      2  C   UNL     1       5.499   4.610  18.996  0.00  0.00    +0.000 A 
ATOM      3  C   UNL     1       6.580   5.369  18.562  0.00  0.00    +0.000 A 
ATOM      4  C   UNL     1       6.375   6.481  17.743  0.00  0.00    +0.000 A 
ATOM      5  C   UNL     1       5.076   6.831  17.362  0.00  0.00    +0.000 A 
ATOM      6  C   UNL     1       3.994   6.075  17.824  0.00  0.00    +0.000 A 
ENDROOT
BRANCH   4   7
ATOM      7  C   UNL     1       7.581   7.209  17.294  0.00  0.00    +0.000 C 
ATOM      8  O   UNL     1       8.105   6.915  16.222  0.00  0.00    +0.000 OA
BRANCH   7   9
ATOM      9  C   UNL     1       8.180   8.201  18.218  0.00  0.00    +0.000 C 
ATOM     10  C   UNL     1       8.171   9.488  17.850  0.00  0.00    +0.000 C 
BRANCH  10  11
ATOM     11  C   UNL     1       8.914  10.549  18.530  0.00  0.00    +0.000 A 
ATOM     12  C   UNL     1       9.299  10.421  19.888  0.00  0.00    +0.000 A 
ATOM     13  C   UNL     1      10.215  11.303  20.465  0.00  0.00    +0.000 A 
ATOM     14  C   UNL     1      10.756  12.266  19.649  0.00  0.00    +0.000 A 
ATOM     15  C   UNL     1      10.358  12.421  18.339  0.00  0.00    +0.000 A 
ATOM     16  C   UNL     1       9.423  11.598  17.756  0.00  0.00    +0.000 A 
ATOM     17  O   UNL     1      11.072  13.387  17.698  0.00  0.00    +0.000 OA
ATOM     18  C   UNL     1      12.132  13.574  18.656  0.00  0.00    +0.000 C 
ATOM     19  O   UNL     1      11.777  13.105  19.974  0.00  0.00    +0.000 OA
ENDBRANCH  10  11
ENDBRANCH   7   9
ENDBRANCH   4   7
BRANCH   1  20
ATOM     20  O   UNL     1       3.074   4.324  19.067  0.00  0.00    +0.000 OA
BRANCH  20  21
ATOM     21  C   UNL     1       2.567   3.185  18.339  0.00  0.00    +0.000 C 
ATOM     22  C   UNL     1       3.403   1.903  18.538  0.00  0.00    +0.000 C 
ATOM     23  C   UNL     1       2.318   3.545  16.869  0.00  0.00    +0.000 C 
BRANCH  21  24
ATOM     24  C   UNL     1       1.200   2.871  18.992  0.00  0.00    +0.000 C 
ATOM     25  O   UNL     1       0.331   2.147  18.530  0.00  0.00    +0.000 OA
BRANCH  24  26
ATOM     26  O   UNL     1       1.043   3.635  20.120  0.00  0.00    +0.000 OA
BRANCH  26  28
ATOM     27  C   UNL     1       2.445   2.760  21.855  0.00  0.00    +0.000 C 
ATOM     28  C   UNL     1       1.017   2.912  21.355  0.00  0.00    +0.000 C 
ENDBRANCH  26  28
ENDBRANCH  24  26
ENDBRANCH  21  24
ENDBRANCH  20  21
ENDBRANCH   1  20
TORSDOF 8
ENDMDL
MODEL 3
REMARK VINA RESULT:      -8.1      3.102      6.930
REMARK  Name = 
REMARK  11 active torsions:
REMARK  status: ('A' for Active; 'I' for Inactive)
REMARK    1  A    between atoms: C_1  and  C_2
REMARK    2  A    between atoms: C_2  and  O_3
REMARK    3  A    between atoms: O_3  and  C_4
REMARK    4  A    between atoms: C_4  and  C_6
REMARK    5  A    between atoms: C_6  and  C_7
REMARK    6  A    between atoms: C_6  and  C_8
REMARK    7  A    between atoms: C_6  and  O_9
REMARK    8  A    between atoms: O_9  and  C_10
REMARK    9  A    between atoms: C_13  and  C_14
REMARK   10  A    between atoms: C_14  and  C_16
REMARK   11  A    between atoms: C_17  and  C_18
REMARK                            x       y       z     vdW  Elec       q    Type
REMARK                         _______ _______ _______ _____ _____    ______ ____
ROOT
ATOM      1  C   UNL     1       4.581   3.857  17.227  0.00  0.00    +0.000 A 
ATOM      2  C   UNL     1       3.198   3.734  17.142  0.00  0.00    +0.000 A 
ATOM      3  C   UNL     1       2.399   3.949  18.260  0.00  0.00    +0.000 A 
ATOM      4  C   UNL     1       2.982   4.243  19.494  0.00  0.00    +0.000 A 
ATOM      5  C   UNL     1       4.374   4.322  19.603  0.00  0.00    +0.000 A 
ATOM      6  C   UNL     1       5.166   4.127  18.468  0.00  0.00    +0.000 A 
ENDROOT
BRANCH   4   7
ATOM      7  C   UNL     1       2.063   4.420  20.639  0.00  0.00    +0.000 C 
ATOM      8  O   UNL     1       1.924   3.509  21.453  0.00  0.00    +0.000 OA
BRANCH   7   9
ATOM      9  C   UNL     1       1.254   5.660  20.699  0.00  0.00    +0.000 C 
ATOM     10  C   UNL     1       1.860   6.818  20.413  0.00  0.00    +0.000 C 
BRANCH  10  11
ATOM     11  C   UNL     1       1.274   8.139  20.644  0.00  0.00    +0.000 A 
ATOM     12  C   UNL     1       0.811   8.521  21.927  0.00  0.00    +0.000 A 
ATOM     13  C   UNL     1       0.488   9.850  22.212  0.00  0.00    +0.000 A 
ATOM     14  C   UNL     1       0.682  10.769  21.210  0.00  0.00    +0.000 A 
ATOM     15  C   UNL     1       1.094  10.400  19.949  0.00  0.00    +0.000 A 
ATOM     16  C   UNL     1       1.373   9.093  19.624  0.00  0.00    +0.000 A 
ATOM     17  O   UNL     1       1.286  11.475  19.137  0.00  0.00    +0.000 OA
ATOM     18  C   UNL     1       1.248  12.526  20.122  0.00  0.00    +0.000 C 
ATOM     19  O   UNL     1       0.586  12.121  21.339  0.00  0.00    +0.000 OA
ENDBRANCH  10  11
ENDBRANCH   7   9
ENDBRANCH   4   7
BRANCH   1  20
ATOM     20  O   UNL     1       5.446   3.702  16.187  0.00  0.00    +0.000 OA
BRANCH  20  21
ATOM     21  C   UNL     1       6.014   4.844  15.509  0.00  0.00    +0.000 C 
ATOM     22  C   UNL     1       5.093   6.083  15.511  0.00  0.00    +0.000 C 
ATOM     23  C   UNL     1       6.530   4.451  14.119  0.00  0.00    +0.000 C 
BRANCH  21  24
ATOM     24  C   UNL     1       7.231   5.254  16.372  0.00  0.00    +0.000 C 
ATOM     25  O   UNL     1       8.077   4.498  16.827  0.00  0.00    +0.000 OA
BRANCH  24  26
ATOM     26  O   UNL     1       7.155   6.590  16.670  0.00  0.00    +0.000 OA
BRANCH  26  28
ATOM     27  C   UNL     1       7.995   8.496  17.855  0.00  0.00    +0.000 C 
ATOM     28  C   UNL     1       7.800   6.988  17.885  0.00  0.00    +0.000 C 
ENDBRANCH  26  28
ENDBRANCH  24  26
ENDBRANCH  21  24
ENDBRANCH  20  21
ENDBRANCH   1  20
TORSDOF 8
ENDMDL
MODEL 4
REMARK VINA RESULT:      -8.0      1.588      2.581
REMARK  Name = 
REMARK  11 active torsions:
REMARK  status: ('A' for Active; 'I' for Inactive)
REMARK    1  A    between atoms: C_1  and  C_2
REMARK    2  A    between atoms: C_2  and  O_3
REMARK    3  A    between atoms: O_3  and  C_4
REMARK    4  A    between atoms: C_4  and  C_6
REMARK    5  A    between atoms: C_6  and  C_7
REMARK    6  A    between atoms: C_6  and  C_8
REMARK    7  A    between atoms: C_6  and  O_9
REMARK    8  A    between atoms: O_9  and  C_10
REMARK    9  A    between atoms: C_13  and  C_14
REMARK   10  A    between atoms: C_14  and  C_16
REMARK   11  A    between atoms: C_17  and  C_18
REMARK                            x       y       z     vdW  Elec       q    Type
REMARK                         _______ _______ _______ _____ _____    ______ ____
ROOT
ATOM      1  C   UNL     1       4.131   4.942  18.671  0.00  0.00    +0.000 A 
ATOM      2  C   UNL     1       3.997   6.091  17.899  0.00  0.00    +0.000 A 
ATOM      3  C   UNL     1       5.122   6.785  17.466  0.00  0.00    +0.000 A 
ATOM      4  C   UNL     1       6.398   6.363  17.843  0.00  0.00    +0.000 A 
ATOM      5  C   UNL     1       6.542   5.236  18.659  0.00  0.00    +0.000 A 
ATOM      6  C   UNL     1       5.406   4.532  19.070  0.00  0.00    +0.000 A 
ENDROOT
BRANCH   4   7
ATOM      7  C   UNL     1       7.537   7.179  17.371  0.00  0.00    +0.000 C 
ATOM      8  O   UNL     1       8.035   6.950  16.271  0.00  0.00    +0.000 OA
BRANCH   7   9
ATOM      9  C   UNL     1       8.110   8.180  18.302  0.00  0.00    +0.000 C 
ATOM     10  C   UNL     1       8.468   9.369  17.802  0.00  0.00    +0.000 C 
BRANCH  10  11
ATOM     11  C   UNL     1       9.248  10.371  18.528  0.00  0.00    +0.000 A 
ATOM     12  C   UNL     1      10.001  11.355  17.840  0.00  0.00    +0.000 A 
ATOM     13  C   UNL     1      10.537  12.456  18.512  0.00  0.00    +0.000 A 
ATOM     14  C   UNL     1      10.264  12.562  19.854  0.00  0.00    +0.000 A 
ATOM     15  C   UNL     1       9.567  11.591  20.538  0.00  0.00    +0.000 A 
ATOM     16  C   UNL     1       9.069  10.471  19.913  0.00  0.00    +0.000 A 
ATOM     17  O   UNL     1       9.353  11.933  21.838  0.00  0.00    +0.000 OA
ATOM     18  C   UNL     1       9.717  13.326  21.780  0.00  0.00    +0.000 C 
ATOM     19  O   UNL     1      10.551  13.633  20.643  0.00  0.00    +0.000 OA
ENDBRANCH  10  11
ENDBRANCH   7   9
ENDBRANCH   4   7
BRANCH   1  20
ATOM     20  O   UNL     1       3.098   4.173  19.115  0.00  0.00    +0.000 OA
BRANCH  20  21
ATOM     21  C   UNL     1       2.609   3.057  18.340  0.00  0.00    +0.000 C 
ATOM     22  C   UNL     1       3.398   1.751  18.575  0.00  0.00    +0.000 C 
ATOM     23  C   UNL     1       2.463   3.441  16.863  0.00  0.00    +0.000 C 
BRANCH  21  24
ATOM     24  C   UNL     1       1.196   2.772  18.902  0.00  0.00    +0.000 C 
ATOM     25  O   UNL     1       0.332   2.093  18.365  0.00  0.00    +0.000 OA
BRANCH  24  26
ATOM     26  O   UNL     1       0.997   3.506  20.043  0.00  0.00    +0.000 OA
BRANCH  26  28
ATOM     27  C   UNL     1       2.344   2.875  21.921  0.00  0.00    +0.000 C 
ATOM     28  C   UNL     1       0.979   2.756  21.262  0.00  0.00    +0.000 C 
ENDBRANCH  26  28
ENDBRANCH  24  26
ENDBRANCH  21  24
ENDBRANCH  20  21
ENDBRANCH   1  20
TORSDOF 8
ENDMDL
MODEL 5
REMARK VINA RESULT:      -7.8      4.497      7.768
REMARK  Name = 
REMARK  11 active torsions:
REMARK  status: ('A' for Active; 'I' for Inactive)
REMARK    1  A    between atoms: C_1  and  C_2
REMARK    2  A    between atoms: C_2  and  O_3
REMARK    3  A    between atoms: O_3  and  C_4
REMARK    4  A    between atoms: C_4  and  C_6
REMARK    5  A    between atoms: C_6  and  C_7
REMARK    6  A    between atoms: C_6  and  C_8
REMARK    7  A    between atoms: C_6  and  O_9
REMARK    8  A    between atoms: O_9  and  C_10
REMARK    9  A    between atoms: C_13  and  C_14
REMARK   10  A    between atoms: C_14  and  C_16
REMARK   11  A    between atoms: C_17  and  C_18
REMARK                            x       y       z     vdW  Elec       q    Type
REMARK                         _______ _______ _______ _____ _____    ______ ____
ROOT
ATOM      1  C   UNL     1       4.531   4.214  17.207  0.00  0.00    +0.000 A 
ATOM      2  C   UNL     1       3.152   4.085  17.087  0.00  0.00    +0.000 A 
ATOM      3  C   UNL     1       2.330   4.214  18.202  0.00  0.00    +0.000 A 
ATOM      4  C   UNL     1       2.887   4.425  19.464  0.00  0.00    +0.000 A 
ATOM      5  C   UNL     1       4.275   4.509  19.605  0.00  0.00    +0.000 A 
ATOM      6  C   UNL     1       5.091   4.401  18.475  0.00  0.00    +0.000 A 
ENDROOT
BRANCH   4   7
ATOM      7  C   UNL     1       1.945   4.512  20.602  0.00  0.00    +0.000 C 
ATOM      8  O   UNL     1       1.663   3.498  21.236  0.00  0.00    +0.000 OA
BRANCH   7   9
ATOM      9  C   UNL     1       1.288   5.814  20.863  0.00  0.00    +0.000 C 
ATOM     10  C   UNL     1       1.799   6.905  20.279  0.00  0.00    +0.000 C 
BRANCH  10  11
ATOM     11  C   UNL     1       1.417   8.278  20.609  0.00  0.00    +0.000 A 
ATOM     12  C   UNL     1       1.178   9.237  19.593  0.00  0.00    +0.000 A 
ATOM     13  C   UNL     1       0.575  10.462  19.885  0.00  0.00    +0.000 A 
ATOM     14  C   UNL     1       0.185  10.674  21.185  0.00  0.00    +0.000 A 
ATOM     15  C   UNL     1       0.448   9.763  22.184  0.00  0.00    +0.000 A 
ATOM     16  C   UNL     1       1.084   8.569  21.937  0.00  0.00    +0.000 A 
ATOM     17  O   UNL     1      -0.086  10.143  23.377  0.00  0.00    +0.000 OA
ATOM     18  C   UNL     1      -0.948  11.205  22.924  0.00  0.00    +0.000 C 
ATOM     19  O   UNL     1      -0.560  11.721  21.633  0.00  0.00    +0.000 OA
ENDBRANCH  10  11
ENDBRANCH   7   9
ENDBRANCH   4   7
BRANCH   1  20
ATOM     20  O   UNL     1       5.417   4.141  16.175  0.00  0.00    +0.000 OA
BRANCH  20  21
ATOM     21  C   UNL     1       6.150   5.304  15.734  0.00  0.00    +0.000 C 
ATOM     22  C   UNL     1       7.342   5.664  16.646  0.00  0.00    +0.000 C 
ATOM     23  C   UNL     1       5.199   6.475  15.457  0.00  0.00    +0.000 C 
BRANCH  21  24
ATOM     24  C   UNL     1       6.793   4.882  14.391  0.00  0.00    +0.000 C 
ATOM     25  O   UNL     1       7.858   5.285  13.946  0.00  0.00    +0.000 OA
BRANCH  24  26
ATOM     26  O   UNL     1       5.925   4.079  13.697  0.00  0.00    +0.000 OA
BRANCH  26  28
ATOM     27  C   UNL     1       5.835   2.428  11.963  0.00  0.00    +0.000 C 
ATOM     28  C   UNL     1       6.267   3.840  12.328  0.00  0.00    +0.000 C 
ENDBRANCH  26  28
ENDBRANCH  24  26
ENDBRANCH  21  24
ENDBRANCH  20  21
ENDBRANCH   1  20
TORSDOF 8
ENDMDL
MODEL 6
REMARK VINA RESULT:      -7.6      0.853      1.512
REMARK  Name = 
REMARK  11 active torsions:
REMARK  status: ('A' for Active; 'I' for Inactive)
REMARK    1  A    between atoms: C_1  and  C_2
REMARK    2  A    between atoms: C_2  and  O_3
REMARK    3  A    between atoms: O_3  and  C_4
REMARK    4  A    between atoms: C_4  and  C_6
REMARK    5  A    between atoms: C_6  and  C_7
REMARK    6  A    between atoms: C_6  and  C_8
REMARK    7  A    between atoms: C_6  and  O_9
REMARK    8  A    between atoms: O_9  and  C_10
REMARK    9  A    between atoms: C_13  and  C_14
REMARK   10  A    between atoms: C_14  and  C_16
REMARK   11  A    between atoms: C_17  and  C_18
REMARK                            x       y       z     vdW  Elec       q    Type
REMARK                         _______ _______ _______ _____ _____    ______ ____
ROOT
ATOM      1  C   UNL     1       4.270   4.048  18.789  0.00  0.00    +0.000 A 
ATOM      2  C   UNL     1       4.406   4.168  17.410  0.00  0.00    +0.000 A 
ATOM      3  C   UNL     1       5.429   4.937  16.865  0.00  0.00    +0.000 A 
ATOM      4  C   UNL     1       6.302   5.638  17.699  0.00  0.00    +0.000 A 
ATOM      5  C   UNL     1       6.146   5.563  19.086  0.00  0.00    +0.000 A 
ATOM      6  C   UNL     1       5.129   4.769  19.624  0.00  0.00    +0.000 A 
ENDROOT
BRANCH   4   7
ATOM      7  C   UNL     1       7.337   6.462  17.038  0.00  0.00    +0.000 C 
ATOM      8  O   UNL     1       7.660   6.217  15.877  0.00  0.00    +0.000 OA
BRANCH   7   9
ATOM      9  C   UNL     1       8.030   7.491  17.848  0.00  0.00    +0.000 C 
ATOM     10  C   UNL     1       7.739   8.776  17.611  0.00  0.00    +0.000 C 
BRANCH  10  11
ATOM     11  C   UNL     1       8.490   9.909  18.154  0.00  0.00    +0.000 A 
ATOM     12  C   UNL     1       8.547  11.148  17.468  0.00  0.00    +0.000 A 
ATOM     13  C   UNL     1       9.041  12.296  18.091  0.00  0.00    +0.000 A 
ATOM     14  C   UNL     1       9.425  12.179  19.405  0.00  0.00    +0.000 A 
ATOM     15  C   UNL     1       9.409  10.970  20.066  0.00  0.00    +0.000 A 
ATOM     16  C   UNL     1       8.973   9.813  19.464  0.00  0.00    +0.000 A 
ATOM     17  O   UNL     1       9.763  11.098  21.374  0.00  0.00    +0.000 OA
ATOM     18  C   UNL     1       9.690  12.531  21.501  0.00  0.00    +0.000 C 
ATOM     19  O   UNL     1       9.772  13.205  20.228  0.00  0.00    +0.000 OA
ENDBRANCH  10  11
ENDBRANCH   7   9
ENDBRANCH   4   7
BRANCH   1  20
ATOM     20  O   UNL     1       3.328   3.294  19.420  0.00  0.00    +0.000 OA
BRANCH  20  21
ATOM     21  C   UNL     1       1.941   3.693  19.443  0.00  0.00    +0.000 C 
ATOM     22  C   UNL     1       1.094   2.925  20.480  0.00  0.00    +0.000 C 
ATOM     23  C   UNL     1       1.350   3.690  18.028  0.00  0.00    +0.000 C 
BRANCH  21  24
ATOM     24  C   UNL     1       1.957   5.155  19.950  0.00  0.00    +0.000 C 
ATOM     25  O   UNL     1       2.015   5.510  21.118  0.00  0.00    +0.000 OA
BRANCH  24  26
ATOM     26  O   UNL     1       1.763   6.011  18.896  0.00  0.00    +0.000 OA
BRANCH  26  28
ATOM     27  C   UNL     1       3.201   7.693  17.978  0.00  0.00    +0.000 C 
ATOM     28  C   UNL     1       2.228   7.350  19.096  0.00  0.00    +0.000 C 
ENDBRANCH  26  28
ENDBRANCH  24  26
ENDBRANCH  21  24
ENDBRANCH  20  21
ENDBRANCH   1  20
TORSDOF 8
ENDMDL
MODEL 7
REMARK VINA RESULT:      -7.6      5.560      9.756
REMARK  Name = 
REMARK  11 active torsions:
REMARK  status: ('A' for Active; 'I' for Inactive)
REMARK    1  A    between atoms: C_1  and  C_2
REMARK    2  A    between atoms: C_2  and  O_3
REMARK    3  A    between atoms: O_3  and  C_4
REMARK    4  A    between atoms: C_4  and  C_6
REMARK    5  A    between atoms: C_6  and  C_7
REMARK    6  A    between atoms: C_6  and  C_8
REMARK    7  A    between atoms: C_6  and  O_9
REMARK    8  A    between atoms: O_9  and  C_10
REMARK    9  A    between atoms: C_13  and  C_14
REMARK   10  A    between atoms: C_14  and  C_16
REMARK   11  A    between atoms: C_17  and  C_18
REMARK                            x       y       z     vdW  Elec       q    Type
REMARK                         _______ _______ _______ _____ _____    ______ ____
ROOT
ATOM      1  C   UNL     1       2.649   6.835  19.321  0.00  0.00    +0.000 A 
ATOM      2  C   UNL     1       1.882   7.391  20.339  0.00  0.00    +0.000 A 
ATOM      3  C   UNL     1       1.213   8.595  20.143  0.00  0.00    +0.000 A 
ATOM      4  C   UNL     1       1.346   9.284  18.937  0.00  0.00    +0.000 A 
ATOM      5  C   UNL     1       2.153   8.760  17.923  0.00  0.00    +0.000 A 
ATOM      6  C   UNL     1       2.802   7.537  18.122  0.00  0.00    +0.000 A 
ENDROOT
BRANCH   4   7
ATOM      7  C   UNL     1       0.633  10.575  18.825  0.00  0.00    +0.000 C 
ATOM      8  O   UNL     1       1.182  11.608  19.203  0.00  0.00    +0.000 OA
BRANCH   7   9
ATOM      9  C   UNL     1      -0.774  10.556  18.360  0.00  0.00    +0.000 C 
ATOM     10  C   UNL     1      -1.477  11.692  18.439  0.00  0.00    +0.000 C 
BRANCH  10  11
ATOM     11  C   UNL     1      -2.923  11.787  18.239  0.00  0.00    +0.000 A 
ATOM     12  C   UNL     1      -3.529  11.343  17.037  0.00  0.00    +0.000 A 
ATOM     13  C   UNL     1      -4.914  11.196  16.938  0.00  0.00    +0.000 A 
ATOM     14  C   UNL     1      -5.653  11.456  18.066  0.00  0.00    +0.000 A 
ATOM     15  C   UNL     1      -5.076  11.924  19.226  0.00  0.00    +0.000 A 
ATOM     16  C   UNL     1      -3.720  12.125  19.339  0.00  0.00    +0.000 A 
ATOM     17  O   UNL     1      -5.982  12.046  20.235  0.00  0.00    +0.000 OA
ATOM     18  C   UNL     1      -7.082  11.318  19.657  0.00  0.00    +0.000 C 
ATOM     19  O   UNL     1      -6.983  11.213  18.221  0.00  0.00    +0.000 OA
ENDBRANCH  10  11
ENDBRANCH   7   9
ENDBRANCH   4   7
BRANCH   1  20
ATOM     20  O   UNL     1       3.312   5.648  19.399  0.00  0.00    +0.000 OA
BRANCH  20  21
ATOM     21  C   UNL     1       2.664   4.405  19.056  0.00  0.00    +0.000 C 
ATOM     22  C   UNL     1       1.674   4.529  17.878  0.00  0.00    +0.000 C 
ATOM     23  C   UNL     1       2.070   3.738  20.303  0.00  0.00    +0.000 C 
BRANCH  21  24
ATOM     24  C   UNL     1       3.799   3.498  18.524  0.00  0.00    +0.000 C 
ATOM     25  O   UNL     1       4.571   2.838  19.205  0.00  0.00    +0.000 OA
BRANCH  24  26
ATOM     26  O   UNL     1       3.905   3.641  17.165  0.00  0.00    +0.000 OA
BRANCH  26  28
ATOM     27  C   UNL     1       5.065   5.449  16.104  0.00  0.00    +0.000 C 
ATOM     28  C   UNL     1       5.190   4.049  16.686  0.00  0.00    +0.000 C 
ENDBRANCH  26  28
ENDBRANCH  24  26
ENDBRANCH  21  24
ENDBRANCH  20  21
ENDBRANCH   1  20
TORSDOF 8
ENDMDL
MODEL 8
REMARK VINA RESULT:      -7.5      5.430      9.650
REMARK  Name = 
REMARK  11 active torsions:
REMARK  status: ('A' for Active; 'I' for Inactive)
REMARK    1  A    between atoms: C_1  and  C_2
REMARK    2  A    between atoms: C_2  and  O_3
REMARK    3  A    between atoms: O_3  and  C_4
REMARK    4  A    between atoms: C_4  and  C_6
REMARK    5  A    between atoms: C_6  and  C_7
REMARK    6  A    between atoms: C_6  and  C_8
REMARK    7  A    between atoms: C_6  and  O_9
REMARK    8  A    between atoms: O_9  and  C_10
REMARK    9  A    between atoms: C_13  and  C_14
REMARK   10  A    between atoms: C_14  and  C_16
REMARK   11  A    between atoms: C_17  and  C_18
REMARK                            x       y       z     vdW  Elec       q    Type
REMARK                         _______ _______ _______ _____ _____    ______ ____
ROOT
ATOM      1  C   UNL     1       3.119   6.853  18.624  0.00  0.00    +0.000 A 
ATOM      2  C   UNL     1       2.910   7.831  17.658  0.00  0.00    +0.000 A 
ATOM      3  C   UNL     1       2.128   8.946  17.939  0.00  0.00    +0.000 A 
ATOM      4  C   UNL     1       1.501   9.070  19.180  0.00  0.00    +0.000 A 
ATOM      5  C   UNL     1       1.664   8.069  20.143  0.00  0.00    +0.000 A 
ATOM      6  C   UNL     1       2.472   6.964  19.858  0.00  0.00    +0.000 A 
ENDROOT
BRANCH   4   7
ATOM      7  C   UNL     1       0.656  10.267  19.383  0.00  0.00    +0.000 C 
ATOM      8  O   UNL     1       1.085  11.209  20.046  0.00  0.00    +0.000 OA
BRANCH   7   9
ATOM      9  C   UNL     1      -0.732  10.235  18.866  0.00  0.00    +0.000 C 
ATOM     10  C   UNL     1      -1.282  11.390  18.472  0.00  0.00    +0.000 C 
BRANCH  10  11
ATOM     11  C   UNL     1      -2.700  11.568  18.157  0.00  0.00    +0.000 A 
ATOM     12  C   UNL     1      -3.242  11.104  16.933  0.00  0.00    +0.000 A 
ATOM     13  C   UNL     1      -4.623  11.041  16.733  0.00  0.00    +0.000 A 
ATOM     14  C   UNL     1      -5.425  11.405  17.787  0.00  0.00    +0.000 A 
ATOM     15  C   UNL     1      -4.906  11.894  18.965  0.00  0.00    +0.000 A 
ATOM     16  C   UNL     1      -3.551  12.013  19.174  0.00  0.00    +0.000 A 
ATOM     17  O   UNL     1      -5.874  12.126  19.894  0.00  0.00    +0.000 OA
ATOM     18  C   UNL     1      -6.975  11.441  19.266  0.00  0.00    +0.000 C 
ATOM     19  O   UNL     1      -6.776  11.257  17.848  0.00  0.00    +0.000 OA
ENDBRANCH  10  11
ENDBRANCH   7   9
ENDBRANCH   4   7
BRANCH   1  20
ATOM     20  O   UNL     1       3.894   5.745  18.461  0.00  0.00    +0.000 OA
BRANCH  20  21
ATOM     21  C   UNL     1       3.324   4.488  18.036  0.00  0.00    +0.000 C 
ATOM     22  C   UNL     1       3.943   3.940  16.732  0.00  0.00    +0.000 C 
ATOM     23  C   UNL     1       1.792   4.563  18.017  0.00  0.00    +0.000 C 
BRANCH  21  24
ATOM     24  C   UNL     1       3.739   3.473  19.129  0.00  0.00    +0.000 C 
ATOM     25  O   UNL     1       4.882   3.125  19.389  0.00  0.00    +0.000 OA
BRANCH  24  26
ATOM     26  O   UNL     1       2.619   2.913  19.686  0.00  0.00    +0.000 OA
BRANCH  26  28
ATOM     27  C   UNL     1       1.299   2.786  21.681  0.00  0.00    +0.000 C 
ATOM     28  C   UNL     1       2.695   2.654  21.092  0.00  0.00    +0.000 C 
ENDBRANCH  26  28
ENDBRANCH  24  26
ENDBRANCH  21  24
ENDBRANCH  20  21
ENDBRANCH   1  20
TORSDOF 8
ENDMDL
MODEL 9
REMARK VINA RESULT:      -7.5      5.647      9.784
REMARK  Name = 
REMARK  11 active torsions:
REMARK  status: ('A' for Active; 'I' for Inactive)
REMARK    1  A    between atoms: C_1  and  C_2
REMARK    2  A    between atoms: C_2  and  O_3
REMARK    3  A    between atoms: O_3  and  C_4
REMARK    4  A    between atoms: C_4  and  C_6
REMARK    5  A    between atoms: C_6  and  C_7
REMARK    6  A    between atoms: C_6  and  C_8
REMARK    7  A    between atoms: C_6  and  O_9
REMARK    8  A    between atoms: O_9  and  C_10
REMARK    9  A    between atoms: C_13  and  C_14
REMARK   10  A    between atoms: C_14  and  C_16
REMARK   11  A    between atoms: C_17  and  C_18
REMARK                            x       y       z     vdW  Elec       q    Type
REMARK                         _______ _______ _______ _____ _____    ______ ____
ROOT
ATOM      1  C   UNL     1       2.666   6.980  19.341  0.00  0.00    +0.000 A 
ATOM      2  C   UNL     1       2.675   7.614  18.104  0.00  0.00    +0.000 A 
ATOM      3  C   UNL     1       1.988   8.809  17.918  0.00  0.00    +0.000 A 
ATOM      4  C   UNL     1       1.240   9.360  18.960  0.00  0.00    +0.000 A 
ATOM      5  C   UNL     1       1.184   8.706  20.194  0.00  0.00    +0.000 A 
ATOM      6  C   UNL     1       1.897   7.518  20.378  0.00  0.00    +0.000 A 
ENDROOT
BRANCH   4   7
ATOM      7  C   UNL     1       0.509  10.612  18.666  0.00  0.00    +0.000 C 
ATOM      8  O   UNL     1       1.113  11.683  18.667  0.00  0.00    +0.000 OA
BRANCH   7   9
ATOM      9  C   UNL     1      -0.960  10.535  18.489  0.00  0.00    +0.000 C 
ATOM     10  C   UNL     1      -1.643  11.683  18.402  0.00  0.00    +0.000 C 
BRANCH  10  11
ATOM     11  C   UNL     1      -3.101  11.786  18.455  0.00  0.00    +0.000 A 
ATOM     12  C   UNL     1      -3.916  11.175  17.470  0.00  0.00    +0.000 A 
ATOM     13  C   UNL     1      -5.296  11.053  17.649  0.00  0.00    +0.000 A 
ATOM     14  C   UNL     1      -5.816  11.509  18.836  0.00  0.00    +0.000 A 
ATOM     15  C   UNL     1      -5.036  12.139  19.781  0.00  0.00    +0.000 A 
ATOM     16  C   UNL     1      -3.683  12.318  19.612  0.00  0.00    +0.000 A 
ATOM     17  O   UNL     1      -5.742  12.446  20.904  0.00  0.00    +0.000 OA
ATOM     18  C   UNL     1      -6.928  11.666  20.660  0.00  0.00    +0.000 C 
ATOM     19  O   UNL     1      -7.095  11.332  19.266  0.00  0.00    +0.000 OA
ENDBRANCH  10  11
ENDBRANCH   7   9
ENDBRANCH   4   7
BRANCH   1  20
ATOM     20  O   UNL     1       3.332   5.830  19.636  0.00  0.00    +0.000 OA
BRANCH  20  21
ATOM     21  C   UNL     1       2.779   4.538  19.306  0.00  0.00    +0.000 C 
ATOM     22  C   UNL     1       1.782   4.576  18.128  0.00  0.00    +0.000 C 
ATOM     23  C   UNL     1       2.237   3.841  20.560  0.00  0.00    +0.000 C 
BRANCH  21  24
ATOM     24  C   UNL     1       3.979   3.713  18.782  0.00  0.00    +0.000 C 
ATOM     25  O   UNL     1       4.939   3.342  19.442  0.00  0.00    +0.000 OA
BRANCH  24  26
ATOM     26  O   UNL     1       3.879   3.565  17.423  0.00  0.00    +0.000 OA
BRANCH  26  28
ATOM     27  C   UNL     1       5.067   5.373  16.394  0.00  0.00    +0.000 C 
ATOM     28  C   UNL     1       5.061   3.879  16.680  0.00  0.00    +0.000 C 
ENDBRANCH  26  28
ENDBRANCH  24  26
ENDBRANCH  21  24
ENDBRANCH  20  21
ENDBRANCH   1  20
TORSDOF 8
ENDMDL
