MODEL 1
REMARK VINA RESULT:      -6.1      0.000      0.000
REMARK  Name = 
REMARK  6 active torsions:
REMARK  status: ('A' for Active; 'I' for Inactive)
REMARK    1  A    between atoms: C_1  and  C_2
REMARK    2  A    between atoms: C_2  and  C_3
REMARK    3  A    between atoms: C_3  and  C_4
REMARK    4  A    between atoms: C_4  and  N_5
REMARK    5  A    between atoms: N_5  and  C_6
REMARK    6  A    between atoms: C_12  and  O_13
REMARK                            x       y       z     vdW  Elec       q    Type
REMARK                         _______ _______ _______ _____ _____    ______ ____
ROOT
ATOM      1  C   UNL     1       4.067   3.420  19.505  0.00  0.00    +0.000 C 
ATOM      2  C   UNL     1       3.367   4.771  19.809  0.00  0.00    +0.000 C 
ATOM      3  C   UNL     1       2.199   4.738  20.805  0.00  0.00    +0.000 C 
ATOM      4  C   UNL     1       1.265   3.528  20.823  0.00  0.00    +0.000 C 
ATOM      5  C   UNL     1       0.851   2.971  19.461  0.00  0.00    +0.000 C 
ATOM      6  C   UNL     1       1.915   2.010  18.898  0.00  0.00    +0.000 C 
ATOM      7  C   UNL     1       3.262   2.608  18.443  0.00  0.00    +0.000 C 
ENDROOT
BRANCH   1   8
ATOM      8  N   UNL     1       5.432   3.642  18.960  0.00  0.00    +0.000 NA
ATOM      9  H   UNL     1       6.117   3.083  19.523  0.00  0.00    +0.000 HD
BRANCH   8  10
ATOM     10  C   UNL     1       5.919   5.039  18.960  0.00  0.00    +0.000 C 
BRANCH  10  11
ATOM     11  C   UNL     1       7.312   5.203  18.321  0.00  0.00    +0.000 C 
BRANCH  11  13
ATOM     12  C   UNL     1       7.641   7.584  17.575  0.00  0.00    +0.000 C 
ATOM     13  C   UNL     1       7.926   6.561  18.670  0.00  0.00    +0.000 C 
ENDBRANCH  11  13
ENDBRANCH  10  11
ENDBRANCH   8  10
ENDBRANCH   1   8
BRANCH   7  14
ATOM     14  O   UNL     1       3.139   3.330  17.238  0.00  0.00    +0.000 OA
ATOM     15  H   UNL     1       2.416   4.002  17.336  0.00  0.00    +0.000 HD
ENDBRANCH   7  14
TORSDOF 5
ENDMDL
MODEL 2
REMARK VINA RESULT:      -6.0      1.641      2.121
REMARK  Name = 
REMARK  6 active torsions:
REMARK  status: ('A' for Active; 'I' for Inactive)
REMARK    1  A    between atoms: C_1  and  C_2
REMARK    2  A    between atoms: C_2  and  C_3
REMARK    3  A    between atoms: C_3  and  C_4
REMARK    4  A    between atoms: C_4  and  N_5
REMARK    5  A    between atoms: N_5  and  C_6
REMARK    6  A    between atoms: C_12  and  O_13
REMARK                            x       y       z     vdW  Elec       q    Type
REMARK                         _______ _______ _______ _____ _____    ______ ____
ROOT
ATOM      1  C   UNL     1       4.595   3.758  18.862  0.00  0.00    +0.000 C 
ATOM      2  C   UNL     1       4.053   3.213  17.514  0.00  0.00    +0.000 C 
ATOM      3  C   UNL     1       2.553   3.395  17.245  0.00  0.00    +0.000 C 
ATOM      4  C   UNL     1       1.565   3.287  18.407  0.00  0.00    +0.000 C 
ATOM      5  C   UNL     1       1.819   2.163  19.410  0.00  0.00    +0.000 C 
ATOM      6  C   UNL     1       2.860   2.575  20.468  0.00  0.00    +0.000 C 
ATOM      7  C   UNL     1       4.325   2.742  20.016  0.00  0.00    +0.000 C 
ENDROOT
BRANCH   1   8
ATOM      8  N   UNL     1       6.062   3.980  18.793  0.00  0.00    +0.000 NA
ATOM      9  H   UNL     1       6.528   3.407  19.537  0.00  0.00    +0.000 HD
BRANCH   8  10
ATOM     10  C   UNL     1       6.525   5.373  18.976  0.00  0.00    +0.000 C 
BRANCH  10  11
ATOM     11  C   UNL     1       6.140   6.307  17.813  0.00  0.00    +0.000 C 
BRANCH  11  13
ATOM     12  C   UNL     1       7.877   8.128  17.792  0.00  0.00    +0.000 C 
ATOM     13  C   UNL     1       7.382   6.856  17.108  0.00  0.00    +0.000 C 
ENDBRANCH  11  13
ENDBRANCH  10  11
ENDBRANCH   8  10
ENDBRANCH   1   8
BRANCH   7  14
ATOM     14  O   UNL     1       4.942   1.501  19.754  0.00  0.00    +0.000 OA
ATOM     15  H   UNL     1       5.432   1.559  18.895  0.00  0.00    +0.000 HD
ENDBRANCH   7  14
TORSDOF 5
ENDMDL
MODEL 3
REMARK VINA RESULT:      -6.0      1.991      2.615
REMARK  Name = 
REMARK  6 active torsions:
REMARK  status: ('A' for Active; 'I' for Inactive)
REMARK    1  A    between atoms: C_1  and  C_2
REMARK    2  A    between atoms: C_2  and  C_3
REMARK    3  A    between atoms: C_3  and  C_4
REMARK    4  A    between atoms: C_4  and  N_5
REMARK    5  A    between atoms: N_5  and  C_6
REMARK    6  A    between atoms: C_12  and  O_13
REMARK                            x       y       z     vdW  Elec       q    Type
REMARK                         _______ _______ _______ _____ _____    ______ ____
ROOT
ATOM      1  C   UNL     1       4.607   3.765  18.717  0.00  0.00    +0.000 C 
ATOM      2  C   UNL     1       3.993   3.099  17.458  0.00  0.00    +0.000 C 
ATOM      3  C   UNL     1       2.484   3.283  17.241  0.00  0.00    +0.000 C 
ATOM      4  C   UNL     1       1.552   3.312  18.453  0.00  0.00    +0.000 C 
ATOM      5  C   UNL     1       1.836   2.288  19.552  0.00  0.00    +0.000 C 
ATOM      6  C   UNL     1       2.933   2.783  20.513  0.00  0.00    +0.000 C 
ATOM      7  C   UNL     1       4.377   2.875  19.979  0.00  0.00    +0.000 C 
ENDROOT
BRANCH   1   8
ATOM      8  N   UNL     1       6.073   3.949  18.558  0.00  0.00    +0.000 NA
ATOM      9  H   UNL     1       6.486   4.203  19.487  0.00  0.00    +0.000 HD
BRANCH   8  10
ATOM     10  C   UNL     1       6.503   4.992  17.601  0.00  0.00    +0.000 C 
BRANCH  10  11
ATOM     11  C   UNL     1       5.579   6.225  17.580  0.00  0.00    +0.000 C 
BRANCH  11  13
ATOM     12  C   UNL     1       5.581   5.469  15.180  0.00  0.00    +0.000 C 
ATOM     13  C   UNL     1       5.094   6.531  16.161  0.00  0.00    +0.000 C 
ENDBRANCH  11  13
ENDBRANCH  10  11
ENDBRANCH   8  10
ENDBRANCH   1   8
BRANCH   7  14
ATOM     14  O   UNL     1       4.962   1.602  19.815  0.00  0.00    +0.000 OA
ATOM     15  H   UNL     1       4.415   0.931  20.298  0.00  0.00    +0.000 HD
ENDBRANCH   7  14
TORSDOF 5
ENDMDL
MODEL 4
REMARK VINA RESULT:      -5.9      1.056      1.359
REMARK  Name = 
REMARK  6 active torsions:
REMARK  status: ('A' for Active; 'I' for Inactive)
REMARK    1  A    between atoms: C_1  and  C_2
REMARK    2  A    between atoms: C_2  and  C_3
REMARK    3  A    between atoms: C_3  and  C_4
REMARK    4  A    between atoms: C_4  and  N_5
REMARK    5  A    between atoms: N_5  and  C_6
REMARK    6  A    between atoms: C_12  and  O_13
REMARK                            x       y       z     vdW  Elec       q    Type
REMARK                         _______ _______ _______ _____ _____    ______ ____
ROOT
ATOM      1  C   UNL     1       4.101   3.392  19.563  0.00  0.00    +0.000 C 
ATOM      2  C   UNL     1       3.451   4.796  19.673  0.00  0.00    +0.000 C 
ATOM      3  C   UNL     1       2.256   4.935  20.628  0.00  0.00    +0.000 C 
ATOM      4  C   UNL     1       1.271   3.774  20.767  0.00  0.00    +0.000 C 
ATOM      5  C   UNL     1       0.870   3.066  19.473  0.00  0.00    +0.000 C 
ATOM      6  C   UNL     1       1.908   2.001  19.068  0.00  0.00    +0.000 C 
ATOM      7  C   UNL     1       3.291   2.485  18.585  0.00  0.00    +0.000 C 
ENDROOT
BRANCH   1   8
ATOM      8  N   UNL     1       5.488   3.490  19.039  0.00  0.00    +0.000 NA
ATOM      9  H   UNL     1       6.150   3.106  19.755  0.00  0.00    +0.000 HD
BRANCH   8  10
ATOM     10  C   UNL     1       5.967   4.849  18.701  0.00  0.00    +0.000 C 
BRANCH  10  11
ATOM     11  C   UNL     1       7.197   4.853  17.773  0.00  0.00    +0.000 C 
BRANCH  11  13
ATOM     12  C   UNL     1       5.608   5.317  15.877  0.00  0.00    +0.000 C 
ATOM     13  C   UNL     1       6.809   4.494  16.336  0.00  0.00    +0.000 C 
ENDBRANCH  11  13
ENDBRANCH  10  11
ENDBRANCH   8  10
ENDBRANCH   1   8
BRANCH   7  14
ATOM     14  O   UNL     1       3.231   3.053  17.296  0.00  0.00    +0.000 OA
ATOM     15  H   UNL     1       2.734   3.909  17.344  0.00  0.00    +0.000 HD
ENDBRANCH   7  14
TORSDOF 5
ENDMDL
MODEL 5
REMARK VINA RESULT:      -5.9      1.937      2.246
REMARK  Name = 
REMARK  6 active torsions:
REMARK  status: ('A' for Active; 'I' for Inactive)
REMARK    1  A    between atoms: C_1  and  C_2
REMARK    2  A    between atoms: C_2  and  C_3
REMARK    3  A    between atoms: C_3  and  C_4
REMARK    4  A    between atoms: C_4  and  N_5
REMARK    5  A    between atoms: N_5  and  C_6
REMARK    6  A    between atoms: C_12  and  O_13
REMARK                            x       y       z     vdW  Elec       q    Type
REMARK                         _______ _______ _______ _____ _____    ______ ____
ROOT
ATOM      1  C   UNL     1       4.419   3.948  19.276  0.00  0.00    +0.000 C 
ATOM      2  C   UNL     1       3.377   4.161  18.147  0.00  0.00    +0.000 C 
ATOM      3  C   UNL     1       2.007   4.718  18.562  0.00  0.00    +0.000 C 
ATOM      4  C   UNL     1       1.404   4.297  19.902  0.00  0.00    +0.000 C 
ATOM      5  C   UNL     1       1.540   2.821  20.274  0.00  0.00    +0.000 C 
ATOM      6  C   UNL     1       2.909   2.526  20.915  0.00  0.00    +0.000 C 
ATOM      7  C   UNL     1       4.161   2.599  20.017  0.00  0.00    +0.000 C 
ENDROOT
BRANCH   1   8
ATOM      8  N   UNL     1       5.797   3.901  18.723  0.00  0.00    +0.000 NA
ATOM      9  H   UNL     1       6.482   4.029  19.506  0.00  0.00    +0.000 HD
BRANCH   8  10
ATOM     10  C   UNL     1       6.128   4.914  17.697  0.00  0.00    +0.000 C 
BRANCH  10  11
ATOM     11  C   UNL     1       7.340   4.533  16.826  0.00  0.00    +0.000 C 
BRANCH  11  13
ATOM     12  C   UNL     1       5.529   4.942  15.127  0.00  0.00    +0.000 C 
ATOM     13  C   UNL     1       7.014   4.659  15.336  0.00  0.00    +0.000 C 
ENDBRANCH  11  13
ENDBRANCH  10  11
ENDBRANCH   8  10
ENDBRANCH   1   8
BRANCH   7  14
ATOM     14  O   UNL     1       4.236   1.508  19.127  0.00  0.00    +0.000 OA
ATOM     15  H   UNL     1       4.123   1.840  18.199  0.00  0.00    +0.000 HD
ENDBRANCH   7  14
TORSDOF 5
ENDMDL
MODEL 6
REMARK VINA RESULT:      -5.9      2.016      5.257
REMARK  Name = 
REMARK  6 active torsions:
REMARK  status: ('A' for Active; 'I' for Inactive)
REMARK    1  A    between atoms: C_1  and  C_2
REMARK    2  A    between atoms: C_2  and  C_3
REMARK    3  A    between atoms: C_3  and  C_4
REMARK    4  A    between atoms: C_4  and  N_5
REMARK    5  A    between atoms: N_5  and  C_6
REMARK    6  A    between atoms: C_12  and  O_13
REMARK                            x       y       z     vdW  Elec       q    Type
REMARK                         _______ _______ _______ _____ _____    ______ ____
ROOT
ATOM      1  C   UNL     1       5.406   4.326  18.481  0.00  0.00    +0.000 C 
ATOM      2  C   UNL     1       4.393   5.448  18.832  0.00  0.00    +0.000 C 
ATOM      3  C   UNL     1       4.035   6.434  17.711  0.00  0.00    +0.000 C 
ATOM      4  C   UNL     1       5.111   6.850  16.708  0.00  0.00    +0.000 C 
ATOM      5  C   UNL     1       6.497   7.141  17.283  0.00  0.00    +0.000 C 
ATOM      6  C   UNL     1       7.314   5.849  17.465  0.00  0.00    +0.000 C 
ATOM      7  C   UNL     1       6.871   4.860  18.564  0.00  0.00    +0.000 C 
ENDROOT
BRANCH   1   8
ATOM      8  N   UNL     1       5.289   3.190  19.432  0.00  0.00    +0.000 NA
ATOM      9  H   UNL     1       5.768   2.353  19.022  0.00  0.00    +0.000 HD
BRANCH   8  10
ATOM     10  C   UNL     1       3.915   2.766  19.782  0.00  0.00    +0.000 C 
BRANCH  10  11
ATOM     11  C   UNL     1       3.213   1.976  18.661  0.00  0.00    +0.000 C 
BRANCH  11  13
ATOM     12  C   UNL     1       1.420   3.638  18.063  0.00  0.00    +0.000 C 
ATOM     13  C   UNL     1       1.708   2.256  18.644  0.00  0.00    +0.000 C 
ENDBRANCH  11  13
ENDBRANCH  10  11
ENDBRANCH   8  10
ENDBRANCH   1   8
BRANCH   7  14
ATOM     14  O   UNL     1       7.164   5.341  19.857  0.00  0.00    +0.000 OA
ATOM     15  H   UNL     1       7.423   4.578  20.434  0.00  0.00    +0.000 HD
ENDBRANCH   7  14
TORSDOF 5
ENDMDL
MODEL 7
REMARK VINA RESULT:      -5.8      2.473      2.748
REMARK  Name = 
REMARK  6 active torsions:
REMARK  status: ('A' for Active; 'I' for Inactive)
REMARK    1  A    between atoms: C_1  and  C_2
REMARK    2  A    between atoms: C_2  and  C_3
REMARK    3  A    between atoms: C_3  and  C_4
REMARK    4  A    between atoms: C_4  and  N_5
REMARK    5  A    between atoms: N_5  and  C_6
REMARK    6  A    between atoms: C_12  and  O_13
REMARK                            x       y       z     vdW  Elec       q    Type
REMARK                         _______ _______ _______ _____ _____    ______ ____
ROOT
ATOM      1  C   UNL     1       3.707   3.583  18.488  0.00  0.00    +0.000 C 
ATOM      2  C   UNL     1       2.770   4.726  18.014  0.00  0.00    +0.000 C 
ATOM      3  C   UNL     1       2.169   5.627  19.102  0.00  0.00    +0.000 C 
ATOM      4  C   UNL     1       1.782   5.016  20.449  0.00  0.00    +0.000 C 
ATOM      5  C   UNL     1       1.084   3.658  20.403  0.00  0.00    +0.000 C 
ATOM      6  C   UNL     1       2.099   2.505  20.290  0.00  0.00    +0.000 C 
ATOM      7  C   UNL     1       2.875   2.351  18.965  0.00  0.00    +0.000 C 
ENDROOT
BRANCH   1   8
ATOM      8  N   UNL     1       4.589   3.128  17.383  0.00  0.00    +0.000 NA
ATOM      9  H   UNL     1       5.511   2.831  17.784  0.00  0.00    +0.000 HD
BRANCH   8  10
ATOM     10  C   UNL     1       4.885   4.122  16.327  0.00  0.00    +0.000 C 
BRANCH  10  11
ATOM     11  C   UNL     1       6.340   4.067  15.822  0.00  0.00    +0.000 C 
BRANCH  11  13
ATOM     12  C   UNL     1       6.066   3.759  13.340  0.00  0.00    +0.000 C 
ATOM     13  C   UNL     1       6.474   4.726  14.448  0.00  0.00    +0.000 C 
ENDBRANCH  11  13
ENDBRANCH  10  11
ENDBRANCH   8  10
ENDBRANCH   1   8
BRANCH   7  14
ATOM     14  O   UNL     1       2.057   1.858  17.928  0.00  0.00    +0.000 OA
ATOM     15  H   UNL     1       1.144   2.230  18.033  0.00  0.00    +0.000 HD
ENDBRANCH   7  14
TORSDOF 5
ENDMDL
MODEL 8
REMARK VINA RESULT:      -5.8      4.243      5.671
REMARK  Name = 
REMARK  6 active torsions:
REMARK  status: ('A' for Active; 'I' for Inactive)
REMARK    1  A    between atoms: C_1  and  C_2
REMARK    2  A    between atoms: C_2  and  C_3
REMARK    3  A    between atoms: C_3  and  C_4
REMARK    4  A    between atoms: C_4  and  N_5
REMARK    5  A    between atoms: N_5  and  C_6
REMARK    6  A    between atoms: C_12  and  O_13
REMARK                            x       y       z     vdW  Elec       q    Type
REMARK                         _______ _______ _______ _____ _____    ______ ____
ROOT
ATOM      1  C   UNL     1       6.156   5.376  16.030  0.00  0.00    +0.000 C 
ATOM      2  C   UNL     1       5.108   4.297  16.411  0.00  0.00    +0.000 C 
ATOM      3  C   UNL     1       4.088   4.673  17.496  0.00  0.00    +0.000 C 
ATOM      4  C   UNL     1       4.529   5.560  18.661  0.00  0.00    +0.000 C 
ATOM      5  C   UNL     1       5.898   5.254  19.266  0.00  0.00    +0.000 C 
ATOM      6  C   UNL     1       7.030   5.924  18.464  0.00  0.00    +0.000 C 
ATOM      7  C   UNL     1       7.335   5.383  17.052  0.00  0.00    +0.000 C 
ENDROOT
BRANCH   1   8
ATOM      8  N   UNL     1       6.728   5.107  14.685  0.00  0.00    +0.000 NA
ATOM      9  H   UNL     1       6.457   5.885  14.039  0.00  0.00    +0.000 HD
BRANCH   8  10
ATOM     10  C   UNL     1       6.309   3.846  14.034  0.00  0.00    +0.000 C 
BRANCH  10  11
ATOM     11  C   UNL     1       6.453   3.870  12.500  0.00  0.00    +0.000 C 
BRANCH  11  13
ATOM     12  C   UNL     1       5.828   1.706  11.377  0.00  0.00    +0.000 C 
ATOM     13  C   UNL     1       5.332   3.078  11.825  0.00  0.00    +0.000 C 
ENDBRANCH  11  13
ENDBRANCH  10  11
ENDBRANCH   8  10
ENDBRANCH   1   8
BRANCH   7  14
ATOM     14  O   UNL     1       7.979   4.129  17.094  0.00  0.00    +0.000 OA
ATOM     15  H   UNL     1       8.599   4.110  17.867  0.00  0.00    +0.000 HD
ENDBRANCH   7  14
TORSDOF 5
ENDMDL
MODEL 9
REMARK VINA RESULT:      -5.8      2.283      2.741
REMARK  Name = 
REMARK  6 active torsions:
REMARK  status: ('A' for Active; 'I' for Inactive)
REMARK    1  A    between atoms: C_1  and  C_2
REMARK    2  A    between atoms: C_2  and  C_3
REMARK    3  A    between atoms: C_3  and  C_4
REMARK    4  A    between atoms: C_4  and  N_5
REMARK    5  A    between atoms: N_5  and  C_6
REMARK    6  A    between atoms: C_12  and  O_13
REMARK                            x       y       z     vdW  Elec       q    Type
REMARK                         _______ _______ _______ _____ _____    ______ ____
ROOT
ATOM      1  C   UNL     1       4.036   3.811  18.519  0.00  0.00    +0.000 C 
ATOM      2  C   UNL     1       2.831   3.516  17.588  0.00  0.00    +0.000 C 
ATOM      3  C   UNL     1       1.444   3.942  18.092  0.00  0.00    +0.000 C 
ATOM      4  C   UNL     1       1.125   3.837  19.583  0.00  0.00    +0.000 C 
ATOM      5  C   UNL     1       1.612   2.574  20.294  0.00  0.00    +0.000 C 
ATOM      6  C   UNL     1       3.086   2.702  20.723  0.00  0.00    +0.000 C 
ATOM      7  C   UNL     1       4.164   2.712  19.620  0.00  0.00    +0.000 C 
ENDROOT
BRANCH   1   8
ATOM      8  N   UNL     1       5.308   3.828  17.751  0.00  0.00    +0.000 NA
ATOM      9  H   UNL     1       6.041   3.316  18.297  0.00  0.00    +0.000 HD
BRANCH   8  10
ATOM     10  C   UNL     1       5.866   5.161  17.434  0.00  0.00    +0.000 C 
BRANCH  10  11
ATOM     11  C   UNL     1       5.702   5.559  15.954  0.00  0.00    +0.000 C 
BRANCH  11  13
ATOM     12  C   UNL     1       6.428   4.174  13.983  0.00  0.00    +0.000 C 
ATOM     13  C   UNL     1       5.385   4.341  15.084  0.00  0.00    +0.000 C 
ENDBRANCH  11  13
ENDBRANCH  10  11
ENDBRANCH   8  10
ENDBRANCH   1   8
BRANCH   7  14
ATOM     14  O   UNL     1       4.343   1.436  19.045  0.00  0.00    +0.000 OA
ATOM     15  H   UNL     1       4.956   0.908  19.617  0.00  0.00    +0.000 HD
ENDBRANCH   7  14
TORSDOF 5
ENDMDL
