MODEL 1
REMARK VINA RESULT:      -8.7      0.000      0.000
REMARK  Name = 
REMARK  7 active torsions:
REMARK  status: ('A' for Active; 'I' for Inactive)
REMARK    1  A    between atoms: C_5  and  N_6
REMARK    2  A    between atoms: N_6  and  C_7
REMARK    3  A    between atoms: C_10  and  S_11
REMARK    4  A    between atoms: S_11  and  N_14
REMARK    5  A    between atoms: N_14  and  C_15
REMARK    6  A    between atoms: C_15  and  C_16
REMARK    7  A    between atoms: C_16  and  C_17
REMARK                            x       y       z     vdW  Elec       q    Type
REMARK                         _______ _______ _______ _____ _____    ______ ____
ROOT
ATOM      1  C   UNL     1       1.989   7.102  19.998  0.00  0.00    +0.000 A 
ATOM      2  C   UNL     1       2.293   6.782  18.667  0.00  0.00    +0.000 A 
ATOM      3  C   UNL     1       2.110   5.483  18.182  0.00  0.00    +0.000 A 
ATOM      4  C   UNL     1       1.656   4.477  19.037  0.00  0.00    +0.000 A 
ATOM      5  C   UNL     1       1.355   4.771  20.370  0.00  0.00    +0.000 A 
ATOM      6  C   UNL     1       1.535   6.077  20.844  0.00  0.00    +0.000 A 
ENDROOT
BRANCH   4   7
ATOM      7  S   UNL     1       1.480   2.812  18.435  0.00  0.00    +0.000 S 
ATOM      8  O   UNL     1       0.182   2.341  18.856  0.00  0.00    +0.000 OA
ATOM      9  O   UNL     1       1.903   2.761  17.052  0.00  0.00    +0.000 OA
BRANCH   7  10
ATOM     10  N   UNL     1       2.608   1.948  19.349  0.00  0.00    +0.000 NA
ATOM     11  H   UNL     1       2.209   1.060  19.658  0.00  0.00    +0.000 HD
BRANCH  10  12
ATOM     12  C   UNL     1       4.026   1.921  18.938  0.00  0.00    +0.000 C 
BRANCH  12  13
ATOM     13  C   UNL     1       4.814   3.100  19.501  0.00  0.00    +0.000 C 
BRANCH  13  14
ATOM     14  C   UNL     1       5.226   4.097  18.456  0.00  0.00    +0.000 A 
ATOM     15  C   UNL     1       5.018   3.805  17.100  0.00  0.00    +0.000 A 
ATOM     16  C   UNL     1       5.353   4.737  16.121  0.00  0.00    +0.000 A 
ATOM     17  C   UNL     1       5.908   5.960  16.488  0.00  0.00    +0.000 A 
ATOM     18  C   UNL     1       6.130   6.251  17.833  0.00  0.00    +0.000 A 
ATOM     19  C   UNL     1       5.795   5.319  18.818  0.00  0.00    +0.000 A 
ENDBRANCH  13  14
ENDBRANCH  12  13
ENDBRANCH  10  12
ENDBRANCH   7  10
ENDBRANCH   4   7
BRANCH   1  20
ATOM     20  N   UNL     1       2.137   8.413  20.529  0.00  0.00    +0.000 N 
ATOM     21  H   UNL     1       3.034   8.809  20.228  0.00  0.00    +0.000 HD
BRANCH  20  26
ATOM     22  O   UNL     1      -0.805  11.571  18.378  0.00  0.00    +0.000 OA
ATOM     23  C   UNL     1      -0.410  11.012  19.396  0.00  0.00    +0.000 C 
ATOM     24  C   UNL     1       0.692  10.018  19.388  0.00  0.00    +0.000 C 
ATOM     25 CL   UNL     1       1.371   9.683  17.822  0.00  0.00    +0.000 Cl
ATOM     26  C   UNL     1       1.119   9.378  20.490  0.00  0.00    +0.000 C 
ATOM     27  C   UNL     1       0.429   9.652  21.798  0.00  0.00    +0.000 C 
ATOM     28  O   UNL     1       0.752   9.031  22.811  0.00  0.00    +0.000 OA
ATOM     29  C   UNL     1      -0.639  10.677  21.846  0.00  0.00    +0.000 A 
ATOM     30  C   UNL     1      -1.257  11.005  23.064  0.00  0.00    +0.000 A 
ATOM     31  C   UNL     1      -2.276  11.965  23.105  0.00  0.00    +0.000 A 
ATOM     32  C   UNL     1      -2.681  12.603  21.934  0.00  0.00    +0.000 A 
ATOM     33  C   UNL     1      -2.067  12.285  20.725  0.00  0.00    +0.000 A 
ATOM     34  C   UNL     1      -1.043  11.324  20.684  0.00  0.00    +0.000 A 
ENDBRANCH  20  26
ENDBRANCH   1  20
TORSDOF 7
ENDMDL
MODEL 2
REMARK VINA RESULT:      -8.6      2.841      4.385
REMARK  Name = 
REMARK  7 active torsions:
REMARK  status: ('A' for Active; 'I' for Inactive)
REMARK    1  A    between atoms: C_5  and  N_6
REMARK    2  A    between atoms: N_6  and  C_7
REMARK    3  A    between atoms: C_10  and  S_11
REMARK    4  A    between atoms: S_11  and  N_14
REMARK    5  A    between atoms: N_14  and  C_15
REMARK    6  A    between atoms: C_15  and  C_16
REMARK    7  A    between atoms: C_16  and  C_17
REMARK                            x       y       z     vdW  Elec       q    Type
REMARK                         _______ _______ _______ _____ _____    ______ ____
ROOT
ATOM      1  C   UNL     1       2.299   7.745  18.390  0.00  0.00    +0.000 A 
ATOM      2  C   UNL     1       2.509   6.807  19.410  0.00  0.00    +0.000 A 
ATOM      3  C   UNL     1       3.628   5.968  19.393  0.00  0.00    +0.000 A 
ATOM      4  C   UNL     1       4.532   6.032  18.331  0.00  0.00    +0.000 A 
ATOM      5  C   UNL     1       4.337   6.953  17.298  0.00  0.00    +0.000 A 
ATOM      6  C   UNL     1       3.217   7.795  17.328  0.00  0.00    +0.000 A 
ENDROOT
BRANCH   4   7
ATOM      7  S   UNL     1       5.922   4.923  18.279  0.00  0.00    +0.000 S 
ATOM      8  O   UNL     1       7.008   5.631  17.644  0.00  0.00    +0.000 OA
ATOM      9  O   UNL     1       6.071   4.289  19.572  0.00  0.00    +0.000 OA
BRANCH   7  10
ATOM     10  N   UNL     1       5.433   3.738  17.179  0.00  0.00    +0.000 NA
ATOM     11  H   UNL     1       6.064   2.936  17.217  0.00  0.00    +0.000 HD
BRANCH  10  12
ATOM     12  C   UNL     1       3.997   3.434  17.012  0.00  0.00    +0.000 C 
BRANCH  12  13
ATOM     13  C   UNL     1       3.571   2.202  17.804  0.00  0.00    +0.000 C 
BRANCH  13  14
ATOM     14  C   UNL     1       2.759   2.527  19.024  0.00  0.00    +0.000 A 
ATOM     15  C   UNL     1       3.342   2.411  20.295  0.00  0.00    +0.000 A 
ATOM     16  C   UNL     1       2.618   2.752  21.435  0.00  0.00    +0.000 A 
ATOM     17  C   UNL     1       1.304   3.198  21.314  0.00  0.00    +0.000 A 
ATOM     18  C   UNL     1       0.714   3.302  20.056  0.00  0.00    +0.000 A 
ATOM     19  C   UNL     1       1.438   2.962  18.911  0.00  0.00    +0.000 A 
ENDBRANCH  13  14
ENDBRANCH  12  13
ENDBRANCH  10  12
ENDBRANCH   7  10
ENDBRANCH   4   7
BRANCH   1  20
ATOM     20  N   UNL     1       1.189   8.635  18.377  0.00  0.00    +0.000 N 
ATOM     21  H   UNL     1       0.318   8.103  18.478  0.00  0.00    +0.000 HD
BRANCH  20  26
ATOM     22  O   UNL     1       0.216  11.313  22.267  0.00  0.00    +0.000 OA
ATOM     23  C   UNL     1       0.652  11.221  21.125  0.00  0.00    +0.000 C 
ATOM     24  C   UNL     1       0.649   9.945  20.366  0.00  0.00    +0.000 C 
ATOM     25 CL   UNL     1      -0.001   8.579  21.224  0.00  0.00    +0.000 Cl
ATOM     26  C   UNL     1       1.146   9.822  19.123  0.00  0.00    +0.000 C 
ATOM     27  C   UNL     1       1.772  11.025  18.473  0.00  0.00    +0.000 C 
ATOM     28  O   UNL     1       2.297  10.927  17.364  0.00  0.00    +0.000 OA
ATOM     29  C   UNL     1       1.743  12.323  19.185  0.00  0.00    +0.000 A 
ATOM     30  C   UNL     1       2.259  13.480  18.578  0.00  0.00    +0.000 A 
ATOM     31  C   UNL     1       2.243  14.704  19.259  0.00  0.00    +0.000 A 
ATOM     32  C   UNL     1       1.713  14.781  20.545  0.00  0.00    +0.000 A 
ATOM     33  C   UNL     1       1.196  13.637  21.148  0.00  0.00    +0.000 A 
ATOM     34  C   UNL     1       1.209  12.410  20.465  0.00  0.00    +0.000 A 
ENDBRANCH  20  26
ENDBRANCH   1  20
TORSDOF 7
ENDMDL
MODEL 3
REMARK VINA RESULT:      -8.5      0.797      1.312
REMARK  Name = 
REMARK  7 active torsions:
REMARK  status: ('A' for Active; 'I' for Inactive)
REMARK    1  A    between atoms: C_5  and  N_6
REMARK    2  A    between atoms: N_6  and  C_7
REMARK    3  A    between atoms: C_10  and  S_11
REMARK    4  A    between atoms: S_11  and  N_14
REMARK    5  A    between atoms: N_14  and  C_15
REMARK    6  A    between atoms: C_15  and  C_16
REMARK    7  A    between atoms: C_16  and  C_17
REMARK                            x       y       z     vdW  Elec       q    Type
REMARK                         _______ _______ _______ _____ _____    ______ ____
ROOT
ATOM      1  C   UNL     1       2.057   6.979  20.026  0.00  0.00    +0.000 A 
ATOM      2  C   UNL     1       2.337   6.560  18.717  0.00  0.00    +0.000 A 
ATOM      3  C   UNL     1       2.137   5.231  18.332  0.00  0.00    +0.000 A 
ATOM      4  C   UNL     1       1.690   4.293  19.265  0.00  0.00    +0.000 A 
ATOM      5  C   UNL     1       1.414   4.686  20.578  0.00  0.00    +0.000 A 
ATOM      6  C   UNL     1       1.610   6.022  20.953  0.00  0.00    +0.000 A 
ENDROOT
BRANCH   4   7
ATOM      7  S   UNL     1       1.493   2.590  18.790  0.00  0.00    +0.000 S 
ATOM      8  O   UNL     1       1.984   1.784  19.881  0.00  0.00    +0.000 OA
ATOM      9  O   UNL     1       0.169   2.404  18.233  0.00  0.00    +0.000 OA
BRANCH   7  10
ATOM     10  N   UNL     1       2.609   2.406  17.535  0.00  0.00    +0.000 NA
ATOM     11  H   UNL     1       2.225   2.772  16.662  0.00  0.00    +0.000 HD
BRANCH  10  12
ATOM     12  C   UNL     1       4.042   2.663  17.779  0.00  0.00    +0.000 C 
BRANCH  12  13
ATOM     13  C   UNL     1       4.653   3.577  16.721  0.00  0.00    +0.000 C 
BRANCH  13  14
ATOM     14  C   UNL     1       5.619   4.580  17.283  0.00  0.00    +0.000 A 
ATOM     15  C   UNL     1       5.841   4.628  18.667  0.00  0.00    +0.000 A 
ATOM     16  C   UNL     1       6.767   5.521  19.201  0.00  0.00    +0.000 A 
ATOM     17  C   UNL     1       7.467   6.381  18.358  0.00  0.00    +0.000 A 
ATOM     18  C   UNL     1       7.241   6.348  16.982  0.00  0.00    +0.000 A 
ATOM     19  C   UNL     1       6.314   5.453  16.444  0.00  0.00    +0.000 A 
ENDBRANCH  13  14
ENDBRANCH  12  13
ENDBRANCH  10  12
ENDBRANCH   7  10
ENDBRANCH   4   7
BRANCH   1  20
ATOM     20  N   UNL     1       2.223   8.324  20.458  0.00  0.00    +0.000 N 
ATOM     21  H   UNL     1       3.093   8.706  20.072  0.00  0.00    +0.000 HD
BRANCH  20  26
ATOM     22  O   UNL     1      -0.831  11.374  18.308  0.00  0.00    +0.000 OA
ATOM     23  C   UNL     1      -0.394  10.855  19.329  0.00  0.00    +0.000 C 
ATOM     24  C   UNL     1       0.719   9.873  19.315  0.00  0.00    +0.000 C 
ATOM     25 CL   UNL     1       1.348   9.494  17.739  0.00  0.00    +0.000 Cl
ATOM     26  C   UNL     1       1.193   9.275  20.423  0.00  0.00    +0.000 C 
ATOM     27  C   UNL     1       0.544   9.584  21.744  0.00  0.00    +0.000 C 
ATOM     28  O   UNL     1       0.909   9.002  22.765  0.00  0.00    +0.000 OA
ATOM     29  C   UNL     1      -0.534  10.599  21.795  0.00  0.00    +0.000 A 
ATOM     30  C   UNL     1      -1.115  10.960  23.022  0.00  0.00    +0.000 A 
ATOM     31  C   UNL     1      -2.143  11.909  23.067  0.00  0.00    +0.000 A 
ATOM     32  C   UNL     1      -2.596  12.503  21.891  0.00  0.00    +0.000 A 
ATOM     33  C   UNL     1      -2.020  12.152  20.673  0.00  0.00    +0.000 A 
ATOM     34  C   UNL     1      -0.986  11.202  20.627  0.00  0.00    +0.000 A 
ENDBRANCH  20  26
ENDBRANCH   1  20
TORSDOF 7
ENDMDL
MODEL 4
REMARK VINA RESULT:      -8.2      2.343      3.365
REMARK  Name = 
REMARK  7 active torsions:
REMARK  status: ('A' for Active; 'I' for Inactive)
REMARK    1  A    between atoms: C_5  and  N_6
REMARK    2  A    between atoms: N_6  and  C_7
REMARK    3  A    between atoms: C_10  and  S_11
REMARK    4  A    between atoms: S_11  and  N_14
REMARK    5  A    between atoms: N_14  and  C_15
REMARK    6  A    between atoms: C_15  and  C_16
REMARK    7  A    between atoms: C_16  and  C_17
REMARK                            x       y       z     vdW  Elec       q    Type
REMARK                         _______ _______ _______ _____ _____    ______ ____
ROOT
ATOM      1  C   UNL     1       1.532   9.338  18.652  0.00  0.00    +0.000 A 
ATOM      2  C   UNL     1       2.097   8.496  17.684  0.00  0.00    +0.000 A 
ATOM      3  C   UNL     1       2.470   7.187  18.002  0.00  0.00    +0.000 A 
ATOM      4  C   UNL     1       2.316   6.715  19.308  0.00  0.00    +0.000 A 
ATOM      5  C   UNL     1       1.764   7.540  20.292  0.00  0.00    +0.000 A 
ATOM      6  C   UNL     1       1.387   8.849  19.961  0.00  0.00    +0.000 A 
ENDROOT
BRANCH   4   7
ATOM      7  S   UNL     1       2.846   5.069  19.727  0.00  0.00    +0.000 S 
ATOM      8  O   UNL     1       4.234   5.154  20.113  0.00  0.00    +0.000 OA
ATOM      9  O   UNL     1       1.849   4.453  20.576  0.00  0.00    +0.000 OA
BRANCH   7  10
ATOM     10  N   UNL     1       2.824   4.265  18.242  0.00  0.00    +0.000 NA
ATOM     11  H   UNL     1       2.239   4.769  17.574  0.00  0.00    +0.000 HD
BRANCH  10  12
ATOM     12  C   UNL     1       4.065   3.670  17.706  0.00  0.00    +0.000 C 
BRANCH  12  13
ATOM     13  C   UNL     1       4.731   4.562  16.664  0.00  0.00    +0.000 C 
BRANCH  13  14
ATOM     14  C   UNL     1       5.864   5.380  17.214  0.00  0.00    +0.000 A 
ATOM     15  C   UNL     1       5.991   6.727  16.843  0.00  0.00    +0.000 A 
ATOM     16  C   UNL     1       7.008   7.512  17.379  0.00  0.00    +0.000 A 
ATOM     17  C   UNL     1       7.914   6.954  18.278  0.00  0.00    +0.000 A 
ATOM     18  C   UNL     1       7.802   5.613  18.641  0.00  0.00    +0.000 A 
ATOM     19  C   UNL     1       6.782   4.823  18.106  0.00  0.00    +0.000 A 
ENDBRANCH  13  14
ENDBRANCH  12  13
ENDBRANCH  10  12
ENDBRANCH   7  10
ENDBRANCH   4   7
BRANCH   1  20
ATOM     20  N   UNL     1       1.117  10.669  18.370  0.00  0.00    +0.000 N 
ATOM     21  H   UNL     1       1.271  10.876  17.378  0.00  0.00    +0.000 HD
BRANCH  20  26
ATOM     22  O   UNL     1      -1.659  13.534  21.079  0.00  0.00    +0.000 OA
ATOM     23  C   UNL     1      -1.550  12.681  20.206  0.00  0.00    +0.000 C 
ATOM     24  C   UNL     1      -0.239  12.123  19.790  0.00  0.00    +0.000 C 
ATOM     25 CL   UNL     1       1.140  12.786  20.617  0.00  0.00    +0.000 Cl
ATOM     26  C   UNL     1      -0.100  11.206  18.816  0.00  0.00    +0.000 C 
ATOM     27  C   UNL     1      -1.327  10.741  18.082  0.00  0.00    +0.000 C 
ATOM     28  O   UNL     1      -1.225   9.954  17.140  0.00  0.00    +0.000 OA
ATOM     29  C   UNL     1      -2.654  11.241  18.510  0.00  0.00    +0.000 A 
ATOM     30  C   UNL     1      -3.825  10.775  17.890  0.00  0.00    +0.000 A 
ATOM     31  C   UNL     1      -5.077  11.259  18.287  0.00  0.00    +0.000 A 
ATOM     32  C   UNL     1      -5.169  12.207  19.304  0.00  0.00    +0.000 A 
ATOM     33  C   UNL     1      -4.010  12.668  19.925  0.00  0.00    +0.000 A 
ATOM     34  C   UNL     1      -2.754  12.181  19.529  0.00  0.00    +0.000 A 
ENDBRANCH  20  26
ENDBRANCH   1  20
TORSDOF 7
ENDMDL
MODEL 5
REMARK VINA RESULT:      -8.2      2.113      2.901
REMARK  Name = 
REMARK  7 active torsions:
REMARK  status: ('A' for Active; 'I' for Inactive)
REMARK    1  A    between atoms: C_5  and  N_6
REMARK    2  A    between atoms: N_6  and  C_7
REMARK    3  A    between atoms: C_10  and  S_11
REMARK    4  A    between atoms: S_11  and  N_14
REMARK    5  A    between atoms: N_14  and  C_15
REMARK    6  A    between atoms: C_15  and  C_16
REMARK    7  A    between atoms: C_16  and  C_17
REMARK                            x       y       z     vdW  Elec       q    Type
REMARK                         _______ _______ _______ _____ _____    ______ ____
ROOT
ATOM      1  C   UNL     1       1.432   9.685  19.168  0.00  0.00    +0.000 A 
ATOM      2  C   UNL     1       1.295   8.940  20.347  0.00  0.00    +0.000 A 
ATOM      3  C   UNL     1       1.720   7.609  20.408  0.00  0.00    +0.000 A 
ATOM      4  C   UNL     1       2.253   6.995  19.273  0.00  0.00    +0.000 A 
ATOM      5  C   UNL     1       2.390   7.715  18.083  0.00  0.00    +0.000 A 
ATOM      6  C   UNL     1       1.968   9.051  18.035  0.00  0.00    +0.000 A 
ENDROOT
BRANCH   4   7
ATOM      7  S   UNL     1       2.737   5.283  19.333  0.00  0.00    +0.000 S 
ATOM      8  O   UNL     1       4.085   5.240  19.848  0.00  0.00    +0.000 OA
ATOM      9  O   UNL     1       1.665   4.508  19.921  0.00  0.00    +0.000 OA
BRANCH   7  10
ATOM     10  N   UNL     1       2.848   4.854  17.703  0.00  0.00    +0.000 NA
ATOM     11  H   UNL     1       2.818   5.688  17.114  0.00  0.00    +0.000 HD
BRANCH  10  12
ATOM     12  C   UNL     1       3.778   3.788  17.282  0.00  0.00    +0.000 C 
BRANCH  12  13
ATOM     13  C   UNL     1       4.843   4.297  16.316  0.00  0.00    +0.000 C 
BRANCH  13  14
ATOM     14  C   UNL     1       5.880   5.162  16.972  0.00  0.00    +0.000 A 
ATOM     15  C   UNL     1       5.914   6.536  16.694  0.00  0.00    +0.000 A 
ATOM     16  C   UNL     1       6.840   7.360  17.328  0.00  0.00    +0.000 A 
ATOM     17  C   UNL     1       7.747   6.815  18.233  0.00  0.00    +0.000 A 
ATOM     18  C   UNL     1       7.729   5.448  18.504  0.00  0.00    +0.000 A 
ATOM     19  C   UNL     1       6.801   4.619  17.871  0.00  0.00    +0.000 A 
ENDBRANCH  13  14
ENDBRANCH  12  13
ENDBRANCH  10  12
ENDBRANCH   7  10
ENDBRANCH   4   7
BRANCH   1  20
ATOM     20  N   UNL     1       1.036  11.047  19.066  0.00  0.00    +0.000 N 
ATOM     21  H   UNL     1       1.253  11.401  18.128  0.00  0.00    +0.000 HD
BRANCH  20  26
ATOM     22  O   UNL     1      -3.739  11.676  18.816  0.00  0.00    +0.000 OA
ATOM     23  C   UNL     1      -2.675  11.854  19.397  0.00  0.00    +0.000 C 
ATOM     24  C   UNL     1      -1.380  11.356  18.871  0.00  0.00    +0.000 C 
ATOM     25 CL   UNL     1      -1.482  10.478  17.373  0.00  0.00    +0.000 Cl
ATOM     26  C   UNL     1      -0.208  11.522  19.509  0.00  0.00    +0.000 C 
ATOM     27  C   UNL     1      -0.204  12.215  20.844  0.00  0.00    +0.000 C 
ATOM     28  O   UNL     1       0.842  12.321  21.484  0.00  0.00    +0.000 OA
ATOM     29  C   UNL     1      -1.473  12.769  21.369  0.00  0.00    +0.000 A 
ATOM     30  C   UNL     1      -1.492  13.481  22.580  0.00  0.00    +0.000 A 
ATOM     31  C   UNL     1      -2.695  13.992  23.082  0.00  0.00    +0.000 A 
ATOM     32  C   UNL     1      -3.884  13.797  22.381  0.00  0.00    +0.000 A 
ATOM     33  C   UNL     1      -3.868  13.095  21.177  0.00  0.00    +0.000 A 
ATOM     34  C   UNL     1      -2.661  12.585  20.672  0.00  0.00    +0.000 A 
ENDBRANCH  20  26
ENDBRANCH   1  20
TORSDOF 7
ENDMDL
MODEL 6
REMARK VINA RESULT:      -8.1      1.441      2.538
REMARK  Name = 
REMARK  7 active torsions:
REMARK  status: ('A' for Active; 'I' for Inactive)
REMARK    1  A    between atoms: C_5  and  N_6
REMARK    2  A    between atoms: N_6  and  C_7
REMARK    3  A    between atoms: C_10  and  S_11
REMARK    4  A    between atoms: S_11  and  N_14
REMARK    5  A    between atoms: N_14  and  C_15
REMARK    6  A    between atoms: C_15  and  C_16
REMARK    7  A    between atoms: C_16  and  C_17
REMARK                            x       y       z     vdW  Elec       q    Type
REMARK                         _______ _______ _______ _____ _____    ______ ____
ROOT
ATOM      1  C   UNL     1       2.017   7.011  19.535  0.00  0.00    +0.000 A 
ATOM      2  C   UNL     1       1.835   6.167  20.640  0.00  0.00    +0.000 A 
ATOM      3  C   UNL     1       1.688   4.787  20.471  0.00  0.00    +0.000 A 
ATOM      4  C   UNL     1       1.682   4.238  19.187  0.00  0.00    +0.000 A 
ATOM      5  C   UNL     1       1.852   5.061  18.070  0.00  0.00    +0.000 A 
ATOM      6  C   UNL     1       2.006   6.443  18.251  0.00  0.00    +0.000 A 
ENDROOT
BRANCH   4   7
ATOM      7  S   UNL     1       1.435   2.489  18.969  0.00  0.00    +0.000 S 
ATOM      8  O   UNL     1       1.914   1.839  20.164  0.00  0.00    +0.000 OA
ATOM      9  O   UNL     1       0.101   2.261  18.453  0.00  0.00    +0.000 OA
BRANCH   7  10
ATOM     10  N   UNL     1       2.533   2.091  17.749  0.00  0.00    +0.000 NA
ATOM     11  H   UNL     1       2.124   2.273  16.831  0.00  0.00    +0.000 HD
BRANCH  10  12
ATOM     12  C   UNL     1       3.963   2.424  17.906  0.00  0.00    +0.000 C 
BRANCH  12  13
ATOM     13  C   UNL     1       4.438   3.436  16.868  0.00  0.00    +0.000 C 
BRANCH  13  14
ATOM     14  C   UNL     1       5.470   4.392  17.395  0.00  0.00    +0.000 A 
ATOM     15  C   UNL     1       6.253   5.131  16.496  0.00  0.00    +0.000 A 
ATOM     16  C   UNL     1       7.182   6.055  16.967  0.00  0.00    +0.000 A 
ATOM     17  C   UNL     1       7.344   6.238  18.338  0.00  0.00    +0.000 A 
ATOM     18  C   UNL     1       6.578   5.498  19.237  0.00  0.00    +0.000 A 
ATOM     19  C   UNL     1       5.645   4.571  18.768  0.00  0.00    +0.000 A 
ENDBRANCH  13  14
ENDBRANCH  12  13
ENDBRANCH  10  12
ENDBRANCH   7  10
ENDBRANCH   4   7
BRANCH   1  20
ATOM     20  N   UNL     1       2.193   8.417  19.659  0.00  0.00    +0.000 N 
ATOM     21  H   UNL     1       2.670   8.781  18.827  0.00  0.00    +0.000 HD
BRANCH  20  26
ATOM     22  O   UNL     1      -0.308  10.975  22.893  0.00  0.00    +0.000 OA
ATOM     23  C   UNL     1      -0.128  10.615  21.735  0.00  0.00    +0.000 C 
ATOM     24  C   UNL     1       0.948   9.670  21.347  0.00  0.00    +0.000 C 
ATOM     25 CL   UNL     1       1.955   9.122  22.655  0.00  0.00    +0.000 Cl
ATOM     26  C   UNL     1       1.174   9.286  20.078  0.00  0.00    +0.000 C 
ATOM     27  C   UNL     1       0.320   9.866  18.984  0.00  0.00    +0.000 C 
ATOM     28  O   UNL     1       0.547   9.587  17.807  0.00  0.00    +0.000 OA
ATOM     29  C   UNL     1      -0.795  10.771  19.348  0.00  0.00    +0.000 A 
ATOM     30  C   UNL     1      -1.653  11.277  18.357  0.00  0.00    +0.000 A 
ATOM     31  C   UNL     1      -2.697  12.143  18.700  0.00  0.00    +0.000 A 
ATOM     32  C   UNL     1      -2.893  12.509  20.030  0.00  0.00    +0.000 A 
ATOM     33  C   UNL     1      -2.048  12.005  21.017  0.00  0.00    +0.000 A 
ATOM     34  C   UNL     1      -1.001  11.134  20.673  0.00  0.00    +0.000 A 
ENDBRANCH  20  26
ENDBRANCH   1  20
TORSDOF 7
ENDMDL
MODEL 7
REMARK VINA RESULT:      -8.1      0.392      1.269
REMARK  Name = 
REMARK  7 active torsions:
REMARK  status: ('A' for Active; 'I' for Inactive)
REMARK    1  A    between atoms: C_5  and  N_6
REMARK    2  A    between atoms: N_6  and  C_7
REMARK    3  A    between atoms: C_10  and  S_11
REMARK    4  A    between atoms: S_11  and  N_14
REMARK    5  A    between atoms: N_14  and  C_15
REMARK    6  A    between atoms: C_15  and  C_16
REMARK    7  A    between atoms: C_16  and  C_17
REMARK                            x       y       z     vdW  Elec       q    Type
REMARK                         _______ _______ _______ _____ _____    ______ ____
ROOT
ATOM      1  C   UNL     1       1.973   7.157  20.145  0.00  0.00    +0.000 A 
ATOM      2  C   UNL     1       1.441   6.122  20.927  0.00  0.00    +0.000 A 
ATOM      3  C   UNL     1       1.334   4.823  20.422  0.00  0.00    +0.000 A 
ATOM      4  C   UNL     1       1.723   4.551  19.109  0.00  0.00    +0.000 A 
ATOM      5  C   UNL     1       2.247   5.569  18.306  0.00  0.00    +0.000 A 
ATOM      6  C   UNL     1       2.357   6.866  18.825  0.00  0.00    +0.000 A 
ENDROOT
BRANCH   4   7
ATOM      7  S   UNL     1       1.531   2.911  18.445  0.00  0.00    +0.000 S 
ATOM      8  O   UNL     1       0.288   2.387  18.960  0.00  0.00    +0.000 OA
ATOM      9  O   UNL     1       1.825   2.936  17.028  0.00  0.00    +0.000 OA
BRANCH   7  10
ATOM     10  N   UNL     1       2.757   2.037  19.210  0.00  0.00    +0.000 NA
ATOM     11  H   UNL     1       2.637   1.037  19.041  0.00  0.00    +0.000 HD
BRANCH  10  12
ATOM     12  C   UNL     1       4.144   2.543  19.194  0.00  0.00    +0.000 C 
BRANCH  12  13
ATOM     13  C   UNL     1       4.677   2.723  17.776  0.00  0.00    +0.000 C 
BRANCH  13  14
ATOM     14  C   UNL     1       5.192   4.107  17.502  0.00  0.00    +0.000 A 
ATOM     15  C   UNL     1       5.887   4.799  18.506  0.00  0.00    +0.000 A 
ATOM     16  C   UNL     1       6.410   6.065  18.254  0.00  0.00    +0.000 A 
ATOM     17  C   UNL     1       6.232   6.653  17.004  0.00  0.00    +0.000 A 
ATOM     18  C   UNL     1       5.531   5.976  16.007  0.00  0.00    +0.000 A 
ATOM     19  C   UNL     1       5.006   4.707  16.256  0.00  0.00    +0.000 A 
ENDBRANCH  13  14
ENDBRANCH  12  13
ENDBRANCH  10  12
ENDBRANCH   7  10
ENDBRANCH   4   7
BRANCH   1  20
ATOM     20  N   UNL     1       2.122   8.488  20.623  0.00  0.00    +0.000 N 
ATOM     21  H   UNL     1       3.011   8.877  20.290  0.00  0.00    +0.000 HD
BRANCH  20  26
ATOM     22  O   UNL     1      -0.813  11.617  18.421  0.00  0.00    +0.000 OA
ATOM     23  C   UNL     1      -0.428  11.064  19.445  0.00  0.00    +0.000 C 
ATOM     24  C   UNL     1       0.681  10.078  19.456  0.00  0.00    +0.000 C 
ATOM     25 CL   UNL     1       1.387   9.745  17.902  0.00  0.00    +0.000 Cl
ATOM     26  C   UNL     1       1.097   9.445  20.567  0.00  0.00    +0.000 C 
ATOM     27  C   UNL     1       0.385   9.716  21.863  0.00  0.00    +0.000 C 
ATOM     28  O   UNL     1       0.698   9.100  22.883  0.00  0.00    +0.000 OA
ATOM     29  C   UNL     1      -0.691  10.733  21.892  0.00  0.00    +0.000 A 
ATOM     30  C   UNL     1      -1.330  11.058  23.100  0.00  0.00    +0.000 A 
ATOM     31  C   UNL     1      -2.357  12.010  23.123  0.00  0.00    +0.000 A 
ATOM     32  C   UNL     1      -2.750  12.642  21.946  0.00  0.00    +0.000 A 
ATOM     33  C   UNL     1      -2.115  12.326  20.747  0.00  0.00    +0.000 A 
ATOM     34  C   UNL     1      -1.083  11.374  20.723  0.00  0.00    +0.000 A 
ENDBRANCH  20  26
ENDBRANCH   1  20
TORSDOF 7
ENDMDL
MODEL 8
REMARK VINA RESULT:      -8.0      3.135      4.204
REMARK  Name = 
REMARK  7 active torsions:
REMARK  status: ('A' for Active; 'I' for Inactive)
REMARK    1  A    between atoms: C_5  and  N_6
REMARK    2  A    between atoms: N_6  and  C_7
REMARK    3  A    between atoms: C_10  and  S_11
REMARK    4  A    between atoms: S_11  and  N_14
REMARK    5  A    between atoms: N_14  and  C_15
REMARK    6  A    between atoms: C_15  and  C_16
REMARK    7  A    between atoms: C_16  and  C_17
REMARK                            x       y       z     vdW  Elec       q    Type
REMARK                         _______ _______ _______ _____ _____    ______ ____
ROOT
ATOM      1  C   UNL     1       2.283   7.575  18.543  0.00  0.00    +0.000 A 
ATOM      2  C   UNL     1       3.394   7.542  17.689  0.00  0.00    +0.000 A 
ATOM      3  C   UNL     1       4.390   6.573  17.845  0.00  0.00    +0.000 A 
ATOM      4  C   UNL     1       4.304   5.646  18.885  0.00  0.00    +0.000 A 
ATOM      5  C   UNL     1       3.210   5.666  19.756  0.00  0.00    +0.000 A 
ATOM      6  C   UNL     1       2.214   6.636  19.586  0.00  0.00    +0.000 A 
ENDROOT
BRANCH   4   7
ATOM      7  S   UNL     1       5.602   4.451  19.121  0.00  0.00    +0.000 S 
ATOM      8  O   UNL     1       6.758   5.167  19.604  0.00  0.00    +0.000 OA
ATOM      9  O   UNL     1       5.065   3.300  19.817  0.00  0.00    +0.000 OA
BRANCH   7  10
ATOM     10  N   UNL     1       5.977   3.970  17.546  0.00  0.00    +0.000 NA
ATOM     11  H   UNL     1       5.135   3.963  16.967  0.00  0.00    +0.000 HD
BRANCH  10  12
ATOM     12  C   UNL     1       7.211   4.459  16.899  0.00  0.00    +0.000 C 
BRANCH  12  13
ATOM     13  C   UNL     1       6.923   5.475  15.798  0.00  0.00    +0.000 C 
BRANCH  13  14
ATOM     14  C   UNL     1       6.838   4.865  14.429  0.00  0.00    +0.000 A 
ATOM     15  C   UNL     1       5.822   3.941  14.143  0.00  0.00    +0.000 A 
ATOM     16  C   UNL     1       5.701   3.400  12.866  0.00  0.00    +0.000 A 
ATOM     17  C   UNL     1       6.601   3.769  11.869  0.00  0.00    +0.000 A 
ATOM     18  C   UNL     1       7.621   4.677  12.148  0.00  0.00    +0.000 A 
ATOM     19  C   UNL     1       7.745   5.221  13.428  0.00  0.00    +0.000 A 
ENDBRANCH  13  14
ENDBRANCH  12  13
ENDBRANCH  10  12
ENDBRANCH   7  10
ENDBRANCH   4   7
BRANCH   1  20
ATOM     20  N   UNL     1       1.234   8.527  18.409  0.00  0.00    +0.000 N 
ATOM     21  H   UNL     1       0.327   8.054  18.478  0.00  0.00    +0.000 HD
BRANCH  20  26
ATOM     22  O   UNL     1       0.263  11.447  22.122  0.00  0.00    +0.000 OA
ATOM     23  C   UNL     1       0.726  11.276  21.000  0.00  0.00    +0.000 C 
ATOM     24  C   UNL     1       0.692   9.963  20.310  0.00  0.00    +0.000 C 
ATOM     25 CL   UNL     1      -0.034   8.671  21.220  0.00  0.00    +0.000 Cl
ATOM     26  C   UNL     1       1.218   9.754  19.090  0.00  0.00    +0.000 C 
ATOM     27  C   UNL     1       1.909  10.895  18.396  0.00  0.00    +0.000 C 
ATOM     28  O   UNL     1       2.460  10.717  17.309  0.00  0.00    +0.000 OA
ATOM     29  C   UNL     1       1.912  12.230  19.038  0.00  0.00    +0.000 A 
ATOM     30  C   UNL     1       2.490  13.332  18.386  0.00  0.00    +0.000 A 
ATOM     31  C   UNL     1       2.504  14.590  19.000  0.00  0.00    +0.000 A 
ATOM     32  C   UNL     1       1.943  14.756  20.264  0.00  0.00    +0.000 A 
ATOM     33  C   UNL     1       1.364  13.667  20.912  0.00  0.00    +0.000 A 
ATOM     34  C   UNL     1       1.348  12.405  20.295  0.00  0.00    +0.000 A 
ENDBRANCH  20  26
ENDBRANCH   1  20
TORSDOF 7
ENDMDL
MODEL 9
REMARK VINA RESULT:      -7.9      2.630      3.745
REMARK  Name = 
REMARK  7 active torsions:
REMARK  status: ('A' for Active; 'I' for Inactive)
REMARK    1  A    between atoms: C_5  and  N_6
REMARK    2  A    between atoms: N_6  and  C_7
REMARK    3  A    between atoms: C_10  and  S_11
REMARK    4  A    between atoms: S_11  and  N_14
REMARK    5  A    between atoms: N_14  and  C_15
REMARK    6  A    between atoms: C_15  and  C_16
REMARK    7  A    between atoms: C_16  and  C_17
REMARK                            x       y       z     vdW  Elec       q    Type
REMARK                         _______ _______ _______ _____ _____    ______ ____
ROOT
ATOM      1  C   UNL     1       1.486   8.291  19.510  0.00  0.00    +0.000 A 
ATOM      2  C   UNL     1       2.107   8.631  18.299  0.00  0.00    +0.000 A 
ATOM      3  C   UNL     1       3.085   7.804  17.738  0.00  0.00    +0.000 A 
ATOM      4  C   UNL     1       3.483   6.643  18.403  0.00  0.00    +0.000 A 
ATOM      5  C   UNL     1       2.886   6.289  19.616  0.00  0.00    +0.000 A 
ATOM      6  C   UNL     1       1.901   7.120  20.167  0.00  0.00    +0.000 A 
ENDROOT
BRANCH   4   7
ATOM      7  S   UNL     1       4.771   5.624  17.719  0.00  0.00    +0.000 S 
ATOM      8  O   UNL     1       5.394   6.379  16.658  0.00  0.00    +0.000 OA
ATOM      9  O   UNL     1       5.538   5.041  18.799  0.00  0.00    +0.000 OA
BRANCH   7  10
ATOM     10  N   UNL     1       3.918   4.377  16.964  0.00  0.00    +0.000 NA
ATOM     11  H   UNL     1       3.716   4.622  15.993  0.00  0.00    +0.000 HD
BRANCH  10  12
ATOM     12  C   UNL     1       4.286   2.970  17.220  0.00  0.00    +0.000 C 
BRANCH  12  13
ATOM     13  C   UNL     1       3.083   2.122  17.622  0.00  0.00    +0.000 C 
BRANCH  13  14
ATOM     14  C   UNL     1       2.490   2.514  18.944  0.00  0.00    +0.000 A 
ATOM     15  C   UNL     1       3.279   2.457  20.103  0.00  0.00    +0.000 A 
ATOM     16  C   UNL     1       2.758   2.861  21.329  0.00  0.00    +0.000 A 
ATOM     17  C   UNL     1       1.442   3.311  21.410  0.00  0.00    +0.000 A 
ATOM     18  C   UNL     1       0.648   3.358  20.265  0.00  0.00    +0.000 A 
ATOM     19  C   UNL     1       1.168   2.955  19.033  0.00  0.00    +0.000 A 
ENDBRANCH  13  14
ENDBRANCH  12  13
ENDBRANCH  10  12
ENDBRANCH   7  10
ENDBRANCH   4   7
BRANCH   1  20
ATOM     20  N   UNL     1       0.471   9.087  20.107  0.00  0.00    +0.000 N 
ATOM     21  H   UNL     1       0.486   8.960  21.125  0.00  0.00    +0.000 HD
BRANCH  20  26
ATOM     22  O   UNL     1      -1.361  12.677  17.459  0.00  0.00    +0.000 OA
ATOM     23  C   UNL     1      -0.691  12.298  18.413  0.00  0.00    +0.000 C 
ATOM     24  C   UNL     1      -0.462  10.862  18.712  0.00  0.00    +0.000 C 
ATOM     25 CL   UNL     1      -1.232   9.750  17.620  0.00  0.00    +0.000 Cl
ATOM     26  C   UNL     1       0.249  10.431  19.769  0.00  0.00    +0.000 C 
ATOM     27  C   UNL     1       0.815  11.447  20.723  0.00  0.00    +0.000 C 
ATOM     28  O   UNL     1       1.411  11.081  21.736  0.00  0.00    +0.000 OA
ATOM     29  C   UNL     1       0.646  12.887  20.421  0.00  0.00    +0.000 A 
ATOM     30  C   UNL     1       1.221  13.861  21.255  0.00  0.00    +0.000 A 
ATOM     31  C   UNL     1       1.048  15.222  20.976  0.00  0.00    +0.000 A 
ATOM     32  C   UNL     1       0.306  15.619  19.866  0.00  0.00    +0.000 A 
ATOM     33  C   UNL     1      -0.261  14.656  19.034  0.00  0.00    +0.000 A 
ATOM     34  C   UNL     1      -0.086  13.291  19.311  0.00  0.00    +0.000 A 
ENDBRANCH  20  26
ENDBRANCH   1  20
TORSDOF 7
ENDMDL
