MODEL 1
REMARK VINA RESULT:      -7.5      0.000      0.000
REMARK  Name = 
REMARK  7 active torsions:
REMARK  status: ('A' for Active; 'I' for Inactive)
REMARK    1  A    between atoms: C_7  and  C_8
REMARK    2  A    between atoms: C_8  and  O_9
REMARK    3  A    between atoms: O_9  and  C_10
REMARK    4  A    between atoms: C_15  and  C_16
REMARK    5  A    between atoms: C_16  and  N_17
REMARK    6  A    between atoms: N_17  and  C_18
REMARK    7  A    between atoms: C_18  and  C_19
REMARK                            x       y       z     vdW  Elec       q    Type
REMARK                         _______ _______ _______ _____ _____    ______ ____
ROOT
ATOM      1  C   UNL     1       2.534   7.118  19.635  0.00  0.00    +0.000 A 
ATOM      2  C   UNL     1       1.600   7.937  20.284  0.00  0.00    +0.000 A 
ATOM      3  C   UNL     1       1.097   9.076  19.658  0.00  0.00    +0.000 A 
ATOM      4  C   UNL     1       1.506   9.394  18.369  0.00  0.00    +0.000 A 
ATOM      5  C   UNL     1       2.417   8.571  17.704  0.00  0.00    +0.000 A 
ATOM      6  C   UNL     1       2.953   7.427  18.325  0.00  0.00    +0.000 A 
ENDROOT
BRANCH   1   7
ATOM      7  O   UNL     1       3.049   5.981  20.201  0.00  0.00    +0.000 OA
BRANCH   7   8
ATOM      8  C   UNL     1       2.132   4.902  20.430  0.00  0.00    +0.000 C 
BRANCH   8  15
ATOM      9 CL   UNL     1       1.060   4.407  17.482  0.00  0.00    +0.000 Cl
ATOM     10  C   UNL     1       2.203   3.426  18.329  0.00  0.00    +0.000 A 
ATOM     11  C   UNL     1       2.710   2.307  17.657  0.00  0.00    +0.000 A 
ATOM     12  C   UNL     1       3.615   1.456  18.289  0.00  0.00    +0.000 A 
ATOM     13  C   UNL     1       4.008   1.709  19.600  0.00  0.00    +0.000 A 
ATOM     14  C   UNL     1       3.509   2.826  20.267  0.00  0.00    +0.000 A 
ATOM     15  C   UNL     1       2.612   3.710  19.639  0.00  0.00    +0.000 A 
ENDBRANCH   8  15
ENDBRANCH   7   8
ENDBRANCH   1   7
BRANCH   6  16
ATOM     16  C   UNL     1       3.903   6.536  17.542  0.00  0.00    +0.000 C 
BRANCH  16  17
ATOM     17  N   UNL     1       5.114   6.174  18.298  0.00  0.00    +0.000 NA
ATOM     18  H   UNL     1       5.861   6.826  18.071  0.00  0.00    +0.000 HD
BRANCH  17  19
ATOM     19  C   UNL     1       5.553   4.818  17.948  0.00  0.00    +0.000 C 
BRANCH  19  20
ATOM     20  C   UNL     1       6.053   4.728  16.530  0.00  0.00    +0.000 A 
ATOM     21  C   UNL     1       5.414   3.931  15.573  0.00  0.00    +0.000 A 
ATOM     22  C   UNL     1       5.880   3.906  14.263  0.00  0.00    +0.000 A 
ATOM     23  C   UNL     1       6.979   4.684  13.941  0.00  0.00    +0.000 A 
ATOM     24  N   UNL     1       7.624   5.470  14.828  0.00  0.00    +0.000 NA
ATOM     25  C   UNL     1       7.146   5.475  16.096  0.00  0.00    +0.000 A 
ENDBRANCH  19  20
ENDBRANCH  17  19
ENDBRANCH  16  17
ENDBRANCH   6  16
TORSDOF 7
ENDMDL
MODEL 2
REMARK VINA RESULT:      -7.4      2.874      6.965
REMARK  Name = 
REMARK  7 active torsions:
REMARK  status: ('A' for Active; 'I' for Inactive)
REMARK    1  A    between atoms: C_7  and  C_8
REMARK    2  A    between atoms: C_8  and  O_9
REMARK    3  A    between atoms: O_9  and  C_10
REMARK    4  A    between atoms: C_15  and  C_16
REMARK    5  A    between atoms: C_16  and  N_17
REMARK    6  A    between atoms: N_17  and  C_18
REMARK    7  A    between atoms: C_18  and  C_19
REMARK                            x       y       z     vdW  Elec       q    Type
REMARK                         _______ _______ _______ _____ _____    ______ ____
ROOT
ATOM      1  C   UNL     1       2.443   4.321  18.325  0.00  0.00    +0.000 A 
ATOM      2  C   UNL     1       1.788   3.102  18.099  0.00  0.00    +0.000 A 
ATOM      3  C   UNL     1       0.925   2.571  19.056  0.00  0.00    +0.000 A 
ATOM      4  C   UNL     1       0.691   3.264  20.237  0.00  0.00    +0.000 A 
ATOM      5  C   UNL     1       1.318   4.491  20.461  0.00  0.00    +0.000 A 
ATOM      6  C   UNL     1       2.209   5.037  19.517  0.00  0.00    +0.000 A 
ENDROOT
BRANCH   1   7
ATOM      7  O   UNL     1       3.290   4.892  17.412  0.00  0.00    +0.000 OA
BRANCH   7   8
ATOM      8  C   UNL     1       4.538   4.225  17.184  0.00  0.00    +0.000 C 
BRANCH   8  15
ATOM      9 CL   UNL     1       5.128   6.737  15.332  0.00  0.00    +0.000 Cl
ATOM     10  C   UNL     1       5.965   6.323  16.786  0.00  0.00    +0.000 A 
ATOM     11  C   UNL     1       7.000   7.174  17.194  0.00  0.00    +0.000 A 
ATOM     12  C   UNL     1       7.736   6.888  18.343  0.00  0.00    +0.000 A 
ATOM     13  C   UNL     1       7.451   5.744  19.084  0.00  0.00    +0.000 A 
ATOM     14  C   UNL     1       6.417   4.901  18.683  0.00  0.00    +0.000 A 
ATOM     15  C   UNL     1       5.648   5.184  17.538  0.00  0.00    +0.000 A 
ENDBRANCH   8  15
ENDBRANCH   7   8
ENDBRANCH   1   7
BRANCH   6  16
ATOM     16  C   UNL     1       2.829   6.398  19.784  0.00  0.00    +0.000 C 
BRANCH  16  17
ATOM     17  N   UNL     1       2.050   7.213  20.733  0.00  0.00    +0.000 NA
ATOM     18  H   UNL     1       1.283   6.657  21.104  0.00  0.00    +0.000 HD
BRANCH  17  19
ATOM     19  C   UNL     1       1.494   8.393  20.062  0.00  0.00    +0.000 C 
BRANCH  19  20
ATOM     20  C   UNL     1       0.752   9.295  21.014  0.00  0.00    +0.000 A 
ATOM     21  C   UNL     1      -0.116  10.292  20.556  0.00  0.00    +0.000 A 
ATOM     22  C   UNL     1      -0.817  11.078  21.466  0.00  0.00    +0.000 A 
ATOM     23  C   UNL     1      -0.632  10.843  22.817  0.00  0.00    +0.000 A 
ATOM     24  N   UNL     1       0.191   9.891  23.304  0.00  0.00    +0.000 NA
ATOM     25  C   UNL     1       0.858   9.140  22.394  0.00  0.00    +0.000 A 
ENDBRANCH  19  20
ENDBRANCH  17  19
ENDBRANCH  16  17
ENDBRANCH   6  16
TORSDOF 7
ENDMDL
MODEL 3
REMARK VINA RESULT:      -7.2      2.262      5.913
REMARK  Name = 
REMARK  7 active torsions:
REMARK  status: ('A' for Active; 'I' for Inactive)
REMARK    1  A    between atoms: C_7  and  C_8
REMARK    2  A    between atoms: C_8  and  O_9
REMARK    3  A    between atoms: O_9  and  C_10
REMARK    4  A    between atoms: C_15  and  C_16
REMARK    5  A    between atoms: C_16  and  N_17
REMARK    6  A    between atoms: N_17  and  C_18
REMARK    7  A    between atoms: C_18  and  C_19
REMARK                            x       y       z     vdW  Elec       q    Type
REMARK                         _______ _______ _______ _____ _____    ______ ____
ROOT
ATOM      1  C   UNL     1       4.679   4.378  16.718  0.00  0.00    +0.000 A 
ATOM      2  C   UNL     1       5.619   3.926  15.782  0.00  0.00    +0.000 A 
ATOM      3  C   UNL     1       6.835   4.587  15.618  0.00  0.00    +0.000 A 
ATOM      4  C   UNL     1       7.131   5.693  16.405  0.00  0.00    +0.000 A 
ATOM      5  C   UNL     1       6.212   6.138  17.358  0.00  0.00    +0.000 A 
ATOM      6  C   UNL     1       4.970   5.497  17.526  0.00  0.00    +0.000 A 
ENDROOT
BRANCH   1   7
ATOM      7  O   UNL     1       3.476   3.756  16.927  0.00  0.00    +0.000 OA
BRANCH   7   8
ATOM      8  C   UNL     1       3.504   2.526  17.663  0.00  0.00    +0.000 C 
BRANCH   8  15
ATOM      9 CL   UNL     1       4.912   1.844  20.427  0.00  0.00    +0.000 Cl
ATOM     10  C   UNL     1       3.320   2.486  20.225  0.00  0.00    +0.000 A 
ATOM     11  C   UNL     1       2.577   2.735  21.385  0.00  0.00    +0.000 A 
ATOM     12  C   UNL     1       1.276   3.229  21.297  0.00  0.00    +0.000 A 
ATOM     13  C   UNL     1       0.705   3.463  20.049  0.00  0.00    +0.000 A 
ATOM     14  C   UNL     1       1.446   3.222  18.893  0.00  0.00    +0.000 A 
ATOM     15  C   UNL     1       2.769   2.746  18.962  0.00  0.00    +0.000 A 
ENDBRANCH   8  15
ENDBRANCH   7   8
ENDBRANCH   1   7
BRANCH   6  16
ATOM     16  C   UNL     1       4.025   5.987  18.610  0.00  0.00    +0.000 C 
BRANCH  16  17
ATOM     17  N   UNL     1       2.735   6.464  18.082  0.00  0.00    +0.000 NA
ATOM     18  H   UNL     1       2.608   6.113  17.136  0.00  0.00    +0.000 HD
BRANCH  17  19
ATOM     19  C   UNL     1       2.705   7.930  18.046  0.00  0.00    +0.000 C 
BRANCH  19  20
ATOM     20  C   UNL     1       1.797   8.510  19.098  0.00  0.00    +0.000 A 
ATOM     21  C   UNL     1       1.667   7.924  20.363  0.00  0.00    +0.000 A 
ATOM     22  C   UNL     1       0.851   8.512  21.324  0.00  0.00    +0.000 A 
ATOM     23  C   UNL     1       0.183   9.678  20.994  0.00  0.00    +0.000 A 
ATOM     24  N   UNL     1       0.280  10.281  19.791  0.00  0.00    +0.000 NA
ATOM     25  C   UNL     1       1.084   9.686  18.876  0.00  0.00    +0.000 A 
ENDBRANCH  19  20
ENDBRANCH  17  19
ENDBRANCH  16  17
ENDBRANCH   6  16
TORSDOF 7
ENDMDL
MODEL 4
REMARK VINA RESULT:      -7.1      2.115      5.819
REMARK  Name = 
REMARK  7 active torsions:
REMARK  status: ('A' for Active; 'I' for Inactive)
REMARK    1  A    between atoms: C_7  and  C_8
REMARK    2  A    between atoms: C_8  and  O_9
REMARK    3  A    between atoms: O_9  and  C_10
REMARK    4  A    between atoms: C_15  and  C_16
REMARK    5  A    between atoms: C_16  and  N_17
REMARK    6  A    between atoms: N_17  and  C_18
REMARK    7  A    between atoms: C_18  and  C_19
REMARK                            x       y       z     vdW  Elec       q    Type
REMARK                         _______ _______ _______ _____ _____    ______ ____
ROOT
ATOM      1  C   UNL     1       5.267   5.096  17.523  0.00  0.00    +0.000 A 
ATOM      2  C   UNL     1       5.891   4.005  16.902  0.00  0.00    +0.000 A 
ATOM      3  C   UNL     1       6.125   4.006  15.528  0.00  0.00    +0.000 A 
ATOM      4  C   UNL     1       5.758   5.108  14.766  0.00  0.00    +0.000 A 
ATOM      5  C   UNL     1       5.158   6.211  15.378  0.00  0.00    +0.000 A 
ATOM      6  C   UNL     1       4.894   6.222  16.761  0.00  0.00    +0.000 A 
ENDROOT
BRANCH   1   7
ATOM      7  O   UNL     1       5.026   5.149  18.871  0.00  0.00    +0.000 OA
BRANCH   7   8
ATOM      8  C   UNL     1       4.857   3.895  19.546  0.00  0.00    +0.000 C 
BRANCH   8  15
ATOM      9 CL   UNL     1       3.562   1.425  18.029  0.00  0.00    +0.000 Cl
ATOM     10  C   UNL     1       2.728   2.551  19.040  0.00  0.00    +0.000 A 
ATOM     11  C   UNL     1       1.352   2.361  19.213  0.00  0.00    +0.000 A 
ATOM     12  C   UNL     1       0.611   3.246  19.993  0.00  0.00    +0.000 A 
ATOM     13  C   UNL     1       1.236   4.335  20.594  0.00  0.00    +0.000 A 
ATOM     14  C   UNL     1       2.607   4.522  20.428  0.00  0.00    +0.000 A 
ATOM     15  C   UNL     1       3.378   3.626  19.663  0.00  0.00    +0.000 A 
ENDBRANCH   8  15
ENDBRANCH   7   8
ENDBRANCH   1   7
BRANCH   6  16
ATOM     16  C   UNL     1       4.286   7.465  17.389  0.00  0.00    +0.000 C 
BRANCH  16  17
ATOM     17  N   UNL     1       2.969   7.219  18.003  0.00  0.00    +0.000 NA
ATOM     18  H   UNL     1       2.525   6.429  17.541  0.00  0.00    +0.000 HD
BRANCH  17  19
ATOM     19  C   UNL     1       2.106   8.396  17.855  0.00  0.00    +0.000 C 
BRANCH  19  20
ATOM     20  C   UNL     1       1.484   8.816  19.161  0.00  0.00    +0.000 A 
ATOM     21  C   UNL     1       1.684   8.088  20.340  0.00  0.00    +0.000 A 
ATOM     22  C   UNL     1       1.129   8.531  21.536  0.00  0.00    +0.000 A 
ATOM     23  C   UNL     1       0.385   9.698  21.523  0.00  0.00    +0.000 A 
ATOM     24  N   UNL     1       0.168  10.434  20.413  0.00  0.00    +0.000 NA
ATOM     25  C   UNL     1       0.724   9.978  19.264  0.00  0.00    +0.000 A 
ENDBRANCH  19  20
ENDBRANCH  17  19
ENDBRANCH  16  17
ENDBRANCH   6  16
TORSDOF 7
ENDMDL
MODEL 5
REMARK VINA RESULT:      -7.1      1.755      2.334
REMARK  Name = 
REMARK  7 active torsions:
REMARK  status: ('A' for Active; 'I' for Inactive)
REMARK    1  A    between atoms: C_7  and  C_8
REMARK    2  A    between atoms: C_8  and  O_9
REMARK    3  A    between atoms: O_9  and  C_10
REMARK    4  A    between atoms: C_15  and  C_16
REMARK    5  A    between atoms: C_16  and  N_17
REMARK    6  A    between atoms: N_17  and  C_18
REMARK    7  A    between atoms: C_18  and  C_19
REMARK                            x       y       z     vdW  Elec       q    Type
REMARK                         _______ _______ _______ _____ _____    ______ ____
ROOT
ATOM      1  C   UNL     1       1.724   7.888  20.121  0.00  0.00    +0.000 A 
ATOM      2  C   UNL     1       1.066   8.290  21.291  0.00  0.00    +0.000 A 
ATOM      3  C   UNL     1       0.429   9.528  21.359  0.00  0.00    +0.000 A 
ATOM      4  C   UNL     1       0.424  10.365  20.250  0.00  0.00    +0.000 A 
ATOM      5  C   UNL     1       1.055   9.963  19.071  0.00  0.00    +0.000 A 
ATOM      6  C   UNL     1       1.722   8.726  18.987  0.00  0.00    +0.000 A 
ENDROOT
BRANCH   1   7
ATOM      7  O   UNL     1       2.353   6.677  19.998  0.00  0.00    +0.000 OA
BRANCH   7   8
ATOM      8  C   UNL     1       1.706   5.549  20.602  0.00  0.00    +0.000 C 
BRANCH   8  15
ATOM      9 CL   UNL     1       1.454   2.598  21.747  0.00  0.00    +0.000 Cl
ATOM     10  C   UNL     1       1.780   3.030  20.106  0.00  0.00    +0.000 A 
ATOM     11  C   UNL     1       1.947   1.986  19.189  0.00  0.00    +0.000 A 
ATOM     12  C   UNL     1       2.238   2.260  17.854  0.00  0.00    +0.000 A 
ATOM     13  C   UNL     1       2.379   3.578  17.430  0.00  0.00    +0.000 A 
ATOM     14  C   UNL     1       2.206   4.619  18.340  0.00  0.00    +0.000 A 
ATOM     15  C   UNL     1       1.889   4.363  19.688  0.00  0.00    +0.000 A 
ENDBRANCH   8  15
ENDBRANCH   7   8
ENDBRANCH   1   7
BRANCH   6  16
ATOM     16  C   UNL     1       2.351   8.312  17.667  0.00  0.00    +0.000 C 
BRANCH  16  17
ATOM     17  N   UNL     1       3.715   7.778  17.817  0.00  0.00    +0.000 NA
ATOM     18  H   UNL     1       4.359   8.545  17.999  0.00  0.00    +0.000 HD
BRANCH  17  19
ATOM     19  C   UNL     1       4.137   7.092  16.591  0.00  0.00    +0.000 C 
BRANCH  19  20
ATOM     20  C   UNL     1       5.298   6.161  16.827  0.00  0.00    +0.000 A 
ATOM     21  C   UNL     1       5.635   5.159  15.910  0.00  0.00    +0.000 A 
ATOM     22  C   UNL     1       6.740   4.346  16.141  0.00  0.00    +0.000 A 
ATOM     23  C   UNL     1       7.484   4.558  17.289  0.00  0.00    +0.000 A 
ATOM     24  N   UNL     1       7.199   5.513  18.199  0.00  0.00    +0.000 NA
ATOM     25  C   UNL     1       6.118   6.291  17.945  0.00  0.00    +0.000 A 
ENDBRANCH  19  20
ENDBRANCH  17  19
ENDBRANCH  16  17
ENDBRANCH   6  16
TORSDOF 7
ENDMDL
MODEL 6
REMARK VINA RESULT:      -7.1      1.893      5.896
REMARK  Name = 
REMARK  7 active torsions:
REMARK  status: ('A' for Active; 'I' for Inactive)
REMARK    1  A    between atoms: C_7  and  C_8
REMARK    2  A    between atoms: C_8  and  O_9
REMARK    3  A    between atoms: O_9  and  C_10
REMARK    4  A    between atoms: C_15  and  C_16
REMARK    5  A    between atoms: C_16  and  N_17
REMARK    6  A    between atoms: N_17  and  C_18
REMARK    7  A    between atoms: C_18  and  C_19
REMARK                            x       y       z     vdW  Elec       q    Type
REMARK                         _______ _______ _______ _____ _____    ______ ____
ROOT
ATOM      1  C   UNL     1       5.284   6.036  17.050  0.00  0.00    +0.000 A 
ATOM      2  C   UNL     1       5.125   6.031  15.657  0.00  0.00    +0.000 A 
ATOM      3  C   UNL     1       5.983   5.292  14.845  0.00  0.00    +0.000 A 
ATOM      4  C   UNL     1       6.994   4.532  15.420  0.00  0.00    +0.000 A 
ATOM      5  C   UNL     1       7.146   4.509  16.808  0.00  0.00    +0.000 A 
ATOM      6  C   UNL     1       6.303   5.264  17.646  0.00  0.00    +0.000 A 
ENDROOT
BRANCH   1   7
ATOM      7  O   UNL     1       4.459   6.734  17.892  0.00  0.00    +0.000 OA
BRANCH   7   8
ATOM      8  C   UNL     1       3.048   6.546  17.717  0.00  0.00    +0.000 C 
BRANCH   8  15
ATOM      9 CL   UNL     1       2.013   6.187  20.698  0.00  0.00    +0.000 Cl
ATOM     10  C   UNL     1       1.864   7.612  19.731  0.00  0.00    +0.000 A 
ATOM     11  C   UNL     1       1.232   8.718  20.313  0.00  0.00    +0.000 A 
ATOM     12  C   UNL     1       1.053   9.892  19.583  0.00  0.00    +0.000 A 
ATOM     13  C   UNL     1       1.493   9.965  18.265  0.00  0.00    +0.000 A 
ATOM     14  C   UNL     1       2.129   8.867  17.687  0.00  0.00    +0.000 A 
ATOM     15  C   UNL     1       2.339   7.681  18.414  0.00  0.00    +0.000 A 
ENDBRANCH   8  15
ENDBRANCH   7   8
ENDBRANCH   1   7
BRANCH   6  16
ATOM     16  C   UNL     1       6.476   5.167  19.152  0.00  0.00    +0.000 C 
BRANCH  16  17
ATOM     17  N   UNL     1       5.290   4.627  19.839  0.00  0.00    +0.000 NA
ATOM     18  H   UNL     1       5.477   4.567  20.837  0.00  0.00    +0.000 HD
BRANCH  17  19
ATOM     19  C   UNL     1       4.972   3.286  19.338  0.00  0.00    +0.000 C 
BRANCH  19  20
ATOM     20  C   UNL     1       3.488   3.035  19.274  0.00  0.00    +0.000 A 
ATOM     21  C   UNL     1       2.729   2.812  20.428  0.00  0.00    +0.000 A 
ATOM     22  C   UNL     1       1.353   2.627  20.333  0.00  0.00    +0.000 A 
ATOM     23  C   UNL     1       0.769   2.673  19.079  0.00  0.00    +0.000 A 
ATOM     24  N   UNL     1       1.460   2.889  17.940  0.00  0.00    +0.000 NA
ATOM     25  C   UNL     1       2.797   3.068  18.065  0.00  0.00    +0.000 A 
ENDBRANCH  19  20
ENDBRANCH  17  19
ENDBRANCH  16  17
ENDBRANCH   6  16
TORSDOF 7
ENDMDL
MODEL 7
REMARK VINA RESULT:      -7.1      2.047      6.250
REMARK  Name = 
REMARK  7 active torsions:
REMARK  status: ('A' for Active; 'I' for Inactive)
REMARK    1  A    between atoms: C_7  and  C_8
REMARK    2  A    between atoms: C_8  and  O_9
REMARK    3  A    between atoms: O_9  and  C_10
REMARK    4  A    between atoms: C_15  and  C_16
REMARK    5  A    between atoms: C_16  and  N_17
REMARK    6  A    between atoms: N_17  and  C_18
REMARK    7  A    between atoms: C_18  and  C_19
REMARK                            x       y       z     vdW  Elec       q    Type
REMARK                         _______ _______ _______ _____ _____    ______ ____
ROOT
ATOM      1  C   UNL     1       5.145   6.034  16.832  0.00  0.00    +0.000 A 
ATOM      2  C   UNL     1       5.181   6.213  15.442  0.00  0.00    +0.000 A 
ATOM      3  C   UNL     1       5.892   5.331  14.630  0.00  0.00    +0.000 A 
ATOM      4  C   UNL     1       6.554   4.250  15.197  0.00  0.00    +0.000 A 
ATOM      5  C   UNL     1       6.504   4.047  16.578  0.00  0.00    +0.000 A 
ATOM      6  C   UNL     1       5.809   4.937  17.419  0.00  0.00    +0.000 A 
ENDROOT
BRANCH   1   7
ATOM      7  O   UNL     1       4.451   6.863  17.673  0.00  0.00    +0.000 OA
BRANCH   7   8
ATOM      8  C   UNL     1       3.103   6.486  17.985  0.00  0.00    +0.000 C 
BRANCH   8  15
ATOM      9 CL   UNL     1       1.737   6.526  20.851  0.00  0.00    +0.000 Cl
ATOM     10  C   UNL     1       1.757   7.826  19.713  0.00  0.00    +0.000 A 
ATOM     11  C   UNL     1       1.115   9.013  20.085  0.00  0.00    +0.000 A 
ATOM     12  C   UNL     1       1.068  10.094  19.206  0.00  0.00    +0.000 A 
ATOM     13  C   UNL     1       1.650   9.991  17.946  0.00  0.00    +0.000 A 
ATOM     14  C   UNL     1       2.296   8.813  17.577  0.00  0.00    +0.000 A 
ATOM     15  C   UNL     1       2.373   7.718  18.459  0.00  0.00    +0.000 A 
ENDBRANCH   8  15
ENDBRANCH   7   8
ENDBRANCH   1   7
BRANCH   6  16
ATOM     16  C   UNL     1       5.742   4.646  18.909  0.00  0.00    +0.000 C 
BRANCH  16  17
ATOM     17  N   UNL     1       5.460   3.232  19.212  0.00  0.00    +0.000 NA
ATOM     18  H   UNL     1       6.169   2.647  18.777  0.00  0.00    +0.000 HD
BRANCH  17  19
ATOM     19  C   UNL     1       4.146   2.846  18.688  0.00  0.00    +0.000 C 
BRANCH  19  20
ATOM     20  C   UNL     1       3.073   2.890  19.745  0.00  0.00    +0.000 A 
ATOM     21  C   UNL     1       1.738   3.167  19.428  0.00  0.00    +0.000 A 
ATOM     22  C   UNL     1       0.768   3.156  20.425  0.00  0.00    +0.000 A 
ATOM     23  C   UNL     1       1.160   2.865  21.720  0.00  0.00    +0.000 A 
ATOM     24  N   UNL     1       2.433   2.588  22.072  0.00  0.00    +0.000 NA
ATOM     25  C   UNL     1       3.355   2.604  21.078  0.00  0.00    +0.000 A 
ENDBRANCH  19  20
ENDBRANCH  17  19
ENDBRANCH  16  17
ENDBRANCH   6  16
TORSDOF 7
ENDMDL
MODEL 8
REMARK VINA RESULT:      -7.1      2.052      5.218
REMARK  Name = 
REMARK  7 active torsions:
REMARK  status: ('A' for Active; 'I' for Inactive)
REMARK    1  A    between atoms: C_7  and  C_8
REMARK    2  A    between atoms: C_8  and  O_9
REMARK    3  A    between atoms: O_9  and  C_10
REMARK    4  A    between atoms: C_15  and  C_16
REMARK    5  A    between atoms: C_16  and  N_17
REMARK    6  A    between atoms: N_17  and  C_18
REMARK    7  A    between atoms: C_18  and  C_19
REMARK                            x       y       z     vdW  Elec       q    Type
REMARK                         _______ _______ _______ _____ _____    ______ ____
ROOT
ATOM      1  C   UNL     1       1.886   4.528  19.137  0.00  0.00    +0.000 A 
ATOM      2  C   UNL     1       1.406   4.515  20.454  0.00  0.00    +0.000 A 
ATOM      3  C   UNL     1       1.239   3.312  21.139  0.00  0.00    +0.000 A 
ATOM      4  C   UNL     1       1.572   2.114  20.521  0.00  0.00    +0.000 A 
ATOM      5  C   UNL     1       2.075   2.116  19.219  0.00  0.00    +0.000 A 
ATOM      6  C   UNL     1       2.233   3.318  18.501  0.00  0.00    +0.000 A 
ENDROOT
BRANCH   1   7
ATOM      7  O   UNL     1       2.081   5.683  18.426  0.00  0.00    +0.000 OA
BRANCH   7   8
ATOM      8  C   UNL     1       2.936   6.669  19.018  0.00  0.00    +0.000 C 
BRANCH   8  15
ATOM      9 CL   UNL     1       1.251   7.665  21.518  0.00  0.00    +0.000 Cl
ATOM     10  C   UNL     1       1.467   8.517  20.030  0.00  0.00    +0.000 A 
ATOM     11  C   UNL     1       0.846   9.766  19.910  0.00  0.00    +0.000 A 
ATOM     12  C   UNL     1       0.956  10.497  18.729  0.00  0.00    +0.000 A 
ATOM     13  C   UNL     1       1.675   9.979  17.655  0.00  0.00    +0.000 A 
ATOM     14  C   UNL     1       2.299   8.739  17.776  0.00  0.00    +0.000 A 
ATOM     15  C   UNL     1       2.219   7.995  18.968  0.00  0.00    +0.000 A 
ENDBRANCH   8  15
ENDBRANCH   7   8
ENDBRANCH   1   7
BRANCH   6  16
ATOM     16  C   UNL     1       2.831   3.273  17.105  0.00  0.00    +0.000 C 
BRANCH  16  17
ATOM     17  N   UNL     1       4.299   3.156  17.107  0.00  0.00    +0.000 NA
ATOM     18  H   UNL     1       4.629   3.076  18.066  0.00  0.00    +0.000 HD
BRANCH  17  19
ATOM     19  C   UNL     1       4.910   4.342  16.497  0.00  0.00    +0.000 C 
BRANCH  19  20
ATOM     20  C   UNL     1       5.915   4.999  17.407  0.00  0.00    +0.000 A 
ATOM     21  C   UNL     1       6.746   6.034  16.962  0.00  0.00    +0.000 A 
ATOM     22  C   UNL     1       7.632   6.645  17.843  0.00  0.00    +0.000 A 
ATOM     23  C   UNL     1       7.663   6.205  19.155  0.00  0.00    +0.000 A 
ATOM     24  N   UNL     1       6.879   5.215  19.630  0.00  0.00    +0.000 NA
ATOM     25  C   UNL     1       6.025   4.640  18.749  0.00  0.00    +0.000 A 
ENDBRANCH  19  20
ENDBRANCH  17  19
ENDBRANCH  16  17
ENDBRANCH   6  16
TORSDOF 7
ENDMDL
MODEL 9
REMARK VINA RESULT:      -7.0      2.111      5.692
REMARK  Name = 
REMARK  7 active torsions:
REMARK  status: ('A' for Active; 'I' for Inactive)
REMARK    1  A    between atoms: C_7  and  C_8
REMARK    2  A    between atoms: C_8  and  O_9
REMARK    3  A    between atoms: O_9  and  C_10
REMARK    4  A    between atoms: C_15  and  C_16
REMARK    5  A    between atoms: C_16  and  N_17
REMARK    6  A    between atoms: N_17  and  C_18
REMARK    7  A    between atoms: C_18  and  C_19
REMARK                            x       y       z     vdW  Elec       q    Type
REMARK                         _______ _______ _______ _____ _____    ______ ____
ROOT
ATOM      1  C   UNL     1       5.337   6.121  17.028  0.00  0.00    +0.000 A 
ATOM      2  C   UNL     1       5.082   6.127  15.650  0.00  0.00    +0.000 A 
ATOM      3  C   UNL     1       5.859   5.365  14.779  0.00  0.00    +0.000 A 
ATOM      4  C   UNL     1       6.883   4.572  15.280  0.00  0.00    +0.000 A 
ATOM      5  C   UNL     1       7.131   4.539  16.654  0.00  0.00    +0.000 A 
ATOM      6  C   UNL     1       6.371   5.316  17.550  0.00  0.00    +0.000 A 
ENDROOT
BRANCH   1   7
ATOM      7  O   UNL     1       4.595   6.841  17.927  0.00  0.00    +0.000 OA
BRANCH   7   8
ATOM      8  C   UNL     1       3.307   7.292  17.487  0.00  0.00    +0.000 C 
BRANCH   8  15
ATOM      9 CL   UNL     1       1.960  10.152  17.782  0.00  0.00    +0.000 Cl
ATOM     10  C   UNL     1       1.847   8.850  18.913  0.00  0.00    +0.000 A 
ATOM     11  C   UNL     1       1.088   9.070  20.069  0.00  0.00    +0.000 A 
ATOM     12  C   UNL     1       0.974   8.073  21.037  0.00  0.00    +0.000 A 
ATOM     13  C   UNL     1       1.629   6.858  20.863  0.00  0.00    +0.000 A 
ATOM     14  C   UNL     1       2.379   6.635  19.710  0.00  0.00    +0.000 A 
ATOM     15  C   UNL     1       2.487   7.620  18.710  0.00  0.00    +0.000 A 
ENDBRANCH   8  15
ENDBRANCH   7   8
ENDBRANCH   1   7
BRANCH   6  16
ATOM     16  C   UNL     1       6.646   5.208  19.040  0.00  0.00    +0.000 C 
BRANCH  16  17
ATOM     17  N   UNL     1       5.472   4.770  19.816  0.00  0.00    +0.000 NA
ATOM     18  H   UNL     1       5.720   4.720  20.801  0.00  0.00    +0.000 HD
BRANCH  17  19
ATOM     19  C   UNL     1       5.031   3.442  19.375  0.00  0.00    +0.000 C 
BRANCH  19  20
ATOM     20  C   UNL     1       3.530   3.311  19.369  0.00  0.00    +0.000 A 
ATOM     21  C   UNL     1       2.781   3.486  18.200  0.00  0.00    +0.000 A 
ATOM     22  C   UNL     1       1.400   3.315  18.224  0.00  0.00    +0.000 A 
ATOM     23  C   UNL     1       0.802   2.970  19.424  0.00  0.00    +0.000 A 
ATOM     24  N   UNL     1       1.483   2.788  20.574  0.00  0.00    +0.000 NA
ATOM     25  C   UNL     1       2.827   2.959  20.518  0.00  0.00    +0.000 A 
ENDBRANCH  19  20
ENDBRANCH  17  19
ENDBRANCH  16  17
ENDBRANCH   6  16
TORSDOF 7
ENDMDL
