MODEL 1
REMARK VINA RESULT:      -8.3      0.000      0.000
REMARK  Name = 
REMARK  10 active torsions:
REMARK  status: ('A' for Active; 'I' for Inactive)
REMARK    1  A    between atoms: C_1  and  C_2
REMARK    2  A    between atoms: C_5  and  C_6
REMARK    3  A    between atoms: C_6  and  N_7
REMARK    4  A    between atoms: C_10  and  C_11
REMARK    5  A    between atoms: C_11  and  C_12
REMARK    6  A    between atoms: C_12  and  O_13
REMARK    7  A    between atoms: O_13  and  C_14
REMARK    8  A    between atoms: C_14  and  C_16
REMARK    9  A    between atoms: C_26  and  C_27
REMARK   10  A    between atoms: C_28  and  N_29
REMARK                            x       y       z     vdW  Elec       q    Type
REMARK                         _______ _______ _______ _____ _____    ______ ____
ROOT
ATOM      1  N   UNL     1       5.373   5.031  17.545  0.00  0.00    +0.000 N 
ATOM      2  C   UNL     1       6.358   4.443  18.266  0.00  0.00    +0.000 A 
ATOM      3  S   UNL     1       7.664   5.465  18.451  0.00  0.00    +0.000 S 
ATOM      4  C   UNL     1       6.989   6.717  17.555  0.00  0.00    +0.000 A 
ATOM      5  C   UNL     1       5.697   6.310  17.150  0.00  0.00    +0.000 A 
ATOM      6  C   UNL     1       4.748   7.152  16.334  0.00  0.00    +0.000 C 
ENDROOT
BRANCH   1   7
ATOM      7  C   UNL     1       4.137   4.305  17.192  0.00  0.00    +0.000 C 
BRANCH   7  12
ATOM      8  C   UNL     1       1.201   2.626  21.878  0.00  0.00    +0.000 C 
ATOM      9  C   UNL     1       1.979   3.045  20.677  0.00  0.00    +0.000 A 
ATOM     10  N   UNL     1       2.094   4.357  20.359  0.00  0.00    +0.000 NA
ATOM     11  C   UNL     1       2.779   4.750  19.257  0.00  0.00    +0.000 A 
ATOM     12  C   UNL     1       3.391   3.805  18.414  0.00  0.00    +0.000 A 
ATOM     13  C   UNL     1       3.284   2.438  18.788  0.00  0.00    +0.000 A 
ATOM     14  N   UNL     1       2.578   2.109  19.901  0.00  0.00    +0.000 NA
BRANCH  13  15
ATOM     15  N   UNL     1       3.908   1.390  18.064  0.00  0.00    +0.000 N 
ATOM     16  H   UNL     1       4.918   1.334  17.899  0.00  0.00    +0.000 HD
ATOM     17  H   UNL     1       3.334   0.601  17.730  0.00  0.00    +0.000 HD
ENDBRANCH  13  15
ENDBRANCH   7  12
ENDBRANCH   1   7
BRANCH   4  18
ATOM     18  C   UNL     1       7.742   7.988  17.229  0.00  0.00    +0.000 C 
BRANCH  18  19
ATOM     19  C   UNL     1       8.326   8.616  18.512  0.00  0.00    +0.000 C 
BRANCH  19  20
ATOM     20  O   UNL     1       8.744   9.925  18.322  0.00  0.00    +0.000 OA
BRANCH  20  21
ATOM     21  C   UNL     1       9.364  10.678  19.270  0.00  0.00    +0.000 C 
ATOM     22  O   UNL     1       9.344  10.324  20.442  0.00  0.00    +0.000 OA
BRANCH  21  23
ATOM     23  C   UNL     1      10.062  11.982  18.906  0.00  0.00    +0.000 C 
ATOM     24  C   UNL     1      11.429  11.736  18.200  0.00  0.00    +0.000 C 
ATOM     25  C   UNL     1      12.101  13.088  17.862  0.00  0.00    +0.000 C 
ATOM     26  C   UNL     1      11.187  13.896  16.916  0.00  0.00    +0.000 C 
ATOM     27  C   UNL     1       9.831  14.153  17.607  0.00  0.00    +0.000 C 
ATOM     28  C   UNL     1      10.059  14.954  18.908  0.00  0.00    +0.000 C 
ATOM     29  C   UNL     1      10.980  14.151  19.855  0.00  0.00    +0.000 C 
ATOM     30  C   UNL     1      12.333  13.891  19.161  0.00  0.00    +0.000 C 
ATOM     31  C   UNL     1      10.314  12.803  20.201  0.00  0.00    +0.000 C 
ATOM     32  C   UNL     1       9.157  12.804  17.947  0.00  0.00    +0.000 C 
ENDBRANCH  21  23
ENDBRANCH  20  21
ENDBRANCH  19  20
ENDBRANCH  18  19
ENDBRANCH   4  18
TORSDOF 8
ENDMDL
MODEL 2
REMARK VINA RESULT:      -8.0      7.271     10.952
REMARK  Name = 
REMARK  10 active torsions:
REMARK  status: ('A' for Active; 'I' for Inactive)
REMARK    1  A    between atoms: C_1  and  C_2
REMARK    2  A    between atoms: C_5  and  C_6
REMARK    3  A    between atoms: C_6  and  N_7
REMARK    4  A    between atoms: C_10  and  C_11
REMARK    5  A    between atoms: C_11  and  C_12
REMARK    6  A    between atoms: C_12  and  O_13
REMARK    7  A    between atoms: O_13  and  C_14
REMARK    8  A    between atoms: C_14  and  C_16
REMARK    9  A    between atoms: C_26  and  C_27
REMARK   10  A    between atoms: C_28  and  N_29
REMARK                            x       y       z     vdW  Elec       q    Type
REMARK                         _______ _______ _______ _____ _____    ______ ____
ROOT
ATOM      1  N   UNL     1       0.200  11.451  20.965  0.00  0.00    +0.000 N 
ATOM      2  C   UNL     1       0.131  10.305  21.684  0.00  0.00    +0.000 A 
ATOM      3  S   UNL     1       0.528   8.980  20.750  0.00  0.00    +0.000 S 
ATOM      4  C   UNL     1       0.776   9.871  19.346  0.00  0.00    +0.000 A 
ATOM      5  C   UNL     1       0.575  11.235  19.659  0.00  0.00    +0.000 A 
ATOM      6  C   UNL     1       0.715  12.371  18.676  0.00  0.00    +0.000 C 
ENDROOT
BRANCH   1   7
ATOM      7  C   UNL     1      -0.167  12.754  21.555  0.00  0.00    +0.000 C 
BRANCH   7  12
ATOM      8  C   UNL     1      -5.625  12.956  23.444  0.00  0.00    +0.000 C 
ATOM      9  C   UNL     1      -4.223  12.886  22.939  0.00  0.00    +0.000 A 
ATOM     10  N   UNL     1      -3.196  12.675  23.797  0.00  0.00    +0.000 NA
ATOM     11  C   UNL     1      -1.916  12.632  23.353  0.00  0.00    +0.000 A 
ATOM     12  C   UNL     1      -1.619  12.804  21.989  0.00  0.00    +0.000 A 
ATOM     13  C   UNL     1      -2.717  12.991  21.106  0.00  0.00    +0.000 A 
ATOM     14  N   UNL     1      -3.976  13.031  21.614  0.00  0.00    +0.000 NA
BRANCH  13  15
ATOM     15  N   UNL     1      -2.564  13.113  19.701  0.00  0.00    +0.000 N 
ATOM     16  H   UNL     1      -1.656  13.186  19.231  0.00  0.00    +0.000 HD
ATOM     17  H   UNL     1      -3.401  13.067  19.100  0.00  0.00    +0.000 HD
ENDBRANCH  13  15
ENDBRANCH   7  12
ENDBRANCH   1   7
BRANCH   4  18
ATOM     18  C   UNL     1       1.084   9.226  18.012  0.00  0.00    +0.000 C 
BRANCH  18  19
ATOM     19  C   UNL     1       2.509   8.635  18.012  0.00  0.00    +0.000 C 
BRANCH  19  20
ATOM     20  O   UNL     1       2.617   7.503  18.806  0.00  0.00    +0.000 OA
BRANCH  20  21
ATOM     21  C   UNL     1       3.250   6.359  18.431  0.00  0.00    +0.000 C 
ATOM     22  O   UNL     1       4.175   6.406  17.629  0.00  0.00    +0.000 OA
BRANCH  21  23
ATOM     23  C   UNL     1       2.807   5.003  18.965  0.00  0.00    +0.000 C 
ATOM     24  C   UNL     1       4.018   4.084  19.304  0.00  0.00    +0.000 C 
ATOM     25  C   UNL     1       3.516   2.718  19.831  0.00  0.00    +0.000 C 
ATOM     26  C   UNL     1       2.679   2.935  21.110  0.00  0.00    +0.000 C 
ATOM     27  C   UNL     1       1.470   3.840  20.786  0.00  0.00    +0.000 C 
ATOM     28  C   UNL     1       0.594   3.163  19.708  0.00  0.00    +0.000 C 
ATOM     29  C   UNL     1       1.431   2.937  18.429  0.00  0.00    +0.000 C 
ATOM     30  C   UNL     1       2.642   2.037  18.755  0.00  0.00    +0.000 C 
ATOM     31  C   UNL     1       1.932   4.296  17.894  0.00  0.00    +0.000 C 
ATOM     32  C   UNL     1       1.968   5.205  20.258  0.00  0.00    +0.000 C 
ENDBRANCH  21  23
ENDBRANCH  20  21
ENDBRANCH  19  20
ENDBRANCH  18  19
ENDBRANCH   4  18
TORSDOF 8
ENDMDL
MODEL 3
REMARK VINA RESULT:      -7.9      8.084     11.394
REMARK  Name = 
REMARK  10 active torsions:
REMARK  status: ('A' for Active; 'I' for Inactive)
REMARK    1  A    between atoms: C_1  and  C_2
REMARK    2  A    between atoms: C_5  and  C_6
REMARK    3  A    between atoms: C_6  and  N_7
REMARK    4  A    between atoms: C_10  and  C_11
REMARK    5  A    between atoms: C_11  and  C_12
REMARK    6  A    between atoms: C_12  and  O_13
REMARK    7  A    between atoms: O_13  and  C_14
REMARK    8  A    between atoms: C_14  and  C_16
REMARK    9  A    between atoms: C_26  and  C_27
REMARK   10  A    between atoms: C_28  and  N_29
REMARK                            x       y       z     vdW  Elec       q    Type
REMARK                         _______ _______ _______ _____ _____    ______ ____
ROOT
ATOM      1  N   UNL     1      -1.402  12.256  20.287  0.00  0.00    +0.000 N 
ATOM      2  C   UNL     1      -0.963  11.996  19.032  0.00  0.00    +0.000 A 
ATOM      3  S   UNL     1       0.190  10.789  19.033  0.00  0.00    +0.000 S 
ATOM      4  C   UNL     1       0.177  10.586  20.701  0.00  0.00    +0.000 A 
ATOM      5  C   UNL     1      -0.791  11.468  21.236  0.00  0.00    +0.000 A 
ATOM      6  C   UNL     1      -1.125  11.588  22.702  0.00  0.00    +0.000 C 
ENDROOT
BRANCH   1   7
ATOM      7  C   UNL     1      -2.380  13.329  20.555  0.00  0.00    +0.000 C 
BRANCH   7  12
ATOM      8  C   UNL     1      -7.766  11.240  20.710  0.00  0.00    +0.000 C 
ATOM      9  C   UNL     1      -6.385  11.801  20.681  0.00  0.00    +0.000 A 
ATOM     10  N   UNL     1      -5.677  11.818  19.526  0.00  0.00    +0.000 NA
ATOM     11  C   UNL     1      -4.412  12.305  19.492  0.00  0.00    +0.000 A 
ATOM     12  C   UNL     1      -3.800  12.805  20.655  0.00  0.00    +0.000 A 
ATOM     13  C   UNL     1      -4.576  12.806  21.846  0.00  0.00    +0.000 A 
ATOM     14  N   UNL     1      -5.835  12.299  21.816  0.00  0.00    +0.000 NA
BRANCH  13  15
ATOM     15  N   UNL     1      -4.104  13.341  23.073  0.00  0.00    +0.000 N 
ATOM     16  H   UNL     1      -3.197  13.105  23.485  0.00  0.00    +0.000 HD
ATOM     17  H   UNL     1      -4.670  14.054  23.558  0.00  0.00    +0.000 HD
ENDBRANCH  13  15
ENDBRANCH   7  12
ENDBRANCH   1   7
BRANCH   4  18
ATOM     18  C   UNL     1       1.125   9.651  21.419  0.00  0.00    +0.000 C 
BRANCH  18  19
ATOM     19  C   UNL     1       0.845   8.186  21.023  0.00  0.00    +0.000 C 
BRANCH  19  20
ATOM     20  O   UNL     1       2.002   7.486  20.714  0.00  0.00    +0.000 OA
BRANCH  20  21
ATOM     21  C   UNL     1       2.261   6.926  19.502  0.00  0.00    +0.000 C 
ATOM     22  O   UNL     1       2.375   7.638  18.512  0.00  0.00    +0.000 OA
BRANCH  21  23
ATOM     23  C   UNL     1       2.379   5.416  19.342  0.00  0.00    +0.000 C 
ATOM     24  C   UNL     1       1.520   4.648  20.390  0.00  0.00    +0.000 C 
ATOM     25  C   UNL     1       1.682   3.122  20.192  0.00  0.00    +0.000 C 
ATOM     26  C   UNL     1       1.209   2.732  18.775  0.00  0.00    +0.000 C 
ATOM     27  C   UNL     1       2.058   3.482  17.726  0.00  0.00    +0.000 C 
ATOM     28  C   UNL     1       3.544   3.096  17.894  0.00  0.00    +0.000 C 
ATOM     29  C   UNL     1       4.020   3.478  19.314  0.00  0.00    +0.000 C 
ATOM     30  C   UNL     1       3.167   2.733  20.362  0.00  0.00    +0.000 C 
ATOM     31  C   UNL     1       3.865   5.001  19.517  0.00  0.00    +0.000 C 
ATOM     32  C   UNL     1       1.899   5.007  17.921  0.00  0.00    +0.000 C 
ENDBRANCH  21  23
ENDBRANCH  20  21
ENDBRANCH  19  20
ENDBRANCH  18  19
ENDBRANCH   4  18
TORSDOF 8
ENDMDL
MODEL 4
REMARK VINA RESULT:      -7.9      7.329     10.958
REMARK  Name = 
REMARK  10 active torsions:
REMARK  status: ('A' for Active; 'I' for Inactive)
REMARK    1  A    between atoms: C_1  and  C_2
REMARK    2  A    between atoms: C_5  and  C_6
REMARK    3  A    between atoms: C_6  and  N_7
REMARK    4  A    between atoms: C_10  and  C_11
REMARK    5  A    between atoms: C_11  and  C_12
REMARK    6  A    between atoms: C_12  and  O_13
REMARK    7  A    between atoms: O_13  and  C_14
REMARK    8  A    between atoms: C_14  and  C_16
REMARK    9  A    between atoms: C_26  and  C_27
REMARK   10  A    between atoms: C_28  and  N_29
REMARK                            x       y       z     vdW  Elec       q    Type
REMARK                         _______ _______ _______ _____ _____    ______ ____
ROOT
ATOM      1  N   UNL     1      -0.256  11.791  20.499  0.00  0.00    +0.000 N 
ATOM      2  C   UNL     1      -0.413  10.603  21.131  0.00  0.00    +0.000 A 
ATOM      3  S   UNL     1       0.474   9.401  20.387  0.00  0.00    +0.000 S 
ATOM      4  C   UNL     1       1.077  10.402  19.178  0.00  0.00    +0.000 A 
ATOM      5  C   UNL     1       0.587  11.706  19.414  0.00  0.00    +0.000 A 
ATOM      6  C   UNL     1       0.904  12.910  18.561  0.00  0.00    +0.000 C 
ENDROOT
BRANCH   1   7
ATOM      7  C   UNL     1      -0.989  12.997  20.932  0.00  0.00    +0.000 C 
BRANCH   7  12
ATOM      8  C   UNL     1      -6.691  12.062  21.014  0.00  0.00    +0.000 C 
ATOM      9  C   UNL     1      -5.223  12.325  21.008  0.00  0.00    +0.000 A 
ATOM     10  N   UNL     1      -4.547  12.410  19.837  0.00  0.00    +0.000 NA
ATOM     11  C   UNL     1      -3.209  12.625  19.819  0.00  0.00    +0.000 A 
ATOM     12  C   UNL     1      -2.485  12.766  21.017  0.00  0.00    +0.000 A 
ATOM     13  C   UNL     1      -3.223  12.706  22.230  0.00  0.00    +0.000 A 
ATOM     14  N   UNL     1      -4.561  12.481  22.181  0.00  0.00    +0.000 NA
BRANCH  13  15
ATOM     15  N   UNL     1      -2.628  12.897  23.504  0.00  0.00    +0.000 N 
ATOM     16  H   UNL     1      -2.337  12.130  24.118  0.00  0.00    +0.000 HD
ATOM     17  H   UNL     1      -2.416  13.856  23.819  0.00  0.00    +0.000 HD
ENDBRANCH  13  15
ENDBRANCH   7  12
ENDBRANCH   1   7
BRANCH   4  18
ATOM     18  C   UNL     1       1.927   9.886  18.038  0.00  0.00    +0.000 C 
BRANCH  18  19
ATOM     19  C   UNL     1       1.783   8.356  17.903  0.00  0.00    +0.000 C 
BRANCH  19  20
ATOM     20  O   UNL     1       2.819   7.666  18.515  0.00  0.00    +0.000 OA
BRANCH  20  21
ATOM     21  C   UNL     1       3.314   6.477  18.079  0.00  0.00    +0.000 C 
ATOM     22  O   UNL     1       4.148   6.453  17.183  0.00  0.00    +0.000 OA
BRANCH  21  23
ATOM     23  C   UNL     1       2.823   5.159  18.664  0.00  0.00    +0.000 C 
ATOM     24  C   UNL     1       1.673   4.536  17.819  0.00  0.00    +0.000 C 
ATOM     25  C   UNL     1       1.204   3.207  18.459  0.00  0.00    +0.000 C 
ATOM     26  C   UNL     1       2.385   2.213  18.507  0.00  0.00    +0.000 C 
ATOM     27  C   UNL     1       3.530   2.816  19.349  0.00  0.00    +0.000 C 
ATOM     28  C   UNL     1       3.028   3.085  20.785  0.00  0.00    +0.000 C 
ATOM     29  C   UNL     1       1.841   4.075  20.740  0.00  0.00    +0.000 C 
ATOM     30  C   UNL     1       0.699   3.473  19.894  0.00  0.00    +0.000 C 
ATOM     31  C   UNL     1       2.302   5.405  20.106  0.00  0.00    +0.000 C 
ATOM     32  C   UNL     1       4.000   4.144  18.712  0.00  0.00    +0.000 C 
ENDBRANCH  21  23
ENDBRANCH  20  21
ENDBRANCH  19  20
ENDBRANCH  18  19
ENDBRANCH   4  18
TORSDOF 8
ENDMDL
MODEL 5
REMARK VINA RESULT:      -7.9      7.519     11.138
REMARK  Name = 
REMARK  10 active torsions:
REMARK  status: ('A' for Active; 'I' for Inactive)
REMARK    1  A    between atoms: C_1  and  C_2
REMARK    2  A    between atoms: C_5  and  C_6
REMARK    3  A    between atoms: C_6  and  N_7
REMARK    4  A    between atoms: C_10  and  C_11
REMARK    5  A    between atoms: C_11  and  C_12
REMARK    6  A    between atoms: C_12  and  O_13
REMARK    7  A    between atoms: O_13  and  C_14
REMARK    8  A    between atoms: C_14  and  C_16
REMARK    9  A    between atoms: C_26  and  C_27
REMARK   10  A    between atoms: C_28  and  N_29
REMARK                            x       y       z     vdW  Elec       q    Type
REMARK                         _______ _______ _______ _____ _____    ______ ____
ROOT
ATOM      1  N   UNL     1      -0.855  12.411  19.639  0.00  0.00    +0.000 N 
ATOM      2  C   UNL     1      -1.716  11.609  18.966  0.00  0.00    +0.000 A 
ATOM      3  S   UNL     1      -0.908  10.372  18.192  0.00  0.00    +0.000 S 
ATOM      4  C   UNL     1       0.619  10.868  18.691  0.00  0.00    +0.000 A 
ATOM      5  C   UNL     1       0.454  12.006  19.513  0.00  0.00    +0.000 A 
ATOM      6  C   UNL     1       1.583  12.755  20.179  0.00  0.00    +0.000 C 
ENDROOT
BRANCH   1   7
ATOM      7  C   UNL     1      -1.323  13.615  20.355  0.00  0.00    +0.000 C 
BRANCH   7  12
ATOM      8  C   UNL     1      -4.806  12.283  24.770  0.00  0.00    +0.000 C 
ATOM      9  C   UNL     1      -3.924  12.615  23.614  0.00  0.00    +0.000 A 
ATOM     10  N   UNL     1      -2.618  12.257  23.624  0.00  0.00    +0.000 NA
ATOM     11  C   UNL     1      -1.801  12.574  22.589  0.00  0.00    +0.000 A 
ATOM     12  C   UNL     1      -2.287  13.283  21.477  0.00  0.00    +0.000 A 
ATOM     13  C   UNL     1      -3.669  13.618  21.476  0.00  0.00    +0.000 A 
ATOM     14  N   UNL     1      -4.433  13.277  22.546  0.00  0.00    +0.000 NA
BRANCH  13  15
ATOM     15  N   UNL     1      -4.303  14.274  20.389  0.00  0.00    +0.000 N 
ATOM     16  H   UNL     1      -5.171  14.810  20.476  0.00  0.00    +0.000 HD
ATOM     17  H   UNL     1      -3.843  14.269  19.465  0.00  0.00    +0.000 HD
ENDBRANCH  13  15
ENDBRANCH   7  12
ENDBRANCH   1   7
BRANCH   4  18
ATOM     18  C   UNL     1       1.891  10.193  18.227  0.00  0.00    +0.000 C 
BRANCH  18  19
ATOM     19  C   UNL     1       1.616   8.725  17.841  0.00  0.00    +0.000 C 
BRANCH  19  20
ATOM     20  O   UNL     1       2.518   7.844  18.418  0.00  0.00    +0.000 OA
BRANCH  20  21
ATOM     21  C   UNL     1       2.245   7.063  19.498  0.00  0.00    +0.000 C 
ATOM     22  O   UNL     1       1.941   7.581  20.566  0.00  0.00    +0.000 OA
BRANCH  21  23
ATOM     23  C   UNL     1       2.344   5.546  19.417  0.00  0.00    +0.000 C 
ATOM     24  C   UNL     1       3.785   5.036  19.716  0.00  0.00    +0.000 C 
ATOM     25  C   UNL     1       3.834   3.493  19.610  0.00  0.00    +0.000 C 
ATOM     26  C   UNL     1       2.861   2.874  20.637  0.00  0.00    +0.000 C 
ATOM     27  C   UNL     1       1.427   3.366  20.347  0.00  0.00    +0.000 C 
ATOM     28  C   UNL     1       1.012   2.934  18.923  0.00  0.00    +0.000 C 
ATOM     29  C   UNL     1       1.988   3.546  17.892  0.00  0.00    +0.000 C 
ATOM     30  C   UNL     1       3.422   3.058  18.186  0.00  0.00    +0.000 C 
ATOM     31  C   UNL     1       1.941   5.086  17.989  0.00  0.00    +0.000 C 
ATOM     32  C   UNL     1       1.374   4.907  20.451  0.00  0.00    +0.000 C 
ENDBRANCH  21  23
ENDBRANCH  20  21
ENDBRANCH  19  20
ENDBRANCH  18  19
ENDBRANCH   4  18
TORSDOF 8
ENDMDL
MODEL 6
REMARK VINA RESULT:      -7.9      6.102      9.472
REMARK  Name = 
REMARK  10 active torsions:
REMARK  status: ('A' for Active; 'I' for Inactive)
REMARK    1  A    between atoms: C_1  and  C_2
REMARK    2  A    between atoms: C_5  and  C_6
REMARK    3  A    between atoms: C_6  and  N_7
REMARK    4  A    between atoms: C_10  and  C_11
REMARK    5  A    between atoms: C_11  and  C_12
REMARK    6  A    between atoms: C_12  and  O_13
REMARK    7  A    between atoms: O_13  and  C_14
REMARK    8  A    between atoms: C_14  and  C_16
REMARK    9  A    between atoms: C_26  and  C_27
REMARK   10  A    between atoms: C_28  and  N_29
REMARK                            x       y       z     vdW  Elec       q    Type
REMARK                         _______ _______ _______ _____ _____    ______ ____
ROOT
ATOM      1  N   UNL     1       0.285   9.992  19.554  0.00  0.00    +0.000 N 
ATOM      2  C   UNL     1       0.799   9.924  18.302  0.00  0.00    +0.000 A 
ATOM      3  S   UNL     1       1.833   8.625  18.142  0.00  0.00    +0.000 S 
ATOM      4  C   UNL     1       1.666   8.118  19.737  0.00  0.00    +0.000 A 
ATOM      5  C   UNL     1       0.743   8.982  20.369  0.00  0.00    +0.000 A 
ATOM      6  C   UNL     1       0.302   8.863  21.807  0.00  0.00    +0.000 C 
ENDROOT
BRANCH   1   7
ATOM      7  C   UNL     1      -0.610  11.093  19.961  0.00  0.00    +0.000 C 
BRANCH   7  12
ATOM      8  C   UNL     1       2.066  16.211  19.745  0.00  0.00    +0.000 C 
ATOM      9  C   UNL     1       1.353  14.902  19.796  0.00  0.00    +0.000 A 
ATOM     10  N   UNL     1       1.497  14.084  20.866  0.00  0.00    +0.000 NA
ATOM     11  C   UNL     1       0.872  12.882  20.914  0.00  0.00    +0.000 A 
ATOM     12  C   UNL     1       0.056  12.451  19.853  0.00  0.00    +0.000 A 
ATOM     13  C   UNL     1      -0.106  13.342  18.757  0.00  0.00    +0.000 A 
ATOM     14  N   UNL     1       0.553  14.529  18.766  0.00  0.00    +0.000 NA
BRANCH  13  15
ATOM     15  N   UNL     1      -0.951  13.060  17.653  0.00  0.00    +0.000 N 
ATOM     16  H   UNL     1      -1.965  12.931  17.730  0.00  0.00    +0.000 HD
ATOM     17  H   UNL     1      -0.546  13.040  16.704  0.00  0.00    +0.000 HD
ENDBRANCH  13  15
ENDBRANCH   7  12
ENDBRANCH   1   7
BRANCH   4  18
ATOM     18  C   UNL     1       2.464   6.972  20.319  0.00  0.00    +0.000 C 
BRANCH  18  19
ATOM     19  C   UNL     1       1.755   5.628  20.052  0.00  0.00    +0.000 C 
BRANCH  19  20
ATOM     20  O   UNL     1       2.315   4.931  18.991  0.00  0.00    +0.000 OA
BRANCH  20  21
ATOM     21  C   UNL     1       3.553   4.369  19.009  0.00  0.00    +0.000 C 
ATOM     22  O   UNL     1       3.804   3.467  19.799  0.00  0.00    +0.000 OA
BRANCH  21  23
ATOM     23  C   UNL     1       4.656   4.864  18.083  0.00  0.00    +0.000 C 
ATOM     24  C   UNL     1       4.230   6.140  17.297  0.00  0.00    +0.000 C 
ATOM     25  C   UNL     1       5.378   6.595  16.364  0.00  0.00    +0.000 C 
ATOM     26  C   UNL     1       6.629   6.921  17.208  0.00  0.00    +0.000 C 
ATOM     27  C   UNL     1       7.066   5.661  17.986  0.00  0.00    +0.000 C 
ATOM     28  C   UNL     1       7.400   4.529  16.990  0.00  0.00    +0.000 C 
ATOM     29  C   UNL     1       6.151   4.206  16.139  0.00  0.00    +0.000 C 
ATOM     30  C   UNL     1       5.712   5.467  15.365  0.00  0.00    +0.000 C 
ATOM     31  C   UNL     1       5.003   3.746  17.062  0.00  0.00    +0.000 C 
ATOM     32  C   UNL     1       5.922   5.203  18.919  0.00  0.00    +0.000 C 
ENDBRANCH  21  23
ENDBRANCH  20  21
ENDBRANCH  19  20
ENDBRANCH  18  19
ENDBRANCH   4  18
TORSDOF 8
ENDMDL
MODEL 7
REMARK VINA RESULT:      -7.8      6.208      9.378
REMARK  Name = 
REMARK  10 active torsions:
REMARK  status: ('A' for Active; 'I' for Inactive)
REMARK    1  A    between atoms: C_1  and  C_2
REMARK    2  A    between atoms: C_5  and  C_6
REMARK    3  A    between atoms: C_6  and  N_7
REMARK    4  A    between atoms: C_10  and  C_11
REMARK    5  A    between atoms: C_11  and  C_12
REMARK    6  A    between atoms: C_12  and  O_13
REMARK    7  A    between atoms: O_13  and  C_14
REMARK    8  A    between atoms: C_14  and  C_16
REMARK    9  A    between atoms: C_26  and  C_27
REMARK   10  A    between atoms: C_28  and  N_29
REMARK                            x       y       z     vdW  Elec       q    Type
REMARK                         _______ _______ _______ _____ _____    ______ ____
ROOT
ATOM      1  N   UNL     1       0.391   9.828  19.425  0.00  0.00    +0.000 N 
ATOM      2  C   UNL     1      -0.017   9.768  20.716  0.00  0.00    +0.000 A 
ATOM      3  S   UNL     1       0.794   8.574  21.552  0.00  0.00    +0.000 S 
ATOM      4  C   UNL     1       1.697   8.066  20.228  0.00  0.00    +0.000 A 
ATOM      5  C   UNL     1       1.362   8.896  19.134  0.00  0.00    +0.000 A 
ATOM      6  C   UNL     1       1.962   8.782  17.754  0.00  0.00    +0.000 C 
ENDROOT
BRANCH   1   7
ATOM      7  C   UNL     1      -0.224  10.765  18.465  0.00  0.00    +0.000 C 
BRANCH   7  12
ATOM      8  C   UNL     1       1.694  16.163  19.225  0.00  0.00    +0.000 C 
ATOM      9  C   UNL     1       1.187  14.771  19.052  0.00  0.00    +0.000 A 
ATOM     10  N   UNL     1       2.042  13.763  18.759  0.00  0.00    +0.000 NA
ATOM     11  C   UNL     1       1.590  12.498  18.577  0.00  0.00    +0.000 A 
ATOM     12  C   UNL     1       0.221  12.197  18.688  0.00  0.00    +0.000 A 
ATOM     13  C   UNL     1      -0.651  13.267  19.029  0.00  0.00    +0.000 A 
ATOM     14  N   UNL     1      -0.137  14.514  19.192  0.00  0.00    +0.000 NA
BRANCH  13  15
ATOM     15  N   UNL     1      -2.043  13.091  19.236  0.00  0.00    +0.000 N 
ATOM     16  H   UNL     1      -2.558  13.499  20.022  0.00  0.00    +0.000 HD
ATOM     17  H   UNL     1      -2.593  12.574  18.532  0.00  0.00    +0.000 HD
ENDBRANCH  13  15
ENDBRANCH   7  12
ENDBRANCH   1   7
BRANCH   4  18
ATOM     18  C   UNL     1       2.624   6.872  20.279  0.00  0.00    +0.000 C 
BRANCH  18  19
ATOM     19  C   UNL     1       1.841   5.566  20.025  0.00  0.00    +0.000 C 
BRANCH  19  20
ATOM     20  O   UNL     1       2.157   4.984  18.807  0.00  0.00    +0.000 OA
BRANCH  20  21
ATOM     21  C   UNL     1       3.236   4.184  18.594  0.00  0.00    +0.000 C 
ATOM     22  O   UNL     1       3.247   3.042  19.034  0.00  0.00    +0.000 OA
BRANCH  21  23
ATOM     23  C   UNL     1       4.458   4.696  17.841  0.00  0.00    +0.000 C 
ATOM     24  C   UNL     1       4.994   3.651  16.818  0.00  0.00    +0.000 C 
ATOM     25  C   UNL     1       6.239   4.214  16.090  0.00  0.00    +0.000 C 
ATOM     26  C   UNL     1       5.855   5.503  15.334  0.00  0.00    +0.000 C 
ATOM     27  C   UNL     1       5.328   6.551  16.339  0.00  0.00    +0.000 C 
ATOM     28  C   UNL     1       6.429   6.871  17.374  0.00  0.00    +0.000 C 
ATOM     29  C   UNL     1       6.821   5.580  18.128  0.00  0.00    +0.000 C 
ATOM     30  C   UNL     1       7.343   4.532  17.122  0.00  0.00    +0.000 C 
ATOM     31  C   UNL     1       5.585   5.016  18.861  0.00  0.00    +0.000 C 
ATOM     32  C   UNL     1       4.085   5.992  17.069  0.00  0.00    +0.000 C 
ENDBRANCH  21  23
ENDBRANCH  20  21
ENDBRANCH  19  20
ENDBRANCH  18  19
ENDBRANCH   4  18
TORSDOF 8
ENDMDL
MODEL 8
REMARK VINA RESULT:      -7.8      7.961     11.374
REMARK  Name = 
REMARK  10 active torsions:
REMARK  status: ('A' for Active; 'I' for Inactive)
REMARK    1  A    between atoms: C_1  and  C_2
REMARK    2  A    between atoms: C_5  and  C_6
REMARK    3  A    between atoms: C_6  and  N_7
REMARK    4  A    between atoms: C_10  and  C_11
REMARK    5  A    between atoms: C_11  and  C_12
REMARK    6  A    between atoms: C_12  and  O_13
REMARK    7  A    between atoms: O_13  and  C_14
REMARK    8  A    between atoms: C_14  and  C_16
REMARK    9  A    between atoms: C_26  and  C_27
REMARK   10  A    between atoms: C_28  and  N_29
REMARK                            x       y       z     vdW  Elec       q    Type
REMARK                         _______ _______ _______ _____ _____    ______ ____
ROOT
ATOM      1  N   UNL     1      -1.077  11.561  21.045  0.00  0.00    +0.000 N 
ATOM      2  C   UNL     1      -1.116  11.500  22.398  0.00  0.00    +0.000 A 
ATOM      3  S   UNL     1      -0.454  10.075  22.958  0.00  0.00    +0.000 S 
ATOM      4  C   UNL     1      -0.118   9.467  21.427  0.00  0.00    +0.000 A 
ATOM      5  C   UNL     1      -0.507  10.442  20.481  0.00  0.00    +0.000 A 
ATOM      6  C   UNL     1      -0.361  10.295  18.986  0.00  0.00    +0.000 C 
ENDROOT
BRANCH   1   7
ATOM      7  C   UNL     1      -1.660  12.699  20.307  0.00  0.00    +0.000 C 
BRANCH   7  12
ATOM      8  C   UNL     1      -7.279  11.908  19.208  0.00  0.00    +0.000 C 
ATOM      9  C   UNL     1      -5.833  12.138  19.495  0.00  0.00    +0.000 A 
ATOM     10  N   UNL     1      -4.885  11.701  18.632  0.00  0.00    +0.000 NA
ATOM     11  C   UNL     1      -3.568  11.883  18.893  0.00  0.00    +0.000 A 
ATOM     12  C   UNL     1      -3.148  12.532  20.068  0.00  0.00    +0.000 A 
ATOM     13  C   UNL     1      -4.163  13.010  20.941  0.00  0.00    +0.000 A 
ATOM     14  N   UNL     1      -5.466  12.790  20.626  0.00  0.00    +0.000 NA
BRANCH  13  15
ATOM     15  N   UNL     1      -3.880  13.738  22.126  0.00  0.00    +0.000 N 
ATOM     16  H   UNL     1      -4.196  14.698  22.293  0.00  0.00    +0.000 HD
ATOM     17  H   UNL     1      -3.379  13.267  22.895  0.00  0.00    +0.000 HD
ENDBRANCH  13  15
ENDBRANCH   7  12
ENDBRANCH   1   7
BRANCH   4  18
ATOM     18  C   UNL     1       0.436   8.077  21.203  0.00  0.00    +0.000 C 
BRANCH  18  19
ATOM     19  C   UNL     1       1.791   8.146  20.467  0.00  0.00    +0.000 C 
BRANCH  19  20
ATOM     20  O   UNL     1       1.775   7.472  19.255  0.00  0.00    +0.000 OA
BRANCH  20  21
ATOM     21  C   UNL     1       2.686   6.533  18.886  0.00  0.00    +0.000 C 
ATOM     22  O   UNL     1       3.697   6.866  18.279  0.00  0.00    +0.000 OA
BRANCH  21  23
ATOM     23  C   UNL     1       2.460   5.056  19.183  0.00  0.00    +0.000 C 
ATOM     24  C   UNL     1       1.438   4.843  20.340  0.00  0.00    +0.000 C 
ATOM     25  C   UNL     1       1.252   3.330  20.610  0.00  0.00    +0.000 C 
ATOM     26  C   UNL     1       0.716   2.642  19.336  0.00  0.00    +0.000 C 
ATOM     27  C   UNL     1       1.724   2.840  18.183  0.00  0.00    +0.000 C 
ATOM     28  C   UNL     1       3.082   2.214  18.572  0.00  0.00    +0.000 C 
ATOM     29  C   UNL     1       3.617   2.897  19.851  0.00  0.00    +0.000 C 
ATOM     30  C   UNL     1       2.608   2.703  21.002  0.00  0.00    +0.000 C 
ATOM     31  C   UNL     1       3.811   4.406  19.588  0.00  0.00    +0.000 C 
ATOM     32  C   UNL     1       1.913   4.349  17.911  0.00  0.00    +0.000 C 
ENDBRANCH  21  23
ENDBRANCH  20  21
ENDBRANCH  19  20
ENDBRANCH  18  19
ENDBRANCH   4  18
TORSDOF 8
ENDMDL
MODEL 9
REMARK VINA RESULT:      -7.7      6.232      9.575
REMARK  Name = 
REMARK  10 active torsions:
REMARK  status: ('A' for Active; 'I' for Inactive)
REMARK    1  A    between atoms: C_1  and  C_2
REMARK    2  A    between atoms: C_5  and  C_6
REMARK    3  A    between atoms: C_6  and  N_7
REMARK    4  A    between atoms: C_10  and  C_11
REMARK    5  A    between atoms: C_11  and  C_12
REMARK    6  A    between atoms: C_12  and  O_13
REMARK    7  A    between atoms: O_13  and  C_14
REMARK    8  A    between atoms: C_14  and  C_16
REMARK    9  A    between atoms: C_26  and  C_27
REMARK   10  A    between atoms: C_28  and  N_29
REMARK                            x       y       z     vdW  Elec       q    Type
REMARK                         _______ _______ _______ _____ _____    ______ ____
ROOT
ATOM      1  N   UNL     1       0.198   9.952  19.450  0.00  0.00    +0.000 N 
ATOM      2  C   UNL     1      -0.235   9.805  20.725  0.00  0.00    +0.000 A 
ATOM      3  S   UNL     1       0.645   8.640  21.532  0.00  0.00    +0.000 S 
ATOM      4  C   UNL     1       1.615   8.259  20.212  0.00  0.00    +0.000 A 
ATOM      5  C   UNL     1       1.243   9.109  19.145  0.00  0.00    +0.000 A 
ATOM      6  C   UNL     1       1.882   9.100  17.778  0.00  0.00    +0.000 C 
ENDROOT
BRANCH   1   7
ATOM      7  C   UNL     1      -0.464  10.881  18.513  0.00  0.00    +0.000 C 
BRANCH   7  12
ATOM      8  C   UNL     1       1.067  16.371  19.471  0.00  0.00    +0.000 C 
ATOM      9  C   UNL     1       0.663  14.953  19.248  0.00  0.00    +0.000 A 
ATOM     10  N   UNL     1       1.562  14.047  18.792  0.00  0.00    +0.000 NA
ATOM     11  C   UNL     1       1.200  12.761  18.564  0.00  0.00    +0.000 A 
ATOM     12  C   UNL     1      -0.119  12.331  18.794  0.00  0.00    +0.000 A 
ATOM     13  C   UNL     1      -1.034  13.292  19.304  0.00  0.00    +0.000 A 
ATOM     14  N   UNL     1      -0.611  14.567  19.505  0.00  0.00    +0.000 NA
BRANCH  13  15
ATOM     15  N   UNL     1      -2.375  12.976  19.641  0.00  0.00    +0.000 N 
ATOM     16  H   UNL     1      -3.168  13.105  19.005  0.00  0.00    +0.000 HD
ATOM     17  H   UNL     1      -2.572  12.534  20.553  0.00  0.00    +0.000 HD
ENDBRANCH  13  15
ENDBRANCH   7  12
ENDBRANCH   1   7
BRANCH   4  18
ATOM     18  C   UNL     1       2.628   7.137  20.239  0.00  0.00    +0.000 C 
BRANCH  18  19
ATOM     19  C   UNL     1       1.931   5.772  20.055  0.00  0.00    +0.000 C 
BRANCH  19  20
ATOM     20  O   UNL     1       2.831   4.740  19.834  0.00  0.00    +0.000 OA
BRANCH  20  21
ATOM     21  C   UNL     1       3.165   4.262  18.606  0.00  0.00    +0.000 C 
ATOM     22  O   UNL     1       2.503   3.365  18.097  0.00  0.00    +0.000 OA
BRANCH  21  23
ATOM     23  C   UNL     1       4.378   4.798  17.856  0.00  0.00    +0.000 C 
ATOM     24  C   UNL     1       4.063   6.130  17.113  0.00  0.00    +0.000 C 
ATOM     25  C   UNL     1       5.321   6.627  16.360  0.00  0.00    +0.000 C 
ATOM     26  C   UNL     1       6.461   6.875  17.370  0.00  0.00    +0.000 C 
ATOM     27  C   UNL     1       6.788   5.560  18.109  0.00  0.00    +0.000 C 
ATOM     28  C   UNL     1       7.233   4.490  17.086  0.00  0.00    +0.000 C 
ATOM     29  C   UNL     1       6.095   4.244  16.069  0.00  0.00    +0.000 C 
ATOM     30  C   UNL     1       5.765   5.561  15.334  0.00  0.00    +0.000 C 
ATOM     31  C   UNL     1       4.838   3.744  16.812  0.00  0.00    +0.000 C 
ATOM     32  C   UNL     1       5.534   5.060  18.862  0.00  0.00    +0.000 C 
ENDBRANCH  21  23
ENDBRANCH  20  21
ENDBRANCH  19  20
ENDBRANCH  18  19
ENDBRANCH   4  18
TORSDOF 8
ENDMDL
