MODEL 1
REMARK VINA RESULT:      -8.0      0.000      0.000
REMARK  Name = 
REMARK  7 active torsions:
REMARK  status: ('A' for Active; 'I' for Inactive)
REMARK    1  A    between atoms: C_1  and  S_2
REMARK    2  A    between atoms: S_2  and  C_3
REMARK    3  A    between atoms: C_5  and  C_6
REMARK    4  A    between atoms: C_10  and  C_11
REMARK    5  A    between atoms: N_15  and  C_16
REMARK    6  A    between atoms: C_19  and  C_20
REMARK    7  A    between atoms: C_20  and  C_21
REMARK                            x       y       z     vdW  Elec       q    Type
REMARK                         _______ _______ _______ _____ _____    ______ ____
ROOT
ATOM      1  C   UNL     1      -1.448  12.061  18.737  0.00  0.00    +0.000 A 
ATOM      2  C   UNL     1      -0.792  13.268  18.836  0.00  0.00    +0.000 A 
ATOM      3  S   UNL     1       0.900  13.018  18.692  0.00  0.00    +0.000 S 
ATOM      4  C   UNL     1       0.639  11.315  18.620  0.00  0.00    +0.000 A 
ATOM      5  N   UNL     1       1.681  10.463  18.491  0.00  0.00    +0.000 N 
ATOM      6  N   UNL     1      -0.625  10.958  18.672  0.00  0.00    +0.000 NA
ATOM      7  H   UNL     1       2.589  10.840  18.248  0.00  0.00    +0.000 HD
ENDROOT
BRANCH   5   8
ATOM      8  C   UNL     1       1.733   9.167  19.039  0.00  0.00    +0.000 A 
ATOM      9  C   UNL     1       1.304   8.964  20.356  0.00  0.00    +0.000 A 
ATOM     10  C   UNL     1       1.382   7.699  20.951  0.00  0.00    +0.000 A 
ATOM     11  C   UNL     1       1.890   6.605  20.239  0.00  0.00    +0.000 A 
ATOM     12  C   UNL     1       2.320   6.801  18.922  0.00  0.00    +0.000 A 
ATOM     13  C   UNL     1       2.258   8.069  18.341  0.00  0.00    +0.000 A 
BRANCH  11  14
ATOM     14  C   UNL     1       1.988   5.244  20.888  0.00  0.00    +0.000 C 
BRANCH  14  15
ATOM     15  C   UNL     1       2.199   4.099  19.927  0.00  0.00    +0.000 A 
ATOM     16  C   UNL     1       1.104   3.407  19.387  0.00  0.00    +0.000 A 
ATOM     17  C   UNL     1       1.300   2.379  18.460  0.00  0.00    +0.000 A 
ATOM     18  C   UNL     1       2.591   2.029  18.069  0.00  0.00    +0.000 A 
ATOM     19  C   UNL     1       3.687   2.694  18.614  0.00  0.00    +0.000 A 
ATOM     20  C   UNL     1       3.494   3.719  19.542  0.00  0.00    +0.000 A 
ENDBRANCH  14  15
ENDBRANCH  11  14
ENDBRANCH   5   8
BRANCH   1  25
ATOM     21  C   UNL     1      -3.604  10.946  17.897  0.00  0.00    +0.000 A 
ATOM     22  S   UNL     1      -5.285  10.996  18.229  0.00  0.00    +0.000 S 
ATOM     23  C   UNL     1      -5.082  12.091  19.526  0.00  0.00    +0.000 A 
ATOM     24  C   UNL     1      -3.759  12.455  19.663  0.00  0.00    +0.000 A 
ATOM     25  C   UNL     1      -2.898  11.812  18.711  0.00  0.00    +0.000 A 
BRANCH  23  26
ATOM     26  C   UNL     1      -6.220  12.516  20.330  0.00  0.00    +0.000 C 
ATOM     27  N   UNL     1      -6.981  13.495  19.955  0.00  0.00    +0.000 NA
ATOM     28  N   UNL     1      -6.566  11.941  21.518  0.00  0.00    +0.000 N 
ATOM     29  H   UNL     1      -6.645  13.853  19.051  0.00  0.00    +0.000 HD
ATOM     30  H   UNL     1      -5.810  11.587  22.086  0.00  0.00    +0.000 HD
ATOM     31  H   UNL     1      -7.223  12.525  22.024  0.00  0.00    +0.000 HD
ENDBRANCH  23  26
BRANCH  21  33
ATOM     32  C   UNL     1      -3.246  10.871  15.194  0.00  0.00    +0.000 C 
ATOM     33  S   UNL     1      -2.993   9.844  16.664  0.00  0.00    +0.000 S 
ENDBRANCH  21  33
ENDBRANCH   1  25
TORSDOF 6
ENDMDL
MODEL 2
REMARK VINA RESULT:      -7.9      3.803      6.294
REMARK  Name = 
REMARK  7 active torsions:
REMARK  status: ('A' for Active; 'I' for Inactive)
REMARK    1  A    between atoms: C_1  and  S_2
REMARK    2  A    between atoms: S_2  and  C_3
REMARK    3  A    between atoms: C_5  and  C_6
REMARK    4  A    between atoms: C_10  and  C_11
REMARK    5  A    between atoms: N_15  and  C_16
REMARK    6  A    between atoms: C_19  and  C_20
REMARK    7  A    between atoms: C_20  and  C_21
REMARK                            x       y       z     vdW  Elec       q    Type
REMARK                         _______ _______ _______ _____ _____    ______ ____
ROOT
ATOM      1  C   UNL     1       1.906  13.804  19.652  0.00  0.00    +0.000 A 
ATOM      2  C   UNL     1       0.937  14.478  18.942  0.00  0.00    +0.000 A 
ATOM      3  S   UNL     1      -0.356  13.411  18.575  0.00  0.00    +0.000 S 
ATOM      4  C   UNL     1       0.519  12.109  19.292  0.00  0.00    +0.000 A 
ATOM      5  N   UNL     1      -0.008  10.864  19.332  0.00  0.00    +0.000 N 
ATOM      6  N   UNL     1       1.684  12.451  19.794  0.00  0.00    +0.000 NA
ATOM      7  H   UNL     1      -0.989  10.745  19.112  0.00  0.00    +0.000 HD
ENDROOT
BRANCH   5   8
ATOM      8  C   UNL     1       0.738   9.672  19.262  0.00  0.00    +0.000 A 
ATOM      9  C   UNL     1       0.953   8.932  20.430  0.00  0.00    +0.000 A 
ATOM     10  C   UNL     1       1.728   7.765  20.409  0.00  0.00    +0.000 A 
ATOM     11  C   UNL     1       2.303   7.311  19.216  0.00  0.00    +0.000 A 
ATOM     12  C   UNL     1       2.090   8.046  18.044  0.00  0.00    +0.000 A 
ATOM     13  C   UNL     1       1.334   9.220  18.076  0.00  0.00    +0.000 A 
BRANCH  11  14
ATOM     14  C   UNL     1       3.151   6.061  19.197  0.00  0.00    +0.000 C 
BRANCH  14  15
ATOM     15  C   UNL     1       2.396   4.779  19.456  0.00  0.00    +0.000 A 
ATOM     16  C   UNL     1       2.396   4.193  20.730  0.00  0.00    +0.000 A 
ATOM     17  C   UNL     1       1.657   3.034  20.980  0.00  0.00    +0.000 A 
ATOM     18  C   UNL     1       0.916   2.445  19.956  0.00  0.00    +0.000 A 
ATOM     19  C   UNL     1       0.924   3.006  18.681  0.00  0.00    +0.000 A 
ATOM     20  C   UNL     1       1.664   4.163  18.430  0.00  0.00    +0.000 A 
ENDBRANCH  14  15
ENDBRANCH  11  14
ENDBRANCH   5   8
BRANCH   1  25
ATOM     21  C   UNL     1       4.238  14.879  19.609  0.00  0.00    +0.000 A 
ATOM     22  S   UNL     1       5.438  15.379  20.726  0.00  0.00    +0.000 S 
ATOM     23  C   UNL     1       4.467  14.984  22.076  0.00  0.00    +0.000 A 
ATOM     24  C   UNL     1       3.270  14.427  21.677  0.00  0.00    +0.000 A 
ATOM     25  C   UNL     1       3.137  14.344  20.250  0.00  0.00    +0.000 A 
BRANCH  23  26
ATOM     26  C   UNL     1       4.927  15.251  23.432  0.00  0.00    +0.000 C 
ATOM     27  N   UNL     1       5.029  14.302  24.307  0.00  0.00    +0.000 NA
ATOM     28  N   UNL     1       5.273  16.491  23.885  0.00  0.00    +0.000 N 
ATOM     29  H   UNL     1       4.757  13.411  23.870  0.00  0.00    +0.000 HD
ATOM     30  H   UNL     1       4.766  17.272  23.495  0.00  0.00    +0.000 HD
ATOM     31  H   UNL     1       5.332  16.502  24.898  0.00  0.00    +0.000 HD
ENDBRANCH  23  26
BRANCH  21  33
ATOM     32  C   UNL     1       3.483  16.596  17.628  0.00  0.00    +0.000 C 
ATOM     33  S   UNL     1       4.502  15.121  17.882  0.00  0.00    +0.000 S 
ENDBRANCH  21  33
ENDBRANCH   1  25
TORSDOF 6
ENDMDL
MODEL 3
REMARK VINA RESULT:      -7.9      1.644      2.548
REMARK  Name = 
REMARK  7 active torsions:
REMARK  status: ('A' for Active; 'I' for Inactive)
REMARK    1  A    between atoms: C_1  and  S_2
REMARK    2  A    between atoms: S_2  and  C_3
REMARK    3  A    between atoms: C_5  and  C_6
REMARK    4  A    between atoms: C_10  and  C_11
REMARK    5  A    between atoms: N_15  and  C_16
REMARK    6  A    between atoms: C_19  and  C_20
REMARK    7  A    between atoms: C_20  and  C_21
REMARK                            x       y       z     vdW  Elec       q    Type
REMARK                         _______ _______ _______ _____ _____    ______ ____
ROOT
ATOM      1  C   UNL     1      -1.458  12.521  19.231  0.00  0.00    +0.000 A 
ATOM      2  C   UNL     1      -0.747  13.688  19.059  0.00  0.00    +0.000 A 
ATOM      3  S   UNL     1       0.842  13.323  18.526  0.00  0.00    +0.000 S 
ATOM      4  C   UNL     1       0.501  11.638  18.669  0.00  0.00    +0.000 A 
ATOM      5  N   UNL     1       1.441  10.716  18.363  0.00  0.00    +0.000 N 
ATOM      6  N   UNL     1      -0.724  11.366  19.061  0.00  0.00    +0.000 NA
ATOM      7  H   UNL     1       2.273  11.016  17.873  0.00  0.00    +0.000 HD
ENDROOT
BRANCH   5   8
ATOM      8  C   UNL     1       1.573   9.463  18.993  0.00  0.00    +0.000 A 
ATOM      9  C   UNL     1       2.107   8.389  18.271  0.00  0.00    +0.000 A 
ATOM     10  C   UNL     1       2.213   7.117  18.847  0.00  0.00    +0.000 A 
ATOM     11  C   UNL     1       1.789   6.892  20.163  0.00  0.00    +0.000 A 
ATOM     12  C   UNL     1       1.256   7.961  20.890  0.00  0.00    +0.000 A 
ATOM     13  C   UNL     1       1.134   9.223  20.303  0.00  0.00    +0.000 A 
BRANCH  11  14
ATOM     14  C   UNL     1       1.889   5.515  20.778  0.00  0.00    +0.000 C 
BRANCH  14  15
ATOM     15  C   UNL     1       2.209   4.408  19.802  0.00  0.00    +0.000 A 
ATOM     16  C   UNL     1       1.182   3.670  19.195  0.00  0.00    +0.000 A 
ATOM     17  C   UNL     1       1.478   2.679  18.256  0.00  0.00    +0.000 A 
ATOM     18  C   UNL     1       2.803   2.410  17.920  0.00  0.00    +0.000 A 
ATOM     19  C   UNL     1       3.834   3.120  18.532  0.00  0.00    +0.000 A 
ATOM     20  C   UNL     1       3.540   4.110  19.472  0.00  0.00    +0.000 A 
ENDBRANCH  14  15
ENDBRANCH  11  14
ENDBRANCH   5   8
BRANCH   1  25
ATOM     21  C   UNL     1      -3.515  12.732  20.753  0.00  0.00    +0.000 A 
ATOM     22  S   UNL     1      -5.184  12.343  20.712  0.00  0.00    +0.000 S 
ATOM     23  C   UNL     1      -5.098  11.773  19.102  0.00  0.00    +0.000 A 
ATOM     24  C   UNL     1      -3.804  11.827  18.628  0.00  0.00    +0.000 A 
ATOM     25  C   UNL     1      -2.877  12.362  19.584  0.00  0.00    +0.000 A 
BRANCH  23  26
ATOM     26  C   UNL     1      -6.294  11.322  18.404  0.00  0.00    +0.000 C 
ATOM     27  N   UNL     1      -6.706  11.909  17.326  0.00  0.00    +0.000 NA
ATOM     28  N   UNL     1      -7.065  10.275  18.820  0.00  0.00    +0.000 N 
ATOM     29  H   UNL     1      -6.058  12.673  17.091  0.00  0.00    +0.000 HD
ATOM     30  H   UNL     1      -7.128  10.129  19.817  0.00  0.00    +0.000 HD
ATOM     31  H   UNL     1      -7.961  10.276  18.346  0.00  0.00    +0.000 HD
ENDBRANCH  23  26
BRANCH  21  33
ATOM     32  C   UNL     1      -3.449  12.425  23.463  0.00  0.00    +0.000 C 
ATOM     33  S   UNL     1      -2.845  13.540  22.170  0.00  0.00    +0.000 S 
ENDBRANCH  21  33
ENDBRANCH   1  25
TORSDOF 6
ENDMDL
MODEL 4
REMARK VINA RESULT:      -7.9      3.092      5.182
REMARK  Name = 
REMARK  7 active torsions:
REMARK  status: ('A' for Active; 'I' for Inactive)
REMARK    1  A    between atoms: C_1  and  S_2
REMARK    2  A    between atoms: S_2  and  C_3
REMARK    3  A    between atoms: C_5  and  C_6
REMARK    4  A    between atoms: C_10  and  C_11
REMARK    5  A    between atoms: N_15  and  C_16
REMARK    6  A    between atoms: C_19  and  C_20
REMARK    7  A    between atoms: C_20  and  C_21
REMARK                            x       y       z     vdW  Elec       q    Type
REMARK                         _______ _______ _______ _____ _____    ______ ____
ROOT
ATOM      1  C   UNL     1       0.209  10.754  20.868  0.00  0.00    +0.000 A 
ATOM      2  C   UNL     1      -0.563  10.668  22.006  0.00  0.00    +0.000 A 
ATOM      3  S   UNL     1      -0.199   9.214  22.842  0.00  0.00    +0.000 S 
ATOM      4  C   UNL     1       0.876   8.757  21.573  0.00  0.00    +0.000 A 
ATOM      5  N   UNL     1       1.555   7.589  21.633  0.00  0.00    +0.000 N 
ATOM      6  N   UNL     1       0.978   9.640  20.606  0.00  0.00    +0.000 NA
ATOM      7  H   UNL     1       1.572   7.082  22.508  0.00  0.00    +0.000 HD
ENDROOT
BRANCH   5   8
ATOM      8  C   UNL     1       1.910   6.808  20.517  0.00  0.00    +0.000 A 
ATOM      9  C   UNL     1       1.828   5.413  20.606  0.00  0.00    +0.000 A 
ATOM     10  C   UNL     1       2.215   4.599  19.534  0.00  0.00    +0.000 A 
ATOM     11  C   UNL     1       2.691   5.165  18.344  0.00  0.00    +0.000 A 
ATOM     12  C   UNL     1       2.774   6.559  18.248  0.00  0.00    +0.000 A 
ATOM     13  C   UNL     1       2.406   7.363  19.329  0.00  0.00    +0.000 A 
BRANCH  11  14
ATOM     14  C   UNL     1       3.123   4.286  17.194  0.00  0.00    +0.000 C 
BRANCH  14  15
ATOM     15  C   UNL     1       4.594   4.358  16.860  0.00  0.00    +0.000 A 
ATOM     16  C   UNL     1       5.027   4.355  15.526  0.00  0.00    +0.000 A 
ATOM     17  C   UNL     1       6.385   4.471  15.218  0.00  0.00    +0.000 A 
ATOM     18  C   UNL     1       7.325   4.583  16.241  0.00  0.00    +0.000 A 
ATOM     19  C   UNL     1       6.910   4.566  17.571  0.00  0.00    +0.000 A 
ATOM     20  C   UNL     1       5.553   4.448  17.880  0.00  0.00    +0.000 A 
ENDBRANCH  14  15
ENDBRANCH  11  14
ENDBRANCH   5   8
BRANCH   1  25
ATOM     21  C   UNL     1      -0.724  12.452  19.183  0.00  0.00    +0.000 A 
ATOM     22  S   UNL     1      -0.141  13.719  18.186  0.00  0.00    +0.000 S 
ATOM     23  C   UNL     1       1.454  13.570  18.783  0.00  0.00    +0.000 A 
ATOM     24  C   UNL     1       1.548  12.531  19.686  0.00  0.00    +0.000 A 
ATOM     25  C   UNL     1       0.296  11.865  19.909  0.00  0.00    +0.000 A 
BRANCH  23  26
ATOM     26  C   UNL     1       2.505  14.477  18.343  0.00  0.00    +0.000 C 
ATOM     27  N   UNL     1       2.320  15.758  18.316  0.00  0.00    +0.000 NA
ATOM     28  N   UNL     1       3.737  14.065  17.927  0.00  0.00    +0.000 N 
ATOM     29  H   UNL     1       1.371  15.968  18.654  0.00  0.00    +0.000 HD
ATOM     30  H   UNL     1       3.779  13.175  17.451  0.00  0.00    +0.000 HD
ATOM     31  H   UNL     1       4.224  14.812  17.445  0.00  0.00    +0.000 HD
ENDBRANCH  23  26
BRANCH  21  33
ATOM     32  C   UNL     1      -2.969  13.168  20.556  0.00  0.00    +0.000 C 
ATOM     33  S   UNL     1      -2.448  12.084  19.202  0.00  0.00    +0.000 S 
ENDBRANCH  21  33
ENDBRANCH   1  25
TORSDOF 6
ENDMDL
MODEL 5
REMARK VINA RESULT:      -7.8      2.473      3.819
REMARK  Name = 
REMARK  7 active torsions:
REMARK  status: ('A' for Active; 'I' for Inactive)
REMARK    1  A    between atoms: C_1  and  S_2
REMARK    2  A    between atoms: S_2  and  C_3
REMARK    3  A    between atoms: C_5  and  C_6
REMARK    4  A    between atoms: C_10  and  C_11
REMARK    5  A    between atoms: N_15  and  C_16
REMARK    6  A    between atoms: C_19  and  C_20
REMARK    7  A    between atoms: C_20  and  C_21
REMARK                            x       y       z     vdW  Elec       q    Type
REMARK                         _______ _______ _______ _____ _____    ______ ____
ROOT
ATOM      1  C   UNL     1      -1.692  11.151  19.000  0.00  0.00    +0.000 A 
ATOM      2  C   UNL     1      -1.692  11.882  20.168  0.00  0.00    +0.000 A 
ATOM      3  S   UNL     1      -0.168  11.732  20.942  0.00  0.00    +0.000 S 
ATOM      4  C   UNL     1       0.339  10.622  19.723  0.00  0.00    +0.000 A 
ATOM      5  N   UNL     1       1.576  10.077  19.758  0.00  0.00    +0.000 N 
ATOM      6  N   UNL     1      -0.557  10.398  18.788  0.00  0.00    +0.000 NA
ATOM      7  H   UNL     1       2.261  10.470  20.392  0.00  0.00    +0.000 HD
ENDROOT
BRANCH   5   8
ATOM      8  C   UNL     1       1.900   8.785  19.302  0.00  0.00    +0.000 A 
ATOM      9  C   UNL     1       1.823   7.708  20.193  0.00  0.00    +0.000 A 
ATOM     10  C   UNL     1       2.180   6.415  19.789  0.00  0.00    +0.000 A 
ATOM     11  C   UNL     1       2.619   6.170  18.482  0.00  0.00    +0.000 A 
ATOM     12  C   UNL     1       2.697   7.243  17.587  0.00  0.00    +0.000 A 
ATOM     13  C   UNL     1       2.359   8.533  18.001  0.00  0.00    +0.000 A 
BRANCH  11  14
ATOM     14  C   UNL     1       3.019   4.778  18.053  0.00  0.00    +0.000 C 
BRANCH  14  15
ATOM     15  C   UNL     1       4.457   4.639  17.614  0.00  0.00    +0.000 A 
ATOM     16  C   UNL     1       4.771   4.224  16.312  0.00  0.00    +0.000 A 
ATOM     17  C   UNL     1       6.102   4.143  15.893  0.00  0.00    +0.000 A 
ATOM     18  C   UNL     1       7.132   4.470  16.773  0.00  0.00    +0.000 A 
ATOM     19  C   UNL     1       6.834   4.864  18.076  0.00  0.00    +0.000 A 
ATOM     20  C   UNL     1       5.504   4.943  18.497  0.00  0.00    +0.000 A 
ENDBRANCH  14  15
ENDBRANCH  11  14
ENDBRANCH   5   8
BRANCH   1  25
ATOM     21  C   UNL     1      -4.049  11.525  18.053  0.00  0.00    +0.000 A 
ATOM     22  S   UNL     1      -4.916  11.201  16.610  0.00  0.00    +0.000 S 
ATOM     23  C   UNL     1      -3.543  10.541  15.834  0.00  0.00    +0.000 A 
ATOM     24  C   UNL     1      -2.458  10.518  16.685  0.00  0.00    +0.000 A 
ATOM     25  C   UNL     1      -2.747  11.068  17.979  0.00  0.00    +0.000 A 
BRANCH  23  26
ATOM     26  C   UNL     1      -3.608  10.099  14.447  0.00  0.00    +0.000 C 
ATOM     27  N   UNL     1      -4.743   9.878  13.864  0.00  0.00    +0.000 NA
ATOM     28  N   UNL     1      -2.509   9.879  13.669  0.00  0.00    +0.000 N 
ATOM     29  H   UNL     1      -5.505  10.080  14.525  0.00  0.00    +0.000 HD
ATOM     30  H   UNL     1      -1.684   9.536  14.139  0.00  0.00    +0.000 HD
ATOM     31  H   UNL     1      -2.756   9.357  12.835  0.00  0.00    +0.000 HD
ENDBRANCH  23  26
BRANCH  21  33
ATOM     32  C   UNL     1      -6.383  11.429  19.463  0.00  0.00    +0.000 C 
ATOM     33  S   UNL     1      -4.846  12.383  19.371  0.00  0.00    +0.000 S 
ENDBRANCH  21  33
ENDBRANCH   1  25
TORSDOF 6
ENDMDL
MODEL 6
REMARK VINA RESULT:      -7.8      1.629      2.755
REMARK  Name = 
REMARK  7 active torsions:
REMARK  status: ('A' for Active; 'I' for Inactive)
REMARK    1  A    between atoms: C_1  and  S_2
REMARK    2  A    between atoms: S_2  and  C_3
REMARK    3  A    between atoms: C_5  and  C_6
REMARK    4  A    between atoms: C_10  and  C_11
REMARK    5  A    between atoms: N_15  and  C_16
REMARK    6  A    between atoms: C_19  and  C_20
REMARK    7  A    between atoms: C_20  and  C_21
REMARK                            x       y       z     vdW  Elec       q    Type
REMARK                         _______ _______ _______ _____ _____    ______ ____
ROOT
ATOM      1  C   UNL     1      -1.352  12.466  19.189  0.00  0.00    +0.000 A 
ATOM      2  C   UNL     1      -0.618  13.622  19.039  0.00  0.00    +0.000 A 
ATOM      3  S   UNL     1       0.971  13.233  18.522  0.00  0.00    +0.000 S 
ATOM      4  C   UNL     1       0.597  11.554  18.642  0.00  0.00    +0.000 A 
ATOM      5  N   UNL     1       1.524  10.618  18.338  0.00  0.00    +0.000 N 
ATOM      6  N   UNL     1      -0.637  11.300  19.016  0.00  0.00    +0.000 NA
ATOM      7  H   UNL     1       2.368  10.908  17.861  0.00  0.00    +0.000 HD
ENDROOT
BRANCH   5   8
ATOM      8  C   UNL     1       1.626   9.356  18.955  0.00  0.00    +0.000 A 
ATOM      9  C   UNL     1       2.115   8.273  18.216  0.00  0.00    +0.000 A 
ATOM     10  C   UNL     1       2.190   6.992  18.780  0.00  0.00    +0.000 A 
ATOM     11  C   UNL     1       1.778   6.769  20.100  0.00  0.00    +0.000 A 
ATOM     12  C   UNL     1       1.288   7.849  20.844  0.00  0.00    +0.000 A 
ATOM     13  C   UNL     1       1.198   9.118  20.269  0.00  0.00    +0.000 A 
BRANCH  11  14
ATOM     14  C   UNL     1       1.843   5.385  20.702  0.00  0.00    +0.000 C 
BRANCH  14  15
ATOM     15  C   UNL     1       2.286   4.301  19.750  0.00  0.00    +0.000 A 
ATOM     16  C   UNL     1       3.648   4.006  19.584  0.00  0.00    +0.000 A 
ATOM     17  C   UNL     1       4.054   2.969  18.739  0.00  0.00    +0.000 A 
ATOM     18  C   UNL     1       3.103   2.222  18.046  0.00  0.00    +0.000 A 
ATOM     19  C   UNL     1       1.749   2.518  18.185  0.00  0.00    +0.000 A 
ATOM     20  C   UNL     1       1.342   3.555  19.028  0.00  0.00    +0.000 A 
ENDBRANCH  14  15
ENDBRANCH  11  14
ENDBRANCH   5   8
BRANCH   1  25
ATOM     21  C   UNL     1      -3.425  12.704  20.685  0.00  0.00    +0.000 A 
ATOM     22  S   UNL     1      -5.100  12.344  20.620  0.00  0.00    +0.000 S 
ATOM     23  C   UNL     1      -5.002  11.779  19.009  0.00  0.00    +0.000 A 
ATOM     24  C   UNL     1      -3.701  11.813  18.552  0.00  0.00    +0.000 A 
ATOM     25  C   UNL     1      -2.778  12.329  19.523  0.00  0.00    +0.000 A 
BRANCH  23  26
ATOM     26  C   UNL     1      -6.196  11.350  18.293  0.00  0.00    +0.000 C 
ATOM     27  N   UNL     1      -6.890  10.332  18.691  0.00  0.00    +0.000 NA
ATOM     28  N   UNL     1      -6.667  11.963  17.169  0.00  0.00    +0.000 N 
ATOM     29  H   UNL     1      -6.462   9.947  19.545  0.00  0.00    +0.000 HD
ATOM     30  H   UNL     1      -5.977  12.366  16.551  0.00  0.00    +0.000 HD
ATOM     31  H   UNL     1      -7.350  11.380  16.699  0.00  0.00    +0.000 HD
ENDBRANCH  23  26
BRANCH  21  33
ATOM     32  C   UNL     1      -3.763  12.693  23.392  0.00  0.00    +0.000 C 
ATOM     33  S   UNL     1      -2.762  13.496  22.114  0.00  0.00    +0.000 S 
ENDBRANCH  21  33
ENDBRANCH   1  25
TORSDOF 6
ENDMDL
MODEL 7
REMARK VINA RESULT:      -7.8      0.302      1.415
REMARK  Name = 
REMARK  7 active torsions:
REMARK  status: ('A' for Active; 'I' for Inactive)
REMARK    1  A    between atoms: C_1  and  S_2
REMARK    2  A    between atoms: S_2  and  C_3
REMARK    3  A    between atoms: C_5  and  C_6
REMARK    4  A    between atoms: C_10  and  C_11
REMARK    5  A    between atoms: N_15  and  C_16
REMARK    6  A    between atoms: C_19  and  C_20
REMARK    7  A    between atoms: C_20  and  C_21
REMARK                            x       y       z     vdW  Elec       q    Type
REMARK                         _______ _______ _______ _____ _____    ______ ____
ROOT
ATOM      1  C   UNL     1      -1.272  12.017  18.653  0.00  0.00    +0.000 A 
ATOM      2  C   UNL     1      -0.601  13.217  18.733  0.00  0.00    +0.000 A 
ATOM      3  S   UNL     1       1.090  12.940  18.646  0.00  0.00    +0.000 S 
ATOM      4  C   UNL     1       0.807  11.238  18.619  0.00  0.00    +0.000 A 
ATOM      5  N   UNL     1       1.840  10.368  18.547  0.00  0.00    +0.000 N 
ATOM      6  N   UNL     1      -0.463  10.901  18.645  0.00  0.00    +0.000 NA
ATOM      7  H   UNL     1       2.759  10.725  18.319  0.00  0.00    +0.000 HD
ENDROOT
BRANCH   5   8
ATOM      8  C   UNL     1       1.857   9.090  19.136  0.00  0.00    +0.000 A 
ATOM      9  C   UNL     1       2.381   8.012  18.413  0.00  0.00    +0.000 A 
ATOM     10  C   UNL     1       2.374   6.717  18.946  0.00  0.00    +0.000 A 
ATOM     11  C   UNL     1       1.845   6.472  20.219  0.00  0.00    +0.000 A 
ATOM     12  C   UNL     1       1.320   7.545  20.948  0.00  0.00    +0.000 A 
ATOM     13  C   UNL     1       1.311   8.831  20.402  0.00  0.00    +0.000 A 
BRANCH  11  14
ATOM     14  C   UNL     1       1.824   5.072  20.787  0.00  0.00    +0.000 C 
BRANCH  14  15
ATOM     15  C   UNL     1       2.284   3.995  19.834  0.00  0.00    +0.000 A 
ATOM     16  C   UNL     1       3.626   3.586  19.811  0.00  0.00    +0.000 A 
ATOM     17  C   UNL     1       4.041   2.556  18.963  0.00  0.00    +0.000 A 
ATOM     18  C   UNL     1       3.120   1.929  18.125  0.00  0.00    +0.000 A 
ATOM     19  C   UNL     1       1.789   2.340  18.123  0.00  0.00    +0.000 A 
ATOM     20  C   UNL     1       1.374   3.371  18.969  0.00  0.00    +0.000 A 
ENDBRANCH  14  15
ENDBRANCH  11  14
ENDBRANCH   5   8
BRANCH   1  25
ATOM     21  C   UNL     1      -3.428  10.984  17.716  0.00  0.00    +0.000 A 
ATOM     22  S   UNL     1      -5.113  11.033  18.029  0.00  0.00    +0.000 S 
ATOM     23  C   UNL     1      -4.915  12.040  19.397  0.00  0.00    +0.000 A 
ATOM     24  C   UNL     1      -3.590  12.378  19.573  0.00  0.00    +0.000 A 
ATOM     25  C   UNL     1      -2.724  11.788  18.593  0.00  0.00    +0.000 A 
BRANCH  23  26
ATOM     26  C   UNL     1      -6.059  12.427  20.212  0.00  0.00    +0.000 C 
ATOM     27  N   UNL     1      -6.277  11.882  21.366  0.00  0.00    +0.000 NA
ATOM     28  N   UNL     1      -6.976  13.365  19.835  0.00  0.00    +0.000 N 
ATOM     29  H   UNL     1      -5.532  11.200  21.562  0.00  0.00    +0.000 HD
ATOM     30  H   UNL     1      -7.172  13.433  18.847  0.00  0.00    +0.000 HD
ATOM     31  H   UNL     1      -7.804  13.314  20.418  0.00  0.00    +0.000 HD
ENDBRANCH  23  26
BRANCH  21  33
ATOM     32  C   UNL     1      -3.758  10.630  15.031  0.00  0.00    +0.000 C 
ATOM     33  S   UNL     1      -2.814   9.956  16.422  0.00  0.00    +0.000 S 
ENDBRANCH  21  33
ENDBRANCH   1  25
TORSDOF 6
ENDMDL
MODEL 8
REMARK VINA RESULT:      -7.8      2.053      2.399
REMARK  Name = 
REMARK  7 active torsions:
REMARK  status: ('A' for Active; 'I' for Inactive)
REMARK    1  A    between atoms: C_1  and  S_2
REMARK    2  A    between atoms: S_2  and  C_3
REMARK    3  A    between atoms: C_5  and  C_6
REMARK    4  A    between atoms: C_10  and  C_11
REMARK    5  A    between atoms: N_15  and  C_16
REMARK    6  A    between atoms: C_19  and  C_20
REMARK    7  A    between atoms: C_20  and  C_21
REMARK                            x       y       z     vdW  Elec       q    Type
REMARK                         _______ _______ _______ _____ _____    ______ ____
ROOT
ATOM      1  C   UNL     1      -1.546  13.227  20.000  0.00  0.00    +0.000 A 
ATOM      2  C   UNL     1      -0.880  14.415  19.794  0.00  0.00    +0.000 A 
ATOM      3  S   UNL     1       0.532  14.131  18.861  0.00  0.00    +0.000 S 
ATOM      4  C   UNL     1       0.210  12.436  18.895  0.00  0.00    +0.000 A 
ATOM      5  N   UNL     1       1.036  11.565  18.274  0.00  0.00    +0.000 N 
ATOM      6  N   UNL     1      -0.890  12.108  19.534  0.00  0.00    +0.000 NA
ATOM      7  H   UNL     1       1.733  11.927  17.636  0.00  0.00    +0.000 HD
ENDROOT
BRANCH   5   8
ATOM      8  C   UNL     1       1.296  10.252  18.712  0.00  0.00    +0.000 A 
ATOM      9  C   UNL     1       0.981   9.896  20.028  0.00  0.00    +0.000 A 
ATOM     10  C   UNL     1       1.266   8.614  20.515  0.00  0.00    +0.000 A 
ATOM     11  C   UNL     1       1.872   7.656  19.691  0.00  0.00    +0.000 A 
ATOM     12  C   UNL     1       2.189   8.006  18.374  0.00  0.00    +0.000 A 
ATOM     13  C   UNL     1       1.921   9.293  17.902  0.00  0.00    +0.000 A 
BRANCH  11  14
ATOM     14  C   UNL     1       2.193   6.279  20.222  0.00  0.00    +0.000 C 
BRANCH  14  15
ATOM     15  C   UNL     1       2.729   5.313  19.192  0.00  0.00    +0.000 A 
ATOM     16  C   UNL     1       1.855   4.551  18.402  0.00  0.00    +0.000 A 
ATOM     17  C   UNL     1       2.351   3.695  17.416  0.00  0.00    +0.000 A 
ATOM     18  C   UNL     1       3.726   3.586  17.215  0.00  0.00    +0.000 A 
ATOM     19  C   UNL     1       4.605   4.321  18.007  0.00  0.00    +0.000 A 
ATOM     20  C   UNL     1       4.111   5.176  18.994  0.00  0.00    +0.000 A 
ENDBRANCH  14  15
ENDBRANCH  11  14
ENDBRANCH   5   8
BRANCH   1  25
ATOM     21  C   UNL     1      -4.018  12.541  20.108  0.00  0.00    +0.000 A 
ATOM     22  S   UNL     1      -5.276  12.460  21.270  0.00  0.00    +0.000 S 
ATOM     23  C   UNL     1      -4.245  12.954  22.543  0.00  0.00    +0.000 A 
ATOM     24  C   UNL     1      -2.978  13.230  22.073  0.00  0.00    +0.000 A 
ATOM     25  C   UNL     1      -2.843  13.013  20.661  0.00  0.00    +0.000 A 
BRANCH  23  26
ATOM     26  C   UNL     1      -4.733  13.030  23.913  0.00  0.00    +0.000 C 
ATOM     27  N   UNL     1      -4.919  14.170  24.499  0.00  0.00    +0.000 NA
ATOM     28  N   UNL     1      -5.022  11.937  24.677  0.00  0.00    +0.000 N 
ATOM     29  H   UNL     1      -4.684  14.927  23.842  0.00  0.00    +0.000 HD
ATOM     30  H   UNL     1      -4.458  11.114  24.520  0.00  0.00    +0.000 HD
ATOM     31  H   UNL     1      -5.113  12.194  25.654  0.00  0.00    +0.000 HD
ENDBRANCH  23  26
BRANCH  21  33
ATOM     32  C   UNL     1      -6.022  12.624  18.259  0.00  0.00    +0.000 C 
ATOM     33  S   UNL     1      -4.328  12.014  18.454  0.00  0.00    +0.000 S 
ENDBRANCH  21  33
ENDBRANCH   1  25
TORSDOF 6
ENDMDL
MODEL 9
REMARK VINA RESULT:      -7.7      1.450      1.921
REMARK  Name = 
REMARK  7 active torsions:
REMARK  status: ('A' for Active; 'I' for Inactive)
REMARK    1  A    between atoms: C_1  and  S_2
REMARK    2  A    between atoms: S_2  and  C_3
REMARK    3  A    between atoms: C_5  and  C_6
REMARK    4  A    between atoms: C_10  and  C_11
REMARK    5  A    between atoms: N_15  and  C_16
REMARK    6  A    between atoms: C_19  and  C_20
REMARK    7  A    between atoms: C_20  and  C_21
REMARK                            x       y       z     vdW  Elec       q    Type
REMARK                         _______ _______ _______ _____ _____    ______ ____
ROOT
ATOM      1  C   UNL     1      -1.252  12.708  19.549  0.00  0.00    +0.000 A 
ATOM      2  C   UNL     1      -0.512  13.844  19.302  0.00  0.00    +0.000 A 
ATOM      3  S   UNL     1       0.962  13.417  18.536  0.00  0.00    +0.000 S 
ATOM      4  C   UNL     1       0.556  11.748  18.688  0.00  0.00    +0.000 A 
ATOM      5  N   UNL     1       1.392  10.790  18.228  0.00  0.00    +0.000 N 
ATOM      6  N   UNL     1      -0.612  11.525  19.248  0.00  0.00    +0.000 NA
ATOM      7  H   UNL     1       2.160  11.064  17.628  0.00  0.00    +0.000 HD
ENDROOT
BRANCH   5   8
ATOM      8  C   UNL     1       1.547   9.514  18.802  0.00  0.00    +0.000 A 
ATOM      9  C   UNL     1       1.155   9.311  20.130  0.00  0.00    +0.000 A 
ATOM     10  C   UNL     1       1.334   8.068  20.751  0.00  0.00    +0.000 A 
ATOM     11  C   UNL     1       1.909   6.998  20.054  0.00  0.00    +0.000 A 
ATOM     12  C   UNL     1       2.302   7.195  18.725  0.00  0.00    +0.000 A 
ATOM     13  C   UNL     1       2.139   8.442  18.118  0.00  0.00    +0.000 A 
BRANCH  11  14
ATOM     14  C   UNL     1       2.117   5.663  20.729  0.00  0.00    +0.000 C 
BRANCH  14  15
ATOM     15  C   UNL     1       2.099   4.474  19.800  0.00  0.00    +0.000 A 
ATOM     16  C   UNL     1       3.246   4.114  19.075  0.00  0.00    +0.000 A 
ATOM     17  C   UNL     1       3.242   2.985  18.253  0.00  0.00    +0.000 A 
ATOM     18  C   UNL     1       2.091   2.207  18.141  0.00  0.00    +0.000 A 
ATOM     19  C   UNL     1       0.939   2.565  18.839  0.00  0.00    +0.000 A 
ATOM     20  C   UNL     1       0.941   3.695  19.660  0.00  0.00    +0.000 A 
ENDBRANCH  14  15
ENDBRANCH  11  14
ENDBRANCH   5   8
BRANCH   1  25
ATOM     21  C   UNL     1      -3.764  12.183  19.467  0.00  0.00    +0.000 A 
ATOM     22  S   UNL     1      -5.119  12.239  20.515  0.00  0.00    +0.000 S 
ATOM     23  C   UNL     1      -4.172  12.732  21.851  0.00  0.00    +0.000 A 
ATOM     24  C   UNL     1      -2.853  12.905  21.484  0.00  0.00    +0.000 A 
ATOM     25  C   UNL     1      -2.612  12.608  20.101  0.00  0.00    +0.000 A 
BRANCH  23  26
ATOM     26  C   UNL     1      -4.770  12.908  23.167  0.00  0.00    +0.000 C 
ATOM     27  N   UNL     1      -5.741  13.743  23.359  0.00  0.00    +0.000 NA
ATOM     28  N   UNL     1      -4.363  12.233  24.281  0.00  0.00    +0.000 N 
ATOM     29  H   UNL     1      -5.980  14.192  22.464  0.00  0.00    +0.000 HD
ATOM     30  H   UNL     1      -3.382  12.003  24.337  0.00  0.00    +0.000 HD
ATOM     31  H   UNL     1      -4.734  12.665  25.121  0.00  0.00    +0.000 HD
ENDBRANCH  23  26
BRANCH  21  33
ATOM     32  C   UNL     1      -5.656  12.158  17.502  0.00  0.00    +0.000 C 
ATOM     33  S   UNL     1      -3.965  11.592  17.818  0.00  0.00    +0.000 S 
ENDBRANCH  21  33
ENDBRANCH   1  25
TORSDOF 6
ENDMDL
