MODEL 1
REMARK VINA RESULT:      -8.7      0.000      0.000
REMARK  Name = 
REMARK  11 active torsions:
REMARK  status: ('A' for Active; 'I' for Inactive)
REMARK    1  A    between atoms: C_1  and  C_2
REMARK    2  A    between atoms: C_2  and  C_3
REMARK    3  A    between atoms: C_3  and  C_4
REMARK    4  A    between atoms: C_10  and  C_11
REMARK    5  A    between atoms: C_11  and  O_12
REMARK    6  A    between atoms: O_12  and  C_13
REMARK    7  A    between atoms: C_13  and  C_15
REMARK    8  A    between atoms: C_20  and  N_21
REMARK    9  A    between atoms: C_22  and  C_24
REMARK   10  A    between atoms: C_24  and  O_25
REMARK   11  A    between atoms: O_25  and  C_26
REMARK                            x       y       z     vdW  Elec       q    Type
REMARK                         _______ _______ _______ _____ _____    ______ ____
ROOT
ATOM      1  C   UNL     1       5.778   4.721  17.283  0.00  0.00    +0.000 A 
ATOM      2  C   UNL     1       5.091   3.875  16.392  0.00  0.00    +0.000 A 
ATOM      3  C   UNL     1       5.535   3.703  15.081  0.00  0.00    +0.000 A 
ATOM      4  C   UNL     1       6.664   4.385  14.640  0.00  0.00    +0.000 A 
ATOM      5  C   UNL     1       7.352   5.234  15.511  0.00  0.00    +0.000 A 
ATOM      6  C   UNL     1       6.924   5.397  16.837  0.00  0.00    +0.000 A 
ENDROOT
BRANCH   6   7
ATOM      7  N   UNL     1       7.742   6.184  17.682  0.00  0.00    +0.000 N 
ATOM      8  C   UNL     1       7.620   7.573  17.638  0.00  0.00    +0.000 C 
ATOM      9  O   UNL     1       6.864   8.180  16.882  0.00  0.00    +0.000 OA
ATOM     10  H   UNL     1       7.881   5.826  18.620  0.00  0.00    +0.000 HD
BRANCH   8  11
ATOM     11  C   UNL     1       8.560   8.302  18.591  0.00  0.00    +0.000 C 
BRANCH  11  12
ATOM     12  O   UNL     1       8.426   9.669  18.217  0.00  0.00    +0.000 OA
BRANCH  12  13
ATOM     13  C   UNL     1       9.370  10.547  18.650  0.00  0.00    +0.000 A 
ATOM     14  C   UNL     1       9.372  10.744  20.033  0.00  0.00    +0.000 A 
ATOM     15  C   UNL     1      10.299  11.597  20.629  0.00  0.00    +0.000 A 
ATOM     16  C   UNL     1      11.244  12.247  19.842  0.00  0.00    +0.000 A 
ATOM     17  C   UNL     1      11.259  12.041  18.461  0.00  0.00    +0.000 A 
ATOM     18  C   UNL     1      10.322  11.191  17.862  0.00  0.00    +0.000 A 
ENDBRANCH  12  13
ENDBRANCH  11  12
ENDBRANCH   8  11
ENDBRANCH   6   7
BRANCH   1  19
ATOM     19  C   UNL     1       5.122   4.926  18.600  0.00  0.00    +0.000 C 
ATOM     20  O   UNL     1       5.725   4.886  19.662  0.00  0.00    +0.000 OA
BRANCH  19  21
ATOM     21  O   UNL     1       3.775   4.961  18.464  0.00  0.00    +0.000 OA
BRANCH  21  22
ATOM     22  C   UNL     1       3.066   5.237  19.685  0.00  0.00    +0.000 C 
BRANCH  22  29
ATOM     23  C   UNL     1       0.581  10.554  20.985  0.00  0.00    +0.000 A 
ATOM     24  N   UNL     1       0.972  10.406  19.756  0.00  0.00    +0.000 NA
ATOM     25  N   UNL     1       1.475   9.136  19.598  0.00  0.00    +0.000 N 
ATOM     26  C   UNL     1       1.923   8.676  18.383  0.00  0.00    +0.000 A 
ATOM     27  O   UNL     1       1.923   9.288  17.320  0.00  0.00    +0.000 OA
ATOM     28  C   UNL     1       2.451   7.296  18.426  0.00  0.00    +0.000 A 
ATOM     29  C   UNL     1       2.423   6.609  19.581  0.00  0.00    +0.000 A 
ATOM     30  N   UNL     1       1.875   7.106  20.748  0.00  0.00    +0.000 NA
ATOM     31  C   UNL     1       1.464   8.326  20.703  0.00  0.00    +0.000 A 
ATOM     32  S   UNL     1       0.779   9.183  22.050  0.00  0.00    +0.000 S 
BRANCH  23  33
ATOM     33  C   UNL     1      -0.034  11.811  21.504  0.00  0.00    +0.000 C 
BRANCH  33  35
ATOM     34  C   UNL     1      -1.875  12.523  23.082  0.00  0.00    +0.000 C 
ATOM     35  C   UNL     1      -1.451  11.540  22.004  0.00  0.00    +0.000 C 
ENDBRANCH  33  35
ENDBRANCH  23  33
ENDBRANCH  22  29
ENDBRANCH  21  22
ENDBRANCH  19  21
ENDBRANCH   1  19
TORSDOF 10
ENDMDL
MODEL 2
REMARK VINA RESULT:      -8.6      3.003      5.031
REMARK  Name = 
REMARK  11 active torsions:
REMARK  status: ('A' for Active; 'I' for Inactive)
REMARK    1  A    between atoms: C_1  and  C_2
REMARK    2  A    between atoms: C_2  and  C_3
REMARK    3  A    between atoms: C_3  and  C_4
REMARK    4  A    between atoms: C_10  and  C_11
REMARK    5  A    between atoms: C_11  and  O_12
REMARK    6  A    between atoms: O_12  and  C_13
REMARK    7  A    between atoms: C_13  and  C_15
REMARK    8  A    between atoms: C_20  and  N_21
REMARK    9  A    between atoms: C_22  and  C_24
REMARK   10  A    between atoms: C_24  and  O_25
REMARK   11  A    between atoms: O_25  and  C_26
REMARK                            x       y       z     vdW  Elec       q    Type
REMARK                         _______ _______ _______ _____ _____    ______ ____
ROOT
ATOM      1  C   UNL     1       2.269   4.840  19.421  0.00  0.00    +0.000 A 
ATOM      2  C   UNL     1       1.443   4.409  20.477  0.00  0.00    +0.000 A 
ATOM      3  C   UNL     1       0.634   3.281  20.338  0.00  0.00    +0.000 A 
ATOM      4  C   UNL     1       0.631   2.577  19.139  0.00  0.00    +0.000 A 
ATOM      5  C   UNL     1       1.441   2.996  18.080  0.00  0.00    +0.000 A 
ATOM      6  C   UNL     1       2.272   4.119  18.217  0.00  0.00    +0.000 A 
ENDROOT
BRANCH   6   7
ATOM      7  N   UNL     1       3.143   4.406  17.139  0.00  0.00    +0.000 N 
ATOM      8  C   UNL     1       4.328   3.679  17.016  0.00  0.00    +0.000 C 
ATOM      9  O   UNL     1       4.696   2.814  17.807  0.00  0.00    +0.000 OA
ATOM     10  H   UNL     1       2.697   4.594  16.249  0.00  0.00    +0.000 HD
BRANCH   8  11
ATOM     11  C   UNL     1       5.177   4.089  15.819  0.00  0.00    +0.000 C 
BRANCH  11  12
ATOM     12  O   UNL     1       6.508   4.058  16.324  0.00  0.00    +0.000 OA
BRANCH  12  13
ATOM     13  C   UNL     1       6.957   5.142  17.012  0.00  0.00    +0.000 A 
ATOM     14  C   UNL     1       7.532   4.834  18.247  0.00  0.00    +0.000 A 
ATOM     15  C   UNL     1       8.061   5.837  19.057  0.00  0.00    +0.000 A 
ATOM     16  C   UNL     1       8.032   7.159  18.624  0.00  0.00    +0.000 A 
ATOM     17  C   UNL     1       7.476   7.472  17.383  0.00  0.00    +0.000 A 
ATOM     18  C   UNL     1       6.937   6.465  16.574  0.00  0.00    +0.000 A 
ENDBRANCH  12  13
ENDBRANCH  11  12
ENDBRANCH   8  11
ENDBRANCH   6   7
BRANCH   1  19
ATOM     19  C   UNL     1       2.969   6.131  19.647  0.00  0.00    +0.000 C 
ATOM     20  O   UNL     1       4.146   6.311  19.376  0.00  0.00    +0.000 OA
BRANCH  19  21
ATOM     21  O   UNL     1       2.189   6.981  20.356  0.00  0.00    +0.000 OA
BRANCH  21  22
ATOM     22  C   UNL     1       1.737   8.127  19.613  0.00  0.00    +0.000 C 
BRANCH  22  29
ATOM     23  C   UNL     1      -1.927  12.310  21.895  0.00  0.00    +0.000 A 
ATOM     24  N   UNL     1      -1.356  11.534  22.764  0.00  0.00    +0.000 NA
ATOM     25  N   UNL     1      -0.520  10.664  22.105  0.00  0.00    +0.000 N 
ATOM     26  C   UNL     1       0.257   9.750  22.775  0.00  0.00    +0.000 A 
ATOM     27  O   UNL     1       0.329   9.597  23.990  0.00  0.00    +0.000 OA
ATOM     28  C   UNL     1       1.064   8.888  21.886  0.00  0.00    +0.000 A 
ATOM     29  C   UNL     1       1.014   9.072  20.557  0.00  0.00    +0.000 A 
ATOM     30  N   UNL     1       0.275  10.072  19.954  0.00  0.00    +0.000 NA
ATOM     31  C   UNL     1      -0.459  10.782  20.740  0.00  0.00    +0.000 A 
ATOM     32  S   UNL     1      -1.505  12.066  20.217  0.00  0.00    +0.000 S 
BRANCH  23  33
ATOM     33  C   UNL     1      -2.888  13.390  22.267  0.00  0.00    +0.000 C 
BRANCH  33  35
ATOM     34  C   UNL     1      -5.172  12.722  21.416  0.00  0.00    +0.000 C 
ATOM     35  C   UNL     1      -4.247  12.792  22.619  0.00  0.00    +0.000 C 
ENDBRANCH  33  35
ENDBRANCH  23  33
ENDBRANCH  22  29
ENDBRANCH  21  22
ENDBRANCH  19  21
ENDBRANCH   1  19
TORSDOF 10
ENDMDL
MODEL 3
REMARK VINA RESULT:      -8.3      4.096      5.910
REMARK  Name = 
REMARK  11 active torsions:
REMARK  status: ('A' for Active; 'I' for Inactive)
REMARK    1  A    between atoms: C_1  and  C_2
REMARK    2  A    between atoms: C_2  and  C_3
REMARK    3  A    between atoms: C_3  and  C_4
REMARK    4  A    between atoms: C_10  and  C_11
REMARK    5  A    between atoms: C_11  and  O_12
REMARK    6  A    between atoms: O_12  and  C_13
REMARK    7  A    between atoms: C_13  and  C_15
REMARK    8  A    between atoms: C_20  and  N_21
REMARK    9  A    between atoms: C_22  and  C_24
REMARK   10  A    between atoms: C_24  and  O_25
REMARK   11  A    between atoms: O_25  and  C_26
REMARK                            x       y       z     vdW  Elec       q    Type
REMARK                         _______ _______ _______ _____ _____    ______ ____
ROOT
ATOM      1  C   UNL     1       2.543   5.236  19.275  0.00  0.00    +0.000 A 
ATOM      2  C   UNL     1       1.602   4.934  20.278  0.00  0.00    +0.000 A 
ATOM      3  C   UNL     1       1.284   3.611  20.586  0.00  0.00    +0.000 A 
ATOM      4  C   UNL     1       1.894   2.575  19.888  0.00  0.00    +0.000 A 
ATOM      5  C   UNL     1       2.826   2.860  18.886  0.00  0.00    +0.000 A 
ATOM      6  C   UNL     1       3.165   4.187  18.582  0.00  0.00    +0.000 A 
ENDROOT
BRANCH   6   7
ATOM      7  N   UNL     1       4.199   4.383  17.636  0.00  0.00    +0.000 N 
ATOM      8  C   UNL     1       5.526   4.324  18.064  0.00  0.00    +0.000 C 
ATOM      9  O   UNL     1       5.872   4.143  19.230  0.00  0.00    +0.000 OA
ATOM     10  H   UNL     1       4.054   3.957  16.729  0.00  0.00    +0.000 HD
BRANCH   8  11
ATOM     11  C   UNL     1       6.540   4.557  16.951  0.00  0.00    +0.000 C 
BRANCH  11  12
ATOM     12  O   UNL     1       5.752   5.055  15.875  0.00  0.00    +0.000 OA
BRANCH  12  13
ATOM     13  C   UNL     1       6.088   4.686  14.610  0.00  0.00    +0.000 A 
ATOM     14  C   UNL     1       7.276   5.258  14.148  0.00  0.00    +0.000 A 
ATOM     15  C   UNL     1       7.765   4.956  12.878  0.00  0.00    +0.000 A 
ATOM     16  C   UNL     1       7.071   4.062  12.067  0.00  0.00    +0.000 A 
ATOM     17  C   UNL     1       5.894   3.473  12.530  0.00  0.00    +0.000 A 
ATOM     18  C   UNL     1       5.399   3.784  13.802  0.00  0.00    +0.000 A 
ENDBRANCH  12  13
ENDBRANCH  11  12
ENDBRANCH   8  11
ENDBRANCH   6   7
BRANCH   1  19
ATOM     19  C   UNL     1       2.683   6.679  18.948  0.00  0.00    +0.000 C 
ATOM     20  O   UNL     1       3.498   7.108  18.146  0.00  0.00    +0.000 OA
BRANCH  19  21
ATOM     21  O   UNL     1       1.940   7.436  19.791  0.00  0.00    +0.000 OA
BRANCH  21  22
ATOM     22  C   UNL     1       1.535   8.703  19.244  0.00  0.00    +0.000 C 
BRANCH  22  29
ATOM     23  C   UNL     1      -1.229  13.031  22.368  0.00  0.00    +0.000 A 
ATOM     24  N   UNL     1      -0.838  12.005  23.060  0.00  0.00    +0.000 NA
ATOM     25  N   UNL     1      -0.189  11.125  22.227  0.00  0.00    +0.000 N 
ATOM     26  C   UNL     1       0.378   9.964  22.693  0.00  0.00    +0.000 A 
ATOM     27  O   UNL     1       0.404   9.572  23.855  0.00  0.00    +0.000 OA
ATOM     28  C   UNL     1       1.004   9.140  21.636  0.00  0.00    +0.000 A 
ATOM     29  C   UNL     1       1.008   9.579  20.367  0.00  0.00    +0.000 A 
ATOM     30  N   UNL     1       0.494  10.803  19.983  0.00  0.00    +0.000 NA
ATOM     31  C   UNL     1      -0.089  11.484  20.908  0.00  0.00    +0.000 A 
ATOM     32  S   UNL     1      -0.847  13.028  20.663  0.00  0.00    +0.000 S 
BRANCH  23  33
ATOM     33  C   UNL     1      -1.955  14.192  22.961  0.00  0.00    +0.000 C 
BRANCH  33  35
ATOM     34  C   UNL     1      -3.989  12.714  22.704  0.00  0.00    +0.000 C 
ATOM     35  C   UNL     1      -3.438  14.126  22.609  0.00  0.00    +0.000 C 
ENDBRANCH  33  35
ENDBRANCH  23  33
ENDBRANCH  22  29
ENDBRANCH  21  22
ENDBRANCH  19  21
ENDBRANCH   1  19
TORSDOF 10
ENDMDL
MODEL 4
REMARK VINA RESULT:      -8.2      2.902      4.669
REMARK  Name = 
REMARK  11 active torsions:
REMARK  status: ('A' for Active; 'I' for Inactive)
REMARK    1  A    between atoms: C_1  and  C_2
REMARK    2  A    between atoms: C_2  and  C_3
REMARK    3  A    between atoms: C_3  and  C_4
REMARK    4  A    between atoms: C_10  and  C_11
REMARK    5  A    between atoms: C_11  and  O_12
REMARK    6  A    between atoms: O_12  and  C_13
REMARK    7  A    between atoms: C_13  and  C_15
REMARK    8  A    between atoms: C_20  and  N_21
REMARK    9  A    between atoms: C_22  and  C_24
REMARK   10  A    between atoms: C_24  and  O_25
REMARK   11  A    between atoms: O_25  and  C_26
REMARK                            x       y       z     vdW  Elec       q    Type
REMARK                         _______ _______ _______ _____ _____    ______ ____
ROOT
ATOM      1  C   UNL     1       2.445   4.727  19.388  0.00  0.00    +0.000 A 
ATOM      2  C   UNL     1       1.620   4.337  20.460  0.00  0.00    +0.000 A 
ATOM      3  C   UNL     1       0.712   3.288  20.319  0.00  0.00    +0.000 A 
ATOM      4  C   UNL     1       0.608   2.624  19.101  0.00  0.00    +0.000 A 
ATOM      5  C   UNL     1       1.416   3.005  18.026  0.00  0.00    +0.000 A 
ATOM      6  C   UNL     1       2.346   4.046  18.165  0.00  0.00    +0.000 A 
ENDROOT
BRANCH   6   7
ATOM      7  N   UNL     1       3.202   4.291  17.065  0.00  0.00    +0.000 N 
ATOM      8  C   UNL     1       4.415   3.605  16.988  0.00  0.00    +0.000 C 
ATOM      9  O   UNL     1       4.820   2.814  17.837  0.00  0.00    +0.000 OA
ATOM     10  H   UNL     1       2.747   4.396  16.166  0.00  0.00    +0.000 HD
BRANCH   8  11
ATOM     11  C   UNL     1       5.245   3.963  15.761  0.00  0.00    +0.000 C 
BRANCH  11  12
ATOM     12  O   UNL     1       6.582   3.972  16.250  0.00  0.00    +0.000 OA
BRANCH  12  13
ATOM     13  C   UNL     1       6.996   5.055  16.961  0.00  0.00    +0.000 A 
ATOM     14  C   UNL     1       7.599   4.737  18.181  0.00  0.00    +0.000 A 
ATOM     15  C   UNL     1       8.097   5.739  19.011  0.00  0.00    +0.000 A 
ATOM     16  C   UNL     1       8.010   7.070  18.615  0.00  0.00    +0.000 A 
ATOM     17  C   UNL     1       7.425   7.393  17.389  0.00  0.00    +0.000 A 
ATOM     18  C   UNL     1       6.917   6.387  16.560  0.00  0.00    +0.000 A 
ENDBRANCH  12  13
ENDBRANCH  11  12
ENDBRANCH   8  11
ENDBRANCH   6   7
BRANCH   1  19
ATOM     19  C   UNL     1       3.262   5.946  19.624  0.00  0.00    +0.000 C 
ATOM     20  O   UNL     1       4.483   5.937  19.657  0.00  0.00    +0.000 OA
BRANCH  19  21
ATOM     21  O   UNL     1       2.475   6.987  19.986  0.00  0.00    +0.000 OA
BRANCH  21  22
ATOM     22  C   UNL     1       2.211   7.922  18.925  0.00  0.00    +0.000 C 
BRANCH  22  29
ATOM     23  C   UNL     1      -1.229  11.398  22.421  0.00  0.00    +0.000 A 
ATOM     24  N   UNL     1      -1.074  11.813  21.201  0.00  0.00    +0.000 NA
ATOM     25  N   UNL     1      -0.307  10.902  20.514  0.00  0.00    +0.000 N 
ATOM     26  C   UNL     1      -0.016  11.053  19.180  0.00  0.00    +0.000 A 
ATOM     27  O   UNL     1      -0.390  11.961  18.444  0.00  0.00    +0.000 OA
ATOM     28  C   UNL     1       0.845   9.983  18.632  0.00  0.00    +0.000 A 
ATOM     29  C   UNL     1       1.231   8.970  19.425  0.00  0.00    +0.000 A 
ATOM     30  N   UNL     1       0.826   8.835  20.739  0.00  0.00    +0.000 NA
ATOM     31  C   UNL     1       0.117   9.800  21.212  0.00  0.00    +0.000 A 
ATOM     32  S   UNL     1      -0.473   9.880  22.844  0.00  0.00    +0.000 S 
BRANCH  23  33
ATOM     33  C   UNL     1      -2.025  12.137  23.444  0.00  0.00    +0.000 C 
BRANCH  33  35
ATOM     34  C   UNL     1      -2.423  14.510  24.217  0.00  0.00    +0.000 C 
ATOM     35  C   UNL     1      -2.203  13.594  23.025  0.00  0.00    +0.000 C 
ENDBRANCH  33  35
ENDBRANCH  23  33
ENDBRANCH  22  29
ENDBRANCH  21  22
ENDBRANCH  19  21
ENDBRANCH   1  19
TORSDOF 10
ENDMDL
MODEL 5
REMARK VINA RESULT:      -8.2      3.884      5.363
REMARK  Name = 
REMARK  11 active torsions:
REMARK  status: ('A' for Active; 'I' for Inactive)
REMARK    1  A    between atoms: C_1  and  C_2
REMARK    2  A    between atoms: C_2  and  C_3
REMARK    3  A    between atoms: C_3  and  C_4
REMARK    4  A    between atoms: C_10  and  C_11
REMARK    5  A    between atoms: C_11  and  O_12
REMARK    6  A    between atoms: O_12  and  C_13
REMARK    7  A    between atoms: C_13  and  C_15
REMARK    8  A    between atoms: C_20  and  N_21
REMARK    9  A    between atoms: C_22  and  C_24
REMARK   10  A    between atoms: C_24  and  O_25
REMARK   11  A    between atoms: O_25  and  C_26
REMARK                            x       y       z     vdW  Elec       q    Type
REMARK                         _______ _______ _______ _____ _____    ______ ____
ROOT
ATOM      1  C   UNL     1       2.631   3.818  19.150  0.00  0.00    +0.000 A 
ATOM      2  C   UNL     1       1.824   3.582  20.279  0.00  0.00    +0.000 A 
ATOM      3  C   UNL     1       2.253   2.738  21.303  0.00  0.00    +0.000 A 
ATOM      4  C   UNL     1       3.489   2.108  21.205  0.00  0.00    +0.000 A 
ATOM      5  C   UNL     1       4.298   2.326  20.087  0.00  0.00    +0.000 A 
ATOM      6  C   UNL     1       3.883   3.189  19.062  0.00  0.00    +0.000 A 
ENDROOT
BRANCH   6   7
ATOM      7  N   UNL     1       4.810   3.443  18.023  0.00  0.00    +0.000 N 
ATOM      8  C   UNL     1       5.857   4.336  18.257  0.00  0.00    +0.000 C 
ATOM      9  O   UNL     1       6.019   4.957  19.305  0.00  0.00    +0.000 OA
ATOM     10  H   UNL     1       5.089   2.639  17.473  0.00  0.00    +0.000 HD
BRANCH   8  11
ATOM     11  C   UNL     1       6.780   4.526  17.059  0.00  0.00    +0.000 C 
BRANCH  11  12
ATOM     12  O   UNL     1       5.909   4.989  16.032  0.00  0.00    +0.000 OA
BRANCH  12  13
ATOM     13  C   UNL     1       6.197   4.650  14.747  0.00  0.00    +0.000 A 
ATOM     14  C   UNL     1       7.349   5.259  14.243  0.00  0.00    +0.000 A 
ATOM     15  C   UNL     1       7.787   4.991  12.947  0.00  0.00    +0.000 A 
ATOM     16  C   UNL     1       7.080   4.094  12.152  0.00  0.00    +0.000 A 
ATOM     17  C   UNL     1       5.939   3.469  12.656  0.00  0.00    +0.000 A 
ATOM     18  C   UNL     1       5.495   3.745  13.954  0.00  0.00    +0.000 A 
ENDBRANCH  12  13
ENDBRANCH  11  12
ENDBRANCH   8  11
ENDBRANCH   6   7
BRANCH   1  19
ATOM     19  C   UNL     1       1.999   4.620  18.071  0.00  0.00    +0.000 C 
ATOM     20  O   UNL     1       1.203   4.154  17.269  0.00  0.00    +0.000 OA
BRANCH  19  21
ATOM     21  O   UNL     1       2.569   5.845  17.988  0.00  0.00    +0.000 OA
BRANCH  21  22
ATOM     22  C   UNL     1       2.802   6.474  19.261  0.00  0.00    +0.000 C 
BRANCH  22  29
ATOM     23  C   UNL     1       0.056  11.564  20.901  0.00  0.00    +0.000 A 
ATOM     24  N   UNL     1       0.639  11.593  19.742  0.00  0.00    +0.000 NA
ATOM     25  N   UNL     1       1.182  10.356  19.484  0.00  0.00    +0.000 N 
ATOM     26  C   UNL     1       1.824  10.073  18.303  0.00  0.00    +0.000 A 
ATOM     27  O   UNL     1       1.983  10.832  17.352  0.00  0.00    +0.000 OA
ATOM     28  C   UNL     1       2.361   8.697  18.231  0.00  0.00    +0.000 A 
ATOM     29  C   UNL     1       2.161   7.851  19.255  0.00  0.00    +0.000 A 
ATOM     30  N   UNL     1       1.427   8.178  20.379  0.00  0.00    +0.000 NA
ATOM     31  C   UNL     1       1.008   9.394  20.446  0.00  0.00    +0.000 A 
ATOM     32  S   UNL     1       0.104  10.052  21.775  0.00  0.00    +0.000 S 
BRANCH  23  33
ATOM     33  C   UNL     1      -0.654  12.737  21.490  0.00  0.00    +0.000 C 
BRANCH  33  35
ATOM     34  C   UNL     1      -1.665  13.613  23.634  0.00  0.00    +0.000 C 
ATOM     35  C   UNL     1      -1.209  12.384  22.867  0.00  0.00    +0.000 C 
ENDBRANCH  33  35
ENDBRANCH  23  33
ENDBRANCH  22  29
ENDBRANCH  21  22
ENDBRANCH  19  21
ENDBRANCH   1  19
TORSDOF 10
ENDMDL
MODEL 6
REMARK VINA RESULT:      -8.1      3.931      5.645
REMARK  Name = 
REMARK  11 active torsions:
REMARK  status: ('A' for Active; 'I' for Inactive)
REMARK    1  A    between atoms: C_1  and  C_2
REMARK    2  A    between atoms: C_2  and  C_3
REMARK    3  A    between atoms: C_3  and  C_4
REMARK    4  A    between atoms: C_10  and  C_11
REMARK    5  A    between atoms: C_11  and  O_12
REMARK    6  A    between atoms: O_12  and  C_13
REMARK    7  A    between atoms: C_13  and  C_15
REMARK    8  A    between atoms: C_20  and  N_21
REMARK    9  A    between atoms: C_22  and  C_24
REMARK   10  A    between atoms: C_24  and  O_25
REMARK   11  A    between atoms: O_25  and  C_26
REMARK                            x       y       z     vdW  Elec       q    Type
REMARK                         _______ _______ _______ _____ _____    ______ ____
ROOT
ATOM      1  C   UNL     1       3.089   5.672  19.082  0.00  0.00    +0.000 A 
ATOM      2  C   UNL     1       2.183   5.645  20.160  0.00  0.00    +0.000 A 
ATOM      3  C   UNL     1       1.980   4.477  20.895  0.00  0.00    +0.000 A 
ATOM      4  C   UNL     1       2.669   3.318  20.554  0.00  0.00    +0.000 A 
ATOM      5  C   UNL     1       3.566   3.328  19.482  0.00  0.00    +0.000 A 
ATOM      6  C   UNL     1       3.791   4.503  18.749  0.00  0.00    +0.000 A 
ENDROOT
BRANCH   6   7
ATOM      7  N   UNL     1       4.797   4.456  17.756  0.00  0.00    +0.000 N 
ATOM      8  C   UNL     1       6.126   4.661  18.130  0.00  0.00    +0.000 C 
ATOM      9  O   UNL     1       6.492   4.919  19.275  0.00  0.00    +0.000 OA
ATOM     10  H   UNL     1       4.690   3.735  17.052  0.00  0.00    +0.000 HD
BRANCH   8  11
ATOM     11  C   UNL     1       7.109   4.590  16.968  0.00  0.00    +0.000 C 
BRANCH  11  12
ATOM     12  O   UNL     1       6.477   5.353  15.945  0.00  0.00    +0.000 OA
BRANCH  12  13
ATOM     13  C   UNL     1       6.537   4.886  14.669  0.00  0.00    +0.000 A 
ATOM     14  C   UNL     1       7.572   5.437  13.910  0.00  0.00    +0.000 A 
ATOM     15  C   UNL     1       7.778   5.039  12.591  0.00  0.00    +0.000 A 
ATOM     16  C   UNL     1       6.954   4.071  12.026  0.00  0.00    +0.000 A 
ATOM     17  C   UNL     1       5.928   3.503  12.784  0.00  0.00    +0.000 A 
ATOM     18  C   UNL     1       5.718   3.909  14.107  0.00  0.00    +0.000 A 
ENDBRANCH  12  13
ENDBRANCH  11  12
ENDBRANCH   8  11
ENDBRANCH   6   7
BRANCH   1  19
ATOM     19  C   UNL     1       3.105   6.933  18.296  0.00  0.00    +0.000 C 
ATOM     20  O   UNL     1       3.971   7.199  17.476  0.00  0.00    +0.000 OA
BRANCH  19  21
ATOM     21  O   UNL     1       2.167   7.795  18.755  0.00  0.00    +0.000 OA
BRANCH  21  22
ATOM     22  C   UNL     1       1.995   8.968  17.939  0.00  0.00    +0.000 C 
BRANCH  22  29
ATOM     23  C   UNL     1      -1.450  12.907  20.896  0.00  0.00    +0.000 A 
ATOM     24  N   UNL     1      -2.018  12.313  19.891  0.00  0.00    +0.000 NA
ATOM     25  N   UNL     1      -1.131  11.416  19.344  0.00  0.00    +0.000 N 
ATOM     26  C   UNL     1      -1.472  10.604  18.290  0.00  0.00    +0.000 A 
ATOM     27  O   UNL     1      -2.561  10.550  17.726  0.00  0.00    +0.000 OA
ATOM     28  C   UNL     1      -0.372   9.731  17.828  0.00  0.00    +0.000 A 
ATOM     29  C   UNL     1       0.811   9.763  18.463  0.00  0.00    +0.000 A 
ATOM     30  N   UNL     1       1.058  10.543  19.576  0.00  0.00    +0.000 NA
ATOM     31  C   UNL     1       0.104  11.332  19.934  0.00  0.00    +0.000 A 
ATOM     32  S   UNL     1       0.190  12.437  21.271  0.00  0.00    +0.000 S 
BRANCH  23  33
ATOM     33  C   UNL     1      -2.135  13.934  21.734  0.00  0.00    +0.000 C 
BRANCH  33  35
ATOM     34  C   UNL     1      -3.601  12.566  23.273  0.00  0.00    +0.000 C 
ATOM     35  C   UNL     1      -3.556  13.487  22.066  0.00  0.00    +0.000 C 
ENDBRANCH  33  35
ENDBRANCH  23  33
ENDBRANCH  22  29
ENDBRANCH  21  22
ENDBRANCH  19  21
ENDBRANCH   1  19
TORSDOF 10
ENDMDL
MODEL 7
REMARK VINA RESULT:      -8.1      2.859      4.974
REMARK  Name = 
REMARK  11 active torsions:
REMARK  status: ('A' for Active; 'I' for Inactive)
REMARK    1  A    between atoms: C_1  and  C_2
REMARK    2  A    between atoms: C_2  and  C_3
REMARK    3  A    between atoms: C_3  and  C_4
REMARK    4  A    between atoms: C_10  and  C_11
REMARK    5  A    between atoms: C_11  and  O_12
REMARK    6  A    between atoms: O_12  and  C_13
REMARK    7  A    between atoms: C_13  and  C_15
REMARK    8  A    between atoms: C_20  and  N_21
REMARK    9  A    between atoms: C_22  and  C_24
REMARK   10  A    between atoms: C_24  and  O_25
REMARK   11  A    between atoms: O_25  and  C_26
REMARK                            x       y       z     vdW  Elec       q    Type
REMARK                         _______ _______ _______ _____ _____    ______ ____
ROOT
ATOM      1  C   UNL     1       2.549   4.876  19.767  0.00  0.00    +0.000 A 
ATOM      2  C   UNL     1       1.522   4.645  20.702  0.00  0.00    +0.000 A 
ATOM      3  C   UNL     1       1.175   3.348  21.077  0.00  0.00    +0.000 A 
ATOM      4  C   UNL     1       1.839   2.265  20.513  0.00  0.00    +0.000 A 
ATOM      5  C   UNL     1       2.855   2.479  19.577  0.00  0.00    +0.000 A 
ATOM      6  C   UNL     1       3.225   3.781  19.209  0.00  0.00    +0.000 A 
ENDROOT
BRANCH   6   7
ATOM      7  N   UNL     1       4.338   3.911  18.344  0.00  0.00    +0.000 N 
ATOM      8  C   UNL     1       4.131   3.853  16.965  0.00  0.00    +0.000 C 
ATOM      9  O   UNL     1       3.039   3.661  16.434  0.00  0.00    +0.000 OA
ATOM     10  H   UNL     1       5.029   4.600  18.614  0.00  0.00    +0.000 HD
BRANCH   8  11
ATOM     11  C   UNL     1       5.409   4.000  16.147  0.00  0.00    +0.000 C 
BRANCH  11  12
ATOM     12  O   UNL     1       6.434   4.065  17.133  0.00  0.00    +0.000 OA
BRANCH  12  13
ATOM     13  C   UNL     1       6.936   5.287  17.456  0.00  0.00    +0.000 A 
ATOM     14  C   UNL     1       7.626   5.316  18.669  0.00  0.00    +0.000 A 
ATOM     15  C   UNL     1       8.219   6.492  19.124  0.00  0.00    +0.000 A 
ATOM     16  C   UNL     1       8.137   7.648  18.353  0.00  0.00    +0.000 A 
ATOM     17  C   UNL     1       7.464   7.622  17.131  0.00  0.00    +0.000 A 
ATOM     18  C   UNL     1       6.862   6.442  16.679  0.00  0.00    +0.000 A 
ENDBRANCH  12  13
ENDBRANCH  11  12
ENDBRANCH   8  11
ENDBRANCH   6   7
BRANCH   1  19
ATOM     19  C   UNL     1       2.722   6.292  19.349  0.00  0.00    +0.000 C 
ATOM     20  O   UNL     1       3.536   6.648  18.510  0.00  0.00    +0.000 OA
BRANCH  19  21
ATOM     21  O   UNL     1       2.011   7.119  20.152  0.00  0.00    +0.000 OA
BRANCH  21  22
ATOM     22  C   UNL     1       1.632   8.361  19.532  0.00  0.00    +0.000 C 
BRANCH  22  29
ATOM     23  C   UNL     1      -2.049  12.291  22.204  0.00  0.00    +0.000 A 
ATOM     24  N   UNL     1      -1.419  11.483  23.002  0.00  0.00    +0.000 NA
ATOM     25  N   UNL     1      -0.588  10.679  22.259  0.00  0.00    +0.000 N 
ATOM     26  C   UNL     1       0.243   9.753  22.842  0.00  0.00    +0.000 A 
ATOM     27  O   UNL     1       0.371   9.532  24.042  0.00  0.00    +0.000 OA
ATOM     28  C   UNL     1       1.036   8.968  21.872  0.00  0.00    +0.000 A 
ATOM     29  C   UNL     1       0.923   9.227  20.558  0.00  0.00    +0.000 A 
ATOM     30  N   UNL     1       0.131  10.237  20.047  0.00  0.00    +0.000 NA
ATOM     31  C   UNL     1      -0.588  10.877  20.903  0.00  0.00    +0.000 A 
ATOM     32  S   UNL     1      -1.693  12.156  20.499  0.00  0.00    +0.000 S 
BRANCH  23  33
ATOM     33  C   UNL     1      -3.023  13.317  22.678  0.00  0.00    +0.000 C 
BRANCH  33  35
ATOM     34  C   UNL     1      -1.731  14.736  24.322  0.00  0.00    +0.000 C 
ATOM     35  C   UNL     1      -2.316  14.647  22.923  0.00  0.00    +0.000 C 
ENDBRANCH  33  35
ENDBRANCH  23  33
ENDBRANCH  22  29
ENDBRANCH  21  22
ENDBRANCH  19  21
ENDBRANCH   1  19
TORSDOF 10
ENDMDL
MODEL 8
REMARK VINA RESULT:      -8.1      3.960      5.787
REMARK  Name = 
REMARK  11 active torsions:
REMARK  status: ('A' for Active; 'I' for Inactive)
REMARK    1  A    between atoms: C_1  and  C_2
REMARK    2  A    between atoms: C_2  and  C_3
REMARK    3  A    between atoms: C_3  and  C_4
REMARK    4  A    between atoms: C_10  and  C_11
REMARK    5  A    between atoms: C_11  and  O_12
REMARK    6  A    between atoms: O_12  and  C_13
REMARK    7  A    between atoms: C_13  and  C_15
REMARK    8  A    between atoms: C_20  and  N_21
REMARK    9  A    between atoms: C_22  and  C_24
REMARK   10  A    between atoms: C_24  and  O_25
REMARK   11  A    between atoms: O_25  and  C_26
REMARK                            x       y       z     vdW  Elec       q    Type
REMARK                         _______ _______ _______ _____ _____    ______ ____
ROOT
ATOM      1  C   UNL     1       2.878   5.311  19.236  0.00  0.00    +0.000 A 
ATOM      2  C   UNL     1       1.929   5.115  20.258  0.00  0.00    +0.000 A 
ATOM      3  C   UNL     1       1.666   3.839  20.755  0.00  0.00    +0.000 A 
ATOM      4  C   UNL     1       2.337   2.741  20.229  0.00  0.00    +0.000 A 
ATOM      5  C   UNL     1       3.276   2.919  19.209  0.00  0.00    +0.000 A 
ATOM      6  C   UNL     1       3.561   4.201  18.716  0.00  0.00    +0.000 A 
ENDROOT
BRANCH   6   7
ATOM      7  N   UNL     1       4.605   4.305  17.766  0.00  0.00    +0.000 N 
ATOM      8  C   UNL     1       5.908   4.525  18.216  0.00  0.00    +0.000 C 
ATOM      9  O   UNL     1       6.219   4.673  19.396  0.00  0.00    +0.000 OA
ATOM     10  H   UNL     1       4.558   3.660  16.986  0.00  0.00    +0.000 HD
BRANCH   8  11
ATOM     11  C   UNL     1       6.935   4.622  17.095  0.00  0.00    +0.000 C 
BRANCH  11  12
ATOM     12  O   UNL     1       6.218   5.241  16.032  0.00  0.00    +0.000 OA
BRANCH  12  13
ATOM     13  C   UNL     1       6.522   4.878  14.757  0.00  0.00    +0.000 A 
ATOM     14  C   UNL     1       5.681   3.896  14.229  0.00  0.00    +0.000 A 
ATOM     15  C   UNL     1       5.852   3.438  12.924  0.00  0.00    +0.000 A 
ATOM     16  C   UNL     1       6.860   3.977  12.131  0.00  0.00    +0.000 A 
ATOM     17  C   UNL     1       7.693   4.972  12.646  0.00  0.00    +0.000 A 
ATOM     18  C   UNL     1       7.526   5.425  13.960  0.00  0.00    +0.000 A 
ENDBRANCH  12  13
ENDBRANCH  11  12
ENDBRANCH   8  11
ENDBRANCH   6   7
BRANCH   1  19
ATOM     19  C   UNL     1       2.959   6.694  18.699  0.00  0.00    +0.000 C 
ATOM     20  O   UNL     1       3.522   6.974  17.652  0.00  0.00    +0.000 OA
BRANCH  19  21
ATOM     21  O   UNL     1       2.509   7.589  19.611  0.00  0.00    +0.000 OA
BRANCH  21  22
ATOM     22  C   UNL     1       1.595   8.563  19.079  0.00  0.00    +0.000 C 
BRANCH  22  29
ATOM     23  C   UNL     1      -0.775  13.065  22.281  0.00  0.00    +0.000 A 
ATOM     24  N   UNL     1      -0.657  11.936  22.908  0.00  0.00    +0.000 NA
ATOM     25  N   UNL     1      -0.065  11.020  22.071  0.00  0.00    +0.000 N 
ATOM     26  C   UNL     1       0.232   9.743  22.482  0.00  0.00    +0.000 A 
ATOM     27  O   UNL     1       0.040   9.265  23.596  0.00  0.00    +0.000 OA
ATOM     28  C   UNL     1       0.840   8.903  21.427  0.00  0.00    +0.000 A 
ATOM     29  C   UNL     1       1.083   9.431  20.216  0.00  0.00    +0.000 A 
ATOM     30  N   UNL     1       0.839  10.753  19.899  0.00  0.00    +0.000 NA
ATOM     31  C   UNL     1       0.265  11.456  20.814  0.00  0.00    +0.000 A 
ATOM     32  S   UNL     1      -0.182  13.125  20.638  0.00  0.00    +0.000 S 
BRANCH  23  33
ATOM     33  C   UNL     1      -1.364  14.289  22.899  0.00  0.00    +0.000 C 
BRANCH  33  35
ATOM     34  C   UNL     1      -0.791  16.615  22.093  0.00  0.00    +0.000 C 
ATOM     35  C   UNL     1      -0.340  15.420  22.916  0.00  0.00    +0.000 C 
ENDBRANCH  33  35
ENDBRANCH  23  33
ENDBRANCH  22  29
ENDBRANCH  21  22
ENDBRANCH  19  21
ENDBRANCH   1  19
TORSDOF 10
ENDMDL
MODEL 9
REMARK VINA RESULT:      -7.9      4.313      6.127
REMARK  Name = 
REMARK  11 active torsions:
REMARK  status: ('A' for Active; 'I' for Inactive)
REMARK    1  A    between atoms: C_1  and  C_2
REMARK    2  A    between atoms: C_2  and  C_3
REMARK    3  A    between atoms: C_3  and  C_4
REMARK    4  A    between atoms: C_10  and  C_11
REMARK    5  A    between atoms: C_11  and  O_12
REMARK    6  A    between atoms: O_12  and  C_13
REMARK    7  A    between atoms: C_13  and  C_15
REMARK    8  A    between atoms: C_20  and  N_21
REMARK    9  A    between atoms: C_22  and  C_24
REMARK   10  A    between atoms: C_24  and  O_25
REMARK   11  A    between atoms: O_25  and  C_26
REMARK                            x       y       z     vdW  Elec       q    Type
REMARK                         _______ _______ _______ _____ _____    ______ ____
ROOT
ATOM      1  C   UNL     1       2.802   5.047  19.937  0.00  0.00    +0.000 A 
ATOM      2  C   UNL     1       1.797   4.705  20.861  0.00  0.00    +0.000 A 
ATOM      3  C   UNL     1       1.763   3.439  21.446  0.00  0.00    +0.000 A 
ATOM      4  C   UNL     1       2.726   2.495  21.105  0.00  0.00    +0.000 A 
ATOM      5  C   UNL     1       3.726   2.819  20.183  0.00  0.00    +0.000 A 
ATOM      6  C   UNL     1       3.778   4.096  19.605  0.00  0.00    +0.000 A 
ENDROOT
BRANCH   6   7
ATOM      7  N   UNL     1       4.887   4.376  18.771  0.00  0.00    +0.000 N 
ATOM      8  C   UNL     1       4.830   4.010  17.426  0.00  0.00    +0.000 C 
ATOM      9  O   UNL     1       3.884   3.421  16.906  0.00  0.00    +0.000 OA
ATOM     10  H   UNL     1       5.337   5.272  18.921  0.00  0.00    +0.000 HD
BRANCH   8  11
ATOM     11  C   UNL     1       6.087   4.362  16.640  0.00  0.00    +0.000 C 
BRANCH  11  12
ATOM     12  O   UNL     1       5.590   5.052  15.499  0.00  0.00    +0.000 OA
BRANCH  12  13
ATOM     13  C   UNL     1       5.993   4.631  14.270  0.00  0.00    +0.000 A 
ATOM     14  C   UNL     1       7.233   5.138  13.874  0.00  0.00    +0.000 A 
ATOM     15  C   UNL     1       7.792   4.777  12.649  0.00  0.00    +0.000 A 
ATOM     16  C   UNL     1       7.115   3.890  11.818  0.00  0.00    +0.000 A 
ATOM     17  C   UNL     1       5.884   3.365  12.215  0.00  0.00    +0.000 A 
ATOM     18  C   UNL     1       5.320   3.735  13.442  0.00  0.00    +0.000 A 
ENDBRANCH  12  13
ENDBRANCH  11  12
ENDBRANCH   8  11
ENDBRANCH   6   7
BRANCH   1  19
ATOM     19  C   UNL     1       2.641   6.372  19.283  0.00  0.00    +0.000 C 
ATOM     20  O   UNL     1       3.142   6.651  18.204  0.00  0.00    +0.000 OA
BRANCH  19  21
ATOM     21  O   UNL     1       2.049   7.253  20.125  0.00  0.00    +0.000 OA
BRANCH  21  22
ATOM     22  C   UNL     1       1.586   8.457  19.488  0.00  0.00    +0.000 C 
BRANCH  22  29
ATOM     23  C   UNL     1      -0.882  13.154  22.312  0.00  0.00    +0.000 A 
ATOM     24  N   UNL     1      -0.747  12.080  23.028  0.00  0.00    +0.000 NA
ATOM     25  N   UNL     1      -0.133  11.112  22.269  0.00  0.00    +0.000 N 
ATOM     26  C   UNL     1       0.185   9.877  22.781  0.00  0.00    +0.000 A 
ATOM     27  O   UNL     1      -0.005   9.485  23.928  0.00  0.00    +0.000 OA
ATOM     28  C   UNL     1       0.813   8.968  21.799  0.00  0.00    +0.000 A 
ATOM     29  C   UNL     1       1.053   9.402  20.550  0.00  0.00    +0.000 A 
ATOM     30  N   UNL     1       0.786  10.691  20.128  0.00  0.00    +0.000 NA
ATOM     31  C   UNL     1       0.195  11.453  20.983  0.00  0.00    +0.000 A 
ATOM     32  S   UNL     1      -0.281  13.094  20.673  0.00  0.00    +0.000 S 
BRANCH  23  33
ATOM     33  C   UNL     1      -1.496  14.412  22.829  0.00  0.00    +0.000 C 
BRANCH  33  35
ATOM     34  C   UNL     1      -0.844  16.638  21.828  0.00  0.00    +0.000 C 
ATOM     35  C   UNL     1      -0.475  15.546  22.816  0.00  0.00    +0.000 C 
ENDBRANCH  33  35
ENDBRANCH  23  33
ENDBRANCH  22  29
ENDBRANCH  21  22
ENDBRANCH  19  21
ENDBRANCH   1  19
TORSDOF 10
ENDMDL
