MODEL 1
REMARK VINA RESULT:      -9.2      0.000      0.000
REMARK  Name = 
REMARK  14 active torsions:
REMARK  status: ('A' for Active; 'I' for Inactive)
REMARK    1  A    between atoms: C_1  and  C_2
REMARK    2  A    between atoms: C_2  and  N_3
REMARK    3  A    between atoms: C_2  and  C_32
REMARK    4  A    between atoms: N_3  and  C_4
REMARK    5  A    between atoms: C_4  and  C_5
REMARK    6  A    between atoms: C_5  and  O_6
REMARK    7  A    between atoms: C_5  and  C_7
REMARK    8  A    between atoms: C_7  and  C_8
REMARK    9  A    between atoms: C_7  and  N_15
REMARK   10  A    between atoms: C_8  and  C_9
REMARK   11  A    between atoms: C_16  and  C_18
REMARK   12  A    between atoms: C_18  and  C_19
REMARK   13  A    between atoms: C_19  and  C_20
REMARK   14  A    between atoms: C_19  and  C_26
REMARK                            x       y       z     vdW  Elec       q    Type
REMARK                         _______ _______ _______ _____ _____    ______ ____
ROOT
ATOM      1  C   UNL     1       0.733  10.718  18.682  0.00  0.00    +0.000 C 
ENDROOT
BRANCH   1   2
ATOM      2  N   UNL     1       1.338   9.477  19.221  0.00  0.00    +0.000 N 
ATOM      3  C   UNL     1       2.028   8.571  18.430  0.00  0.00    +0.000 C 
ATOM      4  O   UNL     1       2.237   8.754  17.236  0.00  0.00    +0.000 OA
ATOM      5  H   UNL     1       0.985   9.161  20.117  0.00  0.00    +0.000 HD
BRANCH   3   6
ATOM      6  C   UNL     1       2.436   7.296  19.164  0.00  0.00    +0.000 C 
BRANCH   6   7
ATOM      7  C   UNL     1       2.992   6.178  18.247  0.00  0.00    +0.000 C 
BRANCH   7   8
ATOM      8  C   UNL     1       4.520   6.127  18.209  0.00  0.00    +0.000 A 
ATOM      9  C   UNL     1       5.278   5.431  19.161  0.00  0.00    +0.000 A 
ATOM     10  C   UNL     1       6.672   5.374  19.076  0.00  0.00    +0.000 A 
ATOM     11  C   UNL     1       7.342   6.032  18.049  0.00  0.00    +0.000 A 
ATOM     12  C   UNL     1       6.614   6.750  17.104  0.00  0.00    +0.000 A 
ATOM     13  C   UNL     1       5.214   6.796  17.187  0.00  0.00    +0.000 A 
ENDBRANCH   7   8
BRANCH   7  14
ATOM     14  C   UNL     1       2.363   4.814  18.592  0.00  0.00    +0.000 A 
ATOM     15  C   UNL     1       2.491   3.735  17.701  0.00  0.00    +0.000 A 
ATOM     16  C   UNL     1       1.830   2.522  17.941  0.00  0.00    +0.000 A 
ATOM     17  C   UNL     1       1.054   2.357  19.085  0.00  0.00    +0.000 A 
ATOM     18  C   UNL     1       0.960   3.396  20.005  0.00  0.00    +0.000 A 
ATOM     19  C   UNL     1       1.610   4.611  19.761  0.00  0.00    +0.000 A 
ENDBRANCH   7  14
ENDBRANCH   6   7
ENDBRANCH   3   6
ENDBRANCH   1   2
BRANCH   1  20
ATOM     20  C   UNL     1       1.594  11.969  19.024  0.00  0.00    +0.000 C 
BRANCH  20  21
ATOM     21  O   UNL     1       1.964  12.634  17.799  0.00  0.00    +0.000 OA
ATOM     22  H   UNL     1       1.809  13.585  17.920  0.00  0.00    +0.000 HD
ENDBRANCH  20  21
BRANCH  20  23
ATOM     23  C   UNL     1       0.903  12.959  19.997  0.00  0.00    +0.000 C 
BRANCH  23  24
ATOM     24  N   UNL     1       1.389  14.323  19.739  0.00  0.00    +0.000 NA
ATOM     25  H   UNL     1       1.959  14.367  18.898  0.00  0.00    +0.000 HD
BRANCH  24  27
ATOM     26  C   UNL     1       0.327  16.000  21.133  0.00  0.00    +0.000 C 
ATOM     27  C   UNL     1       0.358  15.365  19.732  0.00  0.00    +0.000 C 
BRANCH  27  28
ATOM     28  C   UNL     1       0.546  16.399  18.629  0.00  0.00    +0.000 A 
ATOM     29  C   UNL     1      -0.585  17.054  18.109  0.00  0.00    +0.000 A 
ATOM     30  C   UNL     1      -0.457  18.052  17.142  0.00  0.00    +0.000 A 
ATOM     31  C   UNL     1       0.804  18.414  16.677  0.00  0.00    +0.000 A 
ATOM     32  C   UNL     1       1.935  17.764  17.167  0.00  0.00    +0.000 A 
ATOM     33  C   UNL     1       1.807  16.756  18.126  0.00  0.00    +0.000 A 
ENDBRANCH  27  28
ENDBRANCH  24  27
ENDBRANCH  23  24
ENDBRANCH  20  23
ENDBRANCH   1  20
BRANCH   1  34
ATOM     34  C   UNL     1      -0.716  10.870  19.231  0.00  0.00    +0.000 C 
BRANCH  34  35
ATOM     35  C   UNL     1      -1.822  10.761  18.197  0.00  0.00    +0.000 A 
ATOM     36  C   UNL     1      -1.712   9.885  17.110  0.00  0.00    +0.000 A 
ATOM     37  C   UNL     1      -2.720   9.826  16.142  0.00  0.00    +0.000 A 
ATOM     38  C   UNL     1      -3.850  10.634  16.254  0.00  0.00    +0.000 A 
ATOM     39  C   UNL     1      -3.978  11.499  17.337  0.00  0.00    +0.000 A 
ATOM     40  C   UNL     1      -2.969  11.563  18.302  0.00  0.00    +0.000 A 
ENDBRANCH  34  35
ENDBRANCH   1  34
TORSDOF 13
ENDMDL
MODEL 2
REMARK VINA RESULT:      -9.1      0.782      1.114
REMARK  Name = 
REMARK  14 active torsions:
REMARK  status: ('A' for Active; 'I' for Inactive)
REMARK    1  A    between atoms: C_1  and  C_2
REMARK    2  A    between atoms: C_2  and  N_3
REMARK    3  A    between atoms: C_2  and  C_32
REMARK    4  A    between atoms: N_3  and  C_4
REMARK    5  A    between atoms: C_4  and  C_5
REMARK    6  A    between atoms: C_5  and  O_6
REMARK    7  A    between atoms: C_5  and  C_7
REMARK    8  A    between atoms: C_7  and  C_8
REMARK    9  A    between atoms: C_7  and  N_15
REMARK   10  A    between atoms: C_8  and  C_9
REMARK   11  A    between atoms: C_16  and  C_18
REMARK   12  A    between atoms: C_18  and  C_19
REMARK   13  A    between atoms: C_19  and  C_20
REMARK   14  A    between atoms: C_19  and  C_26
REMARK                            x       y       z     vdW  Elec       q    Type
REMARK                         _______ _______ _______ _____ _____    ______ ____
ROOT
ATOM      1  C   UNL     1       0.178  10.641  19.089  0.00  0.00    +0.000 C 
ENDROOT
BRANCH   1   2
ATOM      2  N   UNL     1       1.035   9.512  19.521  0.00  0.00    +0.000 N 
ATOM      3  C   UNL     1       1.788   8.756  18.635  0.00  0.00    +0.000 C 
ATOM      4  O   UNL     1       1.845   8.999  17.435  0.00  0.00    +0.000 OA
ATOM      5  H   UNL     1       0.829   9.119  20.433  0.00  0.00    +0.000 HD
BRANCH   3   6
ATOM      6  C   UNL     1       2.476   7.554  19.277  0.00  0.00    +0.000 C 
BRANCH   6   7
ATOM      7  C   UNL     1       2.750   6.378  18.307  0.00  0.00    +0.000 C 
BRANCH   7   8
ATOM      8  C   UNL     1       4.228   6.213  17.954  0.00  0.00    +0.000 A 
ATOM      9  C   UNL     1       4.770   6.653  16.738  0.00  0.00    +0.000 A 
ATOM     10  C   UNL     1       6.133   6.520  16.462  0.00  0.00    +0.000 A 
ATOM     11  C   UNL     1       6.983   5.922  17.387  0.00  0.00    +0.000 A 
ATOM     12  C   UNL     1       6.466   5.455  18.592  0.00  0.00    +0.000 A 
ATOM     13  C   UNL     1       5.098   5.600  18.871  0.00  0.00    +0.000 A 
ENDBRANCH   7   8
BRANCH   7  14
ATOM     14  C   UNL     1       2.117   5.072  18.828  0.00  0.00    +0.000 A 
ATOM     15  C   UNL     1       1.871   4.009  17.943  0.00  0.00    +0.000 A 
ATOM     16  C   UNL     1       1.192   2.859  18.372  0.00  0.00    +0.000 A 
ATOM     17  C   UNL     1       0.772   2.741  19.694  0.00  0.00    +0.000 A 
ATOM     18  C   UNL     1       1.055   3.760  20.596  0.00  0.00    +0.000 A 
ATOM     19  C   UNL     1       1.722   4.914  20.168  0.00  0.00    +0.000 A 
ENDBRANCH   7  14
ENDBRANCH   6   7
ENDBRANCH   3   6
ENDBRANCH   1   2
BRANCH   1  20
ATOM     20  C   UNL     1       0.527  11.950  19.857  0.00  0.00    +0.000 C 
BRANCH  20  21
ATOM     21  O   UNL     1       1.368  11.624  20.982  0.00  0.00    +0.000 OA
ATOM     22  H   UNL     1       1.243  10.682  21.183  0.00  0.00    +0.000 HD
ENDBRANCH  20  21
BRANCH  20  23
ATOM     23  C   UNL     1       1.193  13.036  18.974  0.00  0.00    +0.000 C 
BRANCH  23  24
ATOM     24  N   UNL     1       1.313  14.287  19.739  0.00  0.00    +0.000 NA
ATOM     25  H   UNL     1       2.213  14.735  19.591  0.00  0.00    +0.000 HD
BRANCH  24  27
ATOM     26  C   UNL     1      -0.128  15.824  20.941  0.00  0.00    +0.000 C 
ATOM     27  C   UNL     1       0.215  15.240  19.559  0.00  0.00    +0.000 C 
BRANCH  27  28
ATOM     28  C   UNL     1       0.511  16.323  18.529  0.00  0.00    +0.000 A 
ATOM     29  C   UNL     1      -0.556  17.074  18.003  0.00  0.00    +0.000 A 
ATOM     30  C   UNL     1      -0.327  18.117  17.104  0.00  0.00    +0.000 A 
ATOM     31  C   UNL     1       0.973  18.427  16.713  0.00  0.00    +0.000 A 
ATOM     32  C   UNL     1       2.041  17.683  17.209  0.00  0.00    +0.000 A 
ATOM     33  C   UNL     1       1.812  16.631  18.100  0.00  0.00    +0.000 A 
ENDBRANCH  27  28
ENDBRANCH  24  27
ENDBRANCH  23  24
ENDBRANCH  20  23
ENDBRANCH   1  20
BRANCH   1  34
ATOM     34  C   UNL     1      -1.319  10.261  19.285  0.00  0.00    +0.000 C 
BRANCH  34  35
ATOM     35  C   UNL     1      -2.205  10.446  18.066  0.00  0.00    +0.000 A 
ATOM     36  C   UNL     1      -1.905   9.813  16.852  0.00  0.00    +0.000 A 
ATOM     37  C   UNL     1      -2.707  10.026  15.726  0.00  0.00    +0.000 A 
ATOM     38  C   UNL     1      -3.819  10.863  15.801  0.00  0.00    +0.000 A 
ATOM     39  C   UNL     1      -4.135  11.486  17.006  0.00  0.00    +0.000 A 
ATOM     40  C   UNL     1      -3.333  11.279  18.131  0.00  0.00    +0.000 A 
ENDBRANCH  34  35
ENDBRANCH   1  34
TORSDOF 13
ENDMDL
MODEL 3
REMARK VINA RESULT:      -9.0      2.362      3.368
REMARK  Name = 
REMARK  14 active torsions:
REMARK  status: ('A' for Active; 'I' for Inactive)
REMARK    1  A    between atoms: C_1  and  C_2
REMARK    2  A    between atoms: C_2  and  N_3
REMARK    3  A    between atoms: C_2  and  C_32
REMARK    4  A    between atoms: N_3  and  C_4
REMARK    5  A    between atoms: C_4  and  C_5
REMARK    6  A    between atoms: C_5  and  O_6
REMARK    7  A    between atoms: C_5  and  C_7
REMARK    8  A    between atoms: C_7  and  C_8
REMARK    9  A    between atoms: C_7  and  N_15
REMARK   10  A    between atoms: C_8  and  C_9
REMARK   11  A    between atoms: C_16  and  C_18
REMARK   12  A    between atoms: C_18  and  C_19
REMARK   13  A    between atoms: C_19  and  C_20
REMARK   14  A    between atoms: C_19  and  C_26
REMARK                            x       y       z     vdW  Elec       q    Type
REMARK                         _______ _______ _______ _____ _____    ______ ____
ROOT
ATOM      1  C   UNL     1       0.307  10.564  18.477  0.00  0.00    +0.000 C 
ENDROOT
BRANCH   1   2
ATOM      2  N   UNL     1       0.993   9.407  19.100  0.00  0.00    +0.000 N 
ATOM      3  C   UNL     1       1.923   8.630  18.425  0.00  0.00    +0.000 C 
ATOM      4  O   UNL     1       2.289   8.875  17.281  0.00  0.00    +0.000 OA
ATOM      5  H   UNL     1       0.551   9.018  19.926  0.00  0.00    +0.000 HD
BRANCH   3   6
ATOM      6  C   UNL     1       2.390   7.406  19.208  0.00  0.00    +0.000 C 
BRANCH   6   7
ATOM      7  C   UNL     1       2.829   6.211  18.327  0.00  0.00    +0.000 C 
BRANCH   7   8
ATOM      8  C   UNL     1       4.347   6.066  18.212  0.00  0.00    +0.000 A 
ATOM      9  C   UNL     1       5.122   5.419  19.184  0.00  0.00    +0.000 A 
ATOM     10  C   UNL     1       6.503   5.271  19.029  0.00  0.00    +0.000 A 
ATOM     11  C   UNL     1       7.145   5.789  17.908  0.00  0.00    +0.000 A 
ATOM     12  C   UNL     1       6.401   6.456  16.939  0.00  0.00    +0.000 A 
ATOM     13  C   UNL     1       5.013   6.593  17.092  0.00  0.00    +0.000 A 
ENDBRANCH   7   8
BRANCH   7  14
ATOM     14  C   UNL     1       2.143   4.906  18.782  0.00  0.00    +0.000 A 
ATOM     15  C   UNL     1       1.634   4.798  20.087  0.00  0.00    +0.000 A 
ATOM     16  C   UNL     1       1.111   3.585  20.556  0.00  0.00    +0.000 A 
ATOM     17  C   UNL     1       1.065   2.470  19.725  0.00  0.00    +0.000 A 
ATOM     18  C   UNL     1       1.514   2.573  18.414  0.00  0.00    +0.000 A 
ATOM     19  C   UNL     1       2.047   3.780  17.946  0.00  0.00    +0.000 A 
ENDBRANCH   7  14
ENDBRANCH   6   7
ENDBRANCH   3   6
ENDBRANCH   1   2
BRANCH   1  20
ATOM     20  C   UNL     1       1.031  11.902  18.806  0.00  0.00    +0.000 C 
BRANCH  20  21
ATOM     21  O   UNL     1       0.247  12.999  18.296  0.00  0.00    +0.000 OA
ATOM     22  H   UNL     1      -0.035  13.539  19.052  0.00  0.00    +0.000 HD
ENDBRANCH  20  21
BRANCH  20  23
ATOM     23  C   UNL     1       1.330  12.098  20.315  0.00  0.00    +0.000 C 
BRANCH  23  24
ATOM     24  N   UNL     1       0.142  11.737  21.102  0.00  0.00    +0.000 NA
ATOM     25  H   UNL     1       0.262  10.848  21.581  0.00  0.00    +0.000 HD
BRANCH  24  27
ATOM     26  C   UNL     1       0.414  14.074  21.695  0.00  0.00    +0.000 C 
ATOM     27  C   UNL     1      -0.336  12.771  22.026  0.00  0.00    +0.000 C 
BRANCH  27  28
ATOM     28  C   UNL     1      -1.848  12.950  22.008  0.00  0.00    +0.000 A 
ATOM     29  C   UNL     1      -2.448  13.579  20.902  0.00  0.00    +0.000 A 
ATOM     30  C   UNL     1      -3.835  13.709  20.814  0.00  0.00    +0.000 A 
ATOM     31  C   UNL     1      -4.648  13.215  21.830  0.00  0.00    +0.000 A 
ATOM     32  C   UNL     1      -4.072  12.606  22.942  0.00  0.00    +0.000 A 
ATOM     33  C   UNL     1      -2.682  12.485  23.038  0.00  0.00    +0.000 A 
ENDBRANCH  27  28
ENDBRANCH  24  27
ENDBRANCH  23  24
ENDBRANCH  20  23
ENDBRANCH   1  20
BRANCH   1  34
ATOM     34  C   UNL     1      -1.177  10.602  18.946  0.00  0.00    +0.000 C 
BRANCH  34  35
ATOM     35  C   UNL     1      -2.212  10.678  17.838  0.00  0.00    +0.000 A 
ATOM     36  C   UNL     1      -3.379  11.438  17.990  0.00  0.00    +0.000 A 
ATOM     37  C   UNL     1      -4.344  11.464  16.977  0.00  0.00    +0.000 A 
ATOM     38  C   UNL     1      -4.150  10.740  15.802  0.00  0.00    +0.000 A 
ATOM     39  C   UNL     1      -2.988   9.993  15.633  0.00  0.00    +0.000 A 
ATOM     40  C   UNL     1      -2.025   9.961  16.646  0.00  0.00    +0.000 A 
ENDBRANCH  34  35
ENDBRANCH   1  34
TORSDOF 13
ENDMDL
MODEL 4
REMARK VINA RESULT:      -8.9      1.186      1.833
REMARK  Name = 
REMARK  14 active torsions:
REMARK  status: ('A' for Active; 'I' for Inactive)
REMARK    1  A    between atoms: C_1  and  C_2
REMARK    2  A    between atoms: C_2  and  N_3
REMARK    3  A    between atoms: C_2  and  C_32
REMARK    4  A    between atoms: N_3  and  C_4
REMARK    5  A    between atoms: C_4  and  C_5
REMARK    6  A    between atoms: C_5  and  O_6
REMARK    7  A    between atoms: C_5  and  C_7
REMARK    8  A    between atoms: C_7  and  C_8
REMARK    9  A    between atoms: C_7  and  N_15
REMARK   10  A    between atoms: C_8  and  C_9
REMARK   11  A    between atoms: C_16  and  C_18
REMARK   12  A    between atoms: C_18  and  C_19
REMARK   13  A    between atoms: C_19  and  C_20
REMARK   14  A    between atoms: C_19  and  C_26
REMARK                            x       y       z     vdW  Elec       q    Type
REMARK                         _______ _______ _______ _____ _____    ______ ____
ROOT
ATOM      1  C   UNL     1       0.485  10.494  18.597  0.00  0.00    +0.000 C 
ENDROOT
BRANCH   1   2
ATOM      2  N   UNL     1       1.299   9.360  19.098  0.00  0.00    +0.000 N 
ATOM      3  C   UNL     1       2.114   8.598  18.275  0.00  0.00    +0.000 C 
ATOM      4  O   UNL     1       2.267   8.838  17.083  0.00  0.00    +0.000 OA
ATOM      5  H   UNL     1       1.020   8.970  19.991  0.00  0.00    +0.000 HD
BRANCH   3   6
ATOM      6  C   UNL     1       2.742   7.394  18.972  0.00  0.00    +0.000 C 
BRANCH   6   7
ATOM      7  C   UNL     1       2.704   6.083  18.147  0.00  0.00    +0.000 C 
BRANCH   7   8
ATOM      8  C   UNL     1       4.026   5.767  17.446  0.00  0.00    +0.000 A 
ATOM      9  C   UNL     1       5.077   6.690  17.360  0.00  0.00    +0.000 A 
ATOM     10  C   UNL     1       6.287   6.355  16.745  0.00  0.00    +0.000 A 
ATOM     11  C   UNL     1       6.464   5.096  16.180  0.00  0.00    +0.000 A 
ATOM     12  C   UNL     1       5.427   4.169  16.232  0.00  0.00    +0.000 A 
ATOM     13  C   UNL     1       4.218   4.505  16.860  0.00  0.00    +0.000 A 
ENDBRANCH   7   8
BRANCH   7  14
ATOM     14  C   UNL     1       2.190   4.907  19.000  0.00  0.00    +0.000 A 
ATOM     15  C   UNL     1       1.366   3.926  18.422  0.00  0.00    +0.000 A 
ATOM     16  C   UNL     1       0.795   2.914  19.206  0.00  0.00    +0.000 A 
ATOM     17  C   UNL     1       1.058   2.847  20.571  0.00  0.00    +0.000 A 
ATOM     18  C   UNL     1       1.914   3.776  21.150  0.00  0.00    +0.000 A 
ATOM     19  C   UNL     1       2.476   4.795  20.372  0.00  0.00    +0.000 A 
ENDBRANCH   7  14
ENDBRANCH   6   7
ENDBRANCH   3   6
ENDBRANCH   1   2
BRANCH   1  20
ATOM     20  C   UNL     1       1.050  11.860  19.083  0.00  0.00    +0.000 C 
BRANCH  20  21
ATOM     21  O   UNL     1       1.233  11.812  20.512  0.00  0.00    +0.000 OA
ATOM     22  H   UNL     1       2.188  11.817  20.689  0.00  0.00    +0.000 HD
ENDBRANCH  20  21
BRANCH  20  23
ATOM     23  C   UNL     1       2.365  12.281  18.377  0.00  0.00    +0.000 C 
BRANCH  23  24
ATOM     24  N   UNL     1       2.302  13.709  18.030  0.00  0.00    +0.000 NA
ATOM     25  H   UNL     1       1.800  13.864  17.160  0.00  0.00    +0.000 HD
BRANCH  24  27
ATOM     26  C   UNL     1       2.975  14.879  20.046  0.00  0.00    +0.000 C 
ATOM     27  C   UNL     1       1.804  14.590  19.090  0.00  0.00    +0.000 C 
BRANCH  27  28
ATOM     28  C   UNL     1       1.153  15.864  18.566  0.00  0.00    +0.000 A 
ATOM     29  C   UNL     1       1.942  16.794  17.864  0.00  0.00    +0.000 A 
ATOM     30  C   UNL     1       1.377  17.945  17.313  0.00  0.00    +0.000 A 
ATOM     31  C   UNL     1       0.014  18.188  17.454  0.00  0.00    +0.000 A 
ATOM     32  C   UNL     1      -0.780  17.289  18.161  0.00  0.00    +0.000 A 
ATOM     33  C   UNL     1      -0.214  16.142  18.724  0.00  0.00    +0.000 A 
ENDBRANCH  27  28
ENDBRANCH  24  27
ENDBRANCH  23  24
ENDBRANCH  20  23
ENDBRANCH   1  20
BRANCH   1  34
ATOM     34  C   UNL     1      -0.994  10.309  19.047  0.00  0.00    +0.000 C 
BRANCH  34  35
ATOM     35  C   UNL     1      -2.038  10.515  17.964  0.00  0.00    +0.000 A 
ATOM     36  C   UNL     1      -3.157  11.329  18.185  0.00  0.00    +0.000 A 
ATOM     37  C   UNL     1      -4.132  11.476  17.193  0.00  0.00    +0.000 A 
ATOM     38  C   UNL     1      -3.996  10.821  15.970  0.00  0.00    +0.000 A 
ATOM     39  C   UNL     1      -2.881  10.022  15.733  0.00  0.00    +0.000 A 
ATOM     40  C   UNL     1      -1.909   9.869  16.725  0.00  0.00    +0.000 A 
ENDBRANCH  34  35
ENDBRANCH   1  34
TORSDOF 13
ENDMDL
MODEL 5
REMARK VINA RESULT:      -8.9      1.352      2.520
REMARK  Name = 
REMARK  14 active torsions:
REMARK  status: ('A' for Active; 'I' for Inactive)
REMARK    1  A    between atoms: C_1  and  C_2
REMARK    2  A    between atoms: C_2  and  N_3
REMARK    3  A    between atoms: C_2  and  C_32
REMARK    4  A    between atoms: N_3  and  C_4
REMARK    5  A    between atoms: C_4  and  C_5
REMARK    6  A    between atoms: C_5  and  O_6
REMARK    7  A    between atoms: C_5  and  C_7
REMARK    8  A    between atoms: C_7  and  C_8
REMARK    9  A    between atoms: C_7  and  N_15
REMARK   10  A    between atoms: C_8  and  C_9
REMARK   11  A    between atoms: C_16  and  C_18
REMARK   12  A    between atoms: C_18  and  C_19
REMARK   13  A    between atoms: C_19  and  C_20
REMARK   14  A    between atoms: C_19  and  C_26
REMARK                            x       y       z     vdW  Elec       q    Type
REMARK                         _______ _______ _______ _____ _____    ______ ____
ROOT
ATOM      1  C   UNL     1       0.734  10.701  18.397  0.00  0.00    +0.000 C 
ENDROOT
BRANCH   1   2
ATOM      2  N   UNL     1       1.383   9.515  19.006  0.00  0.00    +0.000 N 
ATOM      3  C   UNL     1       2.145   8.616  18.275  0.00  0.00    +0.000 C 
ATOM      4  O   UNL     1       2.384   8.762  17.082  0.00  0.00    +0.000 OA
ATOM      5  H   UNL     1       1.017   9.217  19.903  0.00  0.00    +0.000 HD
BRANCH   3   6
ATOM      6  C   UNL     1       2.592   7.394  19.073  0.00  0.00    +0.000 C 
BRANCH   6   7
ATOM      7  C   UNL     1       3.046   6.193  18.206  0.00  0.00    +0.000 C 
BRANCH   7   8
ATOM      8  C   UNL     1       4.565   6.057  18.102  0.00  0.00    +0.000 A 
ATOM      9  C   UNL     1       5.293   6.512  16.993  0.00  0.00    +0.000 A 
ATOM     10  C   UNL     1       6.685   6.406  16.947  0.00  0.00    +0.000 A 
ATOM     11  C   UNL     1       7.381   5.820  18.000  0.00  0.00    +0.000 A 
ATOM     12  C   UNL     1       6.681   5.340  19.102  0.00  0.00    +0.000 A 
ATOM     13  C   UNL     1       5.283   5.458  19.150  0.00  0.00    +0.000 A 
ENDBRANCH   7   8
BRANCH   7  14
ATOM     14  C   UNL     1       2.366   4.889  18.668  0.00  0.00    +0.000 A 
ATOM     15  C   UNL     1       2.339   3.771  17.817  0.00  0.00    +0.000 A 
ATOM     16  C   UNL     1       1.627   2.615  18.170  0.00  0.00    +0.000 A 
ATOM     17  C   UNL     1       0.954   2.547  19.387  0.00  0.00    +0.000 A 
ATOM     18  C   UNL     1       1.015   3.624  20.265  0.00  0.00    +0.000 A 
ATOM     19  C   UNL     1       1.715   4.782  19.909  0.00  0.00    +0.000 A 
ENDBRANCH   7  14
ENDBRANCH   6   7
ENDBRANCH   3   6
ENDBRANCH   1   2
BRANCH   1  20
ATOM     20  C   UNL     1       1.645  11.960  18.486  0.00  0.00    +0.000 C 
BRANCH  20  21
ATOM     21  O   UNL     1       2.629  11.903  17.434  0.00  0.00    +0.000 OA
ATOM     22  H   UNL     1       2.557  11.034  17.007  0.00  0.00    +0.000 HD
ENDBRANCH  20  21
BRANCH  20  23
ATOM     23  C   UNL     1       0.867  13.301  18.435  0.00  0.00    +0.000 C 
BRANCH  23  24
ATOM     24  N   UNL     1       1.336  14.182  19.515  0.00  0.00    +0.000 NA
ATOM     25  H   UNL     1       2.303  14.466  19.377  0.00  0.00    +0.000 HD
BRANCH  24  27
ATOM     26  C   UNL     1       0.849  15.864  21.194  0.00  0.00    +0.000 C 
ATOM     27  C   UNL     1       0.482  15.341  19.794  0.00  0.00    +0.000 C 
BRANCH  27  28
ATOM     28  C   UNL     1       0.562  16.427  18.728  0.00  0.00    +0.000 A 
ATOM     29  C   UNL     1       1.820  16.775  18.202  0.00  0.00    +0.000 A 
ATOM     30  C   UNL     1       1.936  17.719  17.181  0.00  0.00    +0.000 A 
ATOM     31  C   UNL     1       0.797  18.334  16.668  0.00  0.00    +0.000 A 
ATOM     32  C   UNL     1      -0.455  18.016  17.188  0.00  0.00    +0.000 A 
ATOM     33  C   UNL     1      -0.572  17.079  18.219  0.00  0.00    +0.000 A 
ENDBRANCH  27  28
ENDBRANCH  24  27
ENDBRANCH  23  24
ENDBRANCH  20  23
ENDBRANCH   1  20
BRANCH   1  34
ATOM     34  C   UNL     1      -0.638  10.953  19.089  0.00  0.00    +0.000 C 
BRANCH  34  35
ATOM     35  C   UNL     1      -0.671  10.703  20.586  0.00  0.00    +0.000 A 
ATOM     36  C   UNL     1      -0.450   9.422  21.110  0.00  0.00    +0.000 A 
ATOM     37  C   UNL     1      -0.526   9.198  22.488  0.00  0.00    +0.000 A 
ATOM     38  C   UNL     1      -0.814  10.249  23.358  0.00  0.00    +0.000 A 
ATOM     39  C   UNL     1      -1.021  11.529  22.851  0.00  0.00    +0.000 A 
ATOM     40  C   UNL     1      -0.951  11.754  21.473  0.00  0.00    +0.000 A 
ENDBRANCH  34  35
ENDBRANCH   1  34
TORSDOF 13
ENDMDL
MODEL 6
REMARK VINA RESULT:      -8.9      1.799      4.505
REMARK  Name = 
REMARK  14 active torsions:
REMARK  status: ('A' for Active; 'I' for Inactive)
REMARK    1  A    between atoms: C_1  and  C_2
REMARK    2  A    between atoms: C_2  and  N_3
REMARK    3  A    between atoms: C_2  and  C_32
REMARK    4  A    between atoms: N_3  and  C_4
REMARK    5  A    between atoms: C_4  and  C_5
REMARK    6  A    between atoms: C_5  and  O_6
REMARK    7  A    between atoms: C_5  and  C_7
REMARK    8  A    between atoms: C_7  and  C_8
REMARK    9  A    between atoms: C_7  and  N_15
REMARK   10  A    between atoms: C_8  and  C_9
REMARK   11  A    between atoms: C_16  and  C_18
REMARK   12  A    between atoms: C_18  and  C_19
REMARK   13  A    between atoms: C_19  and  C_20
REMARK   14  A    between atoms: C_19  and  C_26
REMARK                            x       y       z     vdW  Elec       q    Type
REMARK                         _______ _______ _______ _____ _____    ______ ____
ROOT
ATOM      1  C   UNL     1       0.648  10.861  18.072  0.00  0.00    +0.000 C 
ENDROOT
BRANCH   1   2
ATOM      2  N   UNL     1       1.245   9.578  17.630  0.00  0.00    +0.000 N 
ATOM      3  C   UNL     1       1.716   8.622  18.517  0.00  0.00    +0.000 C 
ATOM      4  O   UNL     1       1.624   8.740  19.733  0.00  0.00    +0.000 OA
ATOM      5  H   UNL     1       1.570   9.545  16.670  0.00  0.00    +0.000 HD
BRANCH   3   6
ATOM      6  C   UNL     1       2.422   7.449  17.843  0.00  0.00    +0.000 C 
BRANCH   6   7
ATOM      7  C   UNL     1       3.131   6.479  18.821  0.00  0.00    +0.000 C 
BRANCH   7   8
ATOM      8  C   UNL     1       2.322   5.217  19.119  0.00  0.00    +0.000 A 
ATOM      9  C   UNL     1       1.855   4.901  20.402  0.00  0.00    +0.000 A 
ATOM     10  C   UNL     1       1.087   3.758  20.633  0.00  0.00    +0.000 A 
ATOM     11  C   UNL     1       0.787   2.889  19.588  0.00  0.00    +0.000 A 
ATOM     12  C   UNL     1       1.259   3.166  18.309  0.00  0.00    +0.000 A 
ATOM     13  C   UNL     1       2.021   4.322  18.078  0.00  0.00    +0.000 A 
ENDBRANCH   7   8
BRANCH   7  14
ATOM     14  C   UNL     1       4.565   6.166  18.347  0.00  0.00    +0.000 A 
ATOM     15  C   UNL     1       5.438   5.444  19.179  0.00  0.00    +0.000 A 
ATOM     16  C   UNL     1       6.778   5.248  18.817  0.00  0.00    +0.000 A 
ATOM     17  C   UNL     1       7.261   5.745  17.610  0.00  0.00    +0.000 A 
ATOM     18  C   UNL     1       6.398   6.415  16.750  0.00  0.00    +0.000 A 
ATOM     19  C   UNL     1       5.063   6.622  17.114  0.00  0.00    +0.000 A 
ENDBRANCH   7  14
ENDBRANCH   6   7
ENDBRANCH   3   6
ENDBRANCH   1   2
BRANCH   1  20
ATOM     20  C   UNL     1       1.729  11.831  18.632  0.00  0.00    +0.000 C 
BRANCH  20  21
ATOM     21  O   UNL     1       2.788  11.964  17.664  0.00  0.00    +0.000 OA
ATOM     22  H   UNL     1       2.521  11.483  16.864  0.00  0.00    +0.000 HD
ENDBRANCH  20  21
BRANCH  20  23
ATOM     23  C   UNL     1       1.175  13.223  19.033  0.00  0.00    +0.000 C 
BRANCH  23  24
ATOM     24  N   UNL     1       1.173  13.349  20.498  0.00  0.00    +0.000 NA
ATOM     25  H   UNL     1       2.081  13.638  20.853  0.00  0.00    +0.000 HD
BRANCH  24  27
ATOM     26  C   UNL     1      -0.583  14.905  19.882  0.00  0.00    +0.000 C 
ATOM     27  C   UNL     1       0.101  14.179  21.055  0.00  0.00    +0.000 C 
BRANCH  27  28
ATOM     28  C   UNL     1      -0.888  13.402  21.914  0.00  0.00    +0.000 A 
ATOM     29  C   UNL     1      -2.119  13.997  22.245  0.00  0.00    +0.000 A 
ATOM     30  C   UNL     1      -3.081  13.300  22.977  0.00  0.00    +0.000 A 
ATOM     31  C   UNL     1      -2.830  11.996  23.393  0.00  0.00    +0.000 A 
ATOM     32  C   UNL     1      -1.611  11.395  23.090  0.00  0.00    +0.000 A 
ATOM     33  C   UNL     1      -0.641  12.096  22.367  0.00  0.00    +0.000 A 
ENDBRANCH  27  28
ENDBRANCH  24  27
ENDBRANCH  23  24
ENDBRANCH  20  23
ENDBRANCH   1  20
BRANCH   1  34
ATOM     34  C   UNL     1      -0.456  10.581  19.134  0.00  0.00    +0.000 C 
BRANCH  34  35
ATOM     35  C   UNL     1      -1.883  10.815  18.672  0.00  0.00    +0.000 A 
ATOM     36  C   UNL     1      -2.683  11.800  19.265  0.00  0.00    +0.000 A 
ATOM     37  C   UNL     1      -4.009  11.976  18.858  0.00  0.00    +0.000 A 
ATOM     38  C   UNL     1      -4.547  11.177  17.850  0.00  0.00    +0.000 A 
ATOM     39  C   UNL     1      -3.758  10.204  17.243  0.00  0.00    +0.000 A 
ATOM     40  C   UNL     1      -2.434  10.024  17.652  0.00  0.00    +0.000 A 
ENDBRANCH  34  35
ENDBRANCH   1  34
TORSDOF 13
ENDMDL
MODEL 7
REMARK VINA RESULT:      -8.8      2.243      3.602
REMARK  Name = 
REMARK  14 active torsions:
REMARK  status: ('A' for Active; 'I' for Inactive)
REMARK    1  A    between atoms: C_1  and  C_2
REMARK    2  A    between atoms: C_2  and  N_3
REMARK    3  A    between atoms: C_2  and  C_32
REMARK    4  A    between atoms: N_3  and  C_4
REMARK    5  A    between atoms: C_4  and  C_5
REMARK    6  A    between atoms: C_5  and  O_6
REMARK    7  A    between atoms: C_5  and  C_7
REMARK    8  A    between atoms: C_7  and  C_8
REMARK    9  A    between atoms: C_7  and  N_15
REMARK   10  A    between atoms: C_8  and  C_9
REMARK   11  A    between atoms: C_16  and  C_18
REMARK   12  A    between atoms: C_18  and  C_19
REMARK   13  A    between atoms: C_19  and  C_20
REMARK   14  A    between atoms: C_19  and  C_26
REMARK                            x       y       z     vdW  Elec       q    Type
REMARK                         _______ _______ _______ _____ _____    ______ ____
ROOT
ATOM      1  C   UNL     1       0.505  10.276  18.558  0.00  0.00    +0.000 C 
ENDROOT
BRANCH   1   2
ATOM      2  N   UNL     1       1.330   9.157  19.072  0.00  0.00    +0.000 N 
ATOM      3  C   UNL     1       2.144   8.384  18.255  0.00  0.00    +0.000 C 
ATOM      4  O   UNL     1       2.284   8.603  17.058  0.00  0.00    +0.000 OA
ATOM      5  H   UNL     1       1.061   8.782  19.975  0.00  0.00    +0.000 HD
BRANCH   3   6
ATOM      6  C   UNL     1       2.785   7.197  18.969  0.00  0.00    +0.000 C 
BRANCH   6   7
ATOM      7  C   UNL     1       2.711   5.863  18.186  0.00  0.00    +0.000 C 
BRANCH   7   8
ATOM      8  C   UNL     1       3.998   5.528  17.432  0.00  0.00    +0.000 A 
ATOM      9  C   UNL     1       4.207   4.295  16.800  0.00  0.00    +0.000 A 
ATOM     10  C   UNL     1       5.381   4.035  16.087  0.00  0.00    +0.000 A 
ATOM     11  C   UNL     1       6.384   4.996  16.010  0.00  0.00    +0.000 A 
ATOM     12  C   UNL     1       6.212   6.220  16.648  0.00  0.00    +0.000 A 
ATOM     13  C   UNL     1       5.027   6.482  17.354  0.00  0.00    +0.000 A 
ENDBRANCH   7   8
BRANCH   7  14
ATOM     14  C   UNL     1       2.244   4.711  19.098  0.00  0.00    +0.000 A 
ATOM     15  C   UNL     1       1.347   3.746  18.608  0.00  0.00    +0.000 A 
ATOM     16  C   UNL     1       0.821   2.759  19.453  0.00  0.00    +0.000 A 
ATOM     17  C   UNL     1       1.199   2.703  20.792  0.00  0.00    +0.000 A 
ATOM     18  C   UNL     1       2.126   3.616  21.280  0.00  0.00    +0.000 A 
ATOM     19  C   UNL     1       2.644   4.610  20.441  0.00  0.00    +0.000 A 
ENDBRANCH   7  14
ENDBRANCH   6   7
ENDBRANCH   3   6
ENDBRANCH   1   2
BRANCH   1  20
ATOM     20  C   UNL     1       1.116  11.656  18.936  0.00  0.00    +0.000 C 
BRANCH  20  21
ATOM     21  O   UNL     1       0.451  12.688  18.181  0.00  0.00    +0.000 OA
ATOM     22  H   UNL     1       0.851  13.539  18.424  0.00  0.00    +0.000 HD
ENDBRANCH  20  21
BRANCH  20  23
ATOM     23  C   UNL     1       1.064  11.970  20.454  0.00  0.00    +0.000 C 
BRANCH  23  24
ATOM     24  N   UNL     1      -0.094  12.831  20.739  0.00  0.00    +0.000 NA
ATOM     25  H   UNL     1      -0.972  12.325  20.648  0.00  0.00    +0.000 HD
BRANCH  24  27
ATOM     26  C   UNL     1       0.431  14.993  21.704  0.00  0.00    +0.000 C 
ATOM     27  C   UNL     1      -0.036  13.559  22.010  0.00  0.00    +0.000 C 
BRANCH  27  28
ATOM     28  C   UNL     1      -1.344  13.527  22.790  0.00  0.00    +0.000 A 
ATOM     29  C   UNL     1      -2.231  12.454  22.590  0.00  0.00    +0.000 A 
ATOM     30  C   UNL     1      -3.412  12.350  23.327  0.00  0.00    +0.000 A 
ATOM     31  C   UNL     1      -3.728  13.318  24.277  0.00  0.00    +0.000 A 
ATOM     32  C   UNL     1      -2.871  14.397  24.477  0.00  0.00    +0.000 A 
ATOM     33  C   UNL     1      -1.694  14.509  23.731  0.00  0.00    +0.000 A 
ENDBRANCH  27  28
ENDBRANCH  24  27
ENDBRANCH  23  24
ENDBRANCH  20  23
ENDBRANCH   1  20
BRANCH   1  34
ATOM     34  C   UNL     1      -0.948  10.140  19.100  0.00  0.00    +0.000 C 
BRANCH  34  35
ATOM     35  C   UNL     1      -2.050  10.452  18.103  0.00  0.00    +0.000 A 
ATOM     36  C   UNL     1      -3.084  11.342  18.423  0.00  0.00    +0.000 A 
ATOM     37  C   UNL     1      -4.115  11.587  17.511  0.00  0.00    +0.000 A 
ATOM     38  C   UNL     1      -4.121  10.955  16.268  0.00  0.00    +0.000 A 
ATOM     39  C   UNL     1      -3.091  10.080  15.933  0.00  0.00    +0.000 A 
ATOM     40  C   UNL     1      -2.063   9.830  16.845  0.00  0.00    +0.000 A 
ENDBRANCH  34  35
ENDBRANCH   1  34
TORSDOF 13
ENDMDL
MODEL 8
REMARK VINA RESULT:      -8.7      2.327      4.336
REMARK  Name = 
REMARK  14 active torsions:
REMARK  status: ('A' for Active; 'I' for Inactive)
REMARK    1  A    between atoms: C_1  and  C_2
REMARK    2  A    between atoms: C_2  and  N_3
REMARK    3  A    between atoms: C_2  and  C_32
REMARK    4  A    between atoms: N_3  and  C_4
REMARK    5  A    between atoms: C_4  and  C_5
REMARK    6  A    between atoms: C_5  and  O_6
REMARK    7  A    between atoms: C_5  and  C_7
REMARK    8  A    between atoms: C_7  and  C_8
REMARK    9  A    between atoms: C_7  and  N_15
REMARK   10  A    between atoms: C_8  and  C_9
REMARK   11  A    between atoms: C_16  and  C_18
REMARK   12  A    between atoms: C_18  and  C_19
REMARK   13  A    between atoms: C_19  and  C_20
REMARK   14  A    between atoms: C_19  and  C_26
REMARK                            x       y       z     vdW  Elec       q    Type
REMARK                         _______ _______ _______ _____ _____    ______ ____
ROOT
ATOM      1  C   UNL     1       0.685  10.772  18.332  0.00  0.00    +0.000 C 
ENDROOT
BRANCH   1   2
ATOM      2  N   UNL     1       1.386   9.598  17.759  0.00  0.00    +0.000 N 
ATOM      3  C   UNL     1       1.854   8.548  18.535  0.00  0.00    +0.000 C 
ATOM      4  O   UNL     1       1.675   8.484  19.745  0.00  0.00    +0.000 OA
ATOM      5  H   UNL     1       1.775   9.720  16.831  0.00  0.00    +0.000 HD
BRANCH   3   6
ATOM      6  C   UNL     1       2.673   7.522  17.756  0.00  0.00    +0.000 C 
BRANCH   6   7
ATOM      7  C   UNL     1       3.390   6.471  18.639  0.00  0.00    +0.000 C 
BRANCH   7   8
ATOM      8  C   UNL     1       2.497   5.290  19.024  0.00  0.00    +0.000 A 
ATOM      9  C   UNL     1       2.087   5.050  20.343  0.00  0.00    +0.000 A 
ATOM     10  C   UNL     1       1.240   3.983  20.655  0.00  0.00    +0.000 A 
ATOM     11  C   UNL     1       0.803   3.117  19.658  0.00  0.00    +0.000 A 
ATOM     12  C   UNL     1       1.214   3.320  18.344  0.00  0.00    +0.000 A 
ATOM     13  C   UNL     1       2.056   4.399  18.032  0.00  0.00    +0.000 A 
ENDBRANCH   7   8
BRANCH   7  14
ATOM     14  C   UNL     1       4.718   6.022  17.998  0.00  0.00    +0.000 A 
ATOM     15  C   UNL     1       4.914   6.164  16.613  0.00  0.00    +0.000 A 
ATOM     16  C   UNL     1       6.066   5.658  15.994  0.00  0.00    +0.000 A 
ATOM     17  C   UNL     1       7.051   5.027  16.748  0.00  0.00    +0.000 A 
ATOM     18  C   UNL     1       6.899   4.926  18.126  0.00  0.00    +0.000 A 
ATOM     19  C   UNL     1       5.745   5.420  18.745  0.00  0.00    +0.000 A 
ENDBRANCH   7  14
ENDBRANCH   6   7
ENDBRANCH   3   6
ENDBRANCH   1   2
BRANCH   1  20
ATOM     20  C   UNL     1       1.571  11.514  19.374  0.00  0.00    +0.000 C 
BRANCH  20  21
ATOM     21  O   UNL     1       2.099  12.713  18.773  0.00  0.00    +0.000 OA
ATOM     22  H   UNL     1       2.042  12.612  17.809  0.00  0.00    +0.000 HD
ENDBRANCH  20  21
BRANCH  20  23
ATOM     23  C   UNL     1       0.837  11.844  20.699  0.00  0.00    +0.000 C 
BRANCH  23  24
ATOM     24  N   UNL     1       0.653  13.299  20.811  0.00  0.00    +0.000 NA
ATOM     25  H   UNL     1       0.189  13.684  19.992  0.00  0.00    +0.000 HD
BRANCH  24  27
ATOM     26  C   UNL     1       0.272  15.267  22.176  0.00  0.00    +0.000 C 
ATOM     27  C   UNL     1       0.007  13.757  22.044  0.00  0.00    +0.000 C 
BRANCH  27  28
ATOM     28  C   UNL     1      -1.476  13.418  22.118  0.00  0.00    +0.000 A 
ATOM     29  C   UNL     1      -1.939  12.605  23.168  0.00  0.00    +0.000 A 
ATOM     30  C   UNL     1      -3.297  12.319  23.312  0.00  0.00    +0.000 A 
ATOM     31  C   UNL     1      -4.218  12.839  22.407  0.00  0.00    +0.000 A 
ATOM     32  C   UNL     1      -3.778  13.632  21.350  0.00  0.00    +0.000 A 
ATOM     33  C   UNL     1      -2.416  13.909  21.198  0.00  0.00    +0.000 A 
ENDBRANCH  27  28
ENDBRANCH  24  27
ENDBRANCH  23  24
ENDBRANCH  20  23
ENDBRANCH   1  20
BRANCH   1  34
ATOM     34  C   UNL     1      -0.660  10.313  18.968  0.00  0.00    +0.000 C 
BRANCH  34  35
ATOM     35  C   UNL     1      -1.896  10.527  18.113  0.00  0.00    +0.000 A 
ATOM     36  C   UNL     1      -2.030   9.899  16.867  0.00  0.00    +0.000 A 
ATOM     37  C   UNL     1      -3.154  10.139  16.071  0.00  0.00    +0.000 A 
ATOM     38  C   UNL     1      -4.158  10.999  16.511  0.00  0.00    +0.000 A 
ATOM     39  C   UNL     1      -4.043  11.619  17.753  0.00  0.00    +0.000 A 
ATOM     40  C   UNL     1      -2.918  11.384  18.548  0.00  0.00    +0.000 A 
ENDBRANCH  34  35
ENDBRANCH   1  34
TORSDOF 13
ENDMDL
MODEL 9
REMARK VINA RESULT:      -8.7      2.948      3.755
REMARK  Name = 
REMARK  14 active torsions:
REMARK  status: ('A' for Active; 'I' for Inactive)
REMARK    1  A    between atoms: C_1  and  C_2
REMARK    2  A    between atoms: C_2  and  N_3
REMARK    3  A    between atoms: C_2  and  C_32
REMARK    4  A    between atoms: N_3  and  C_4
REMARK    5  A    between atoms: C_4  and  C_5
REMARK    6  A    between atoms: C_5  and  O_6
REMARK    7  A    between atoms: C_5  and  C_7
REMARK    8  A    between atoms: C_7  and  C_8
REMARK    9  A    between atoms: C_7  and  N_15
REMARK   10  A    between atoms: C_8  and  C_9
REMARK   11  A    between atoms: C_16  and  C_18
REMARK   12  A    between atoms: C_18  and  C_19
REMARK   13  A    between atoms: C_19  and  C_20
REMARK   14  A    between atoms: C_19  and  C_26
REMARK                            x       y       z     vdW  Elec       q    Type
REMARK                         _______ _______ _______ _____ _____    ______ ____
ROOT
ATOM      1  C   UNL     1       0.367  10.440  19.144  0.00  0.00    +0.000 C 
ENDROOT
BRANCH   1   2
ATOM      2  N   UNL     1       1.275   9.318  19.482  0.00  0.00    +0.000 N 
ATOM      3  C   UNL     1       1.925   8.560  18.519  0.00  0.00    +0.000 C 
ATOM      4  O   UNL     1       1.842   8.795  17.320  0.00  0.00    +0.000 OA
ATOM      5  H   UNL     1       1.178   8.931  20.414  0.00  0.00    +0.000 HD
BRANCH   3   6
ATOM      6  C   UNL     1       2.690   7.367  19.086  0.00  0.00    +0.000 C 
BRANCH   6   7
ATOM      7  C   UNL     1       2.487   6.046  18.304  0.00  0.00    +0.000 C 
BRANCH   7   8
ATOM      8  C   UNL     1       3.703   5.638  17.471  0.00  0.00    +0.000 A 
ATOM      9  C   UNL     1       3.970   4.308  17.120  0.00  0.00    +0.000 A 
ATOM     10  C   UNL     1       5.071   3.975  16.326  0.00  0.00    +0.000 A 
ATOM     11  C   UNL     1       5.945   4.963  15.886  0.00  0.00    +0.000 A 
ATOM     12  C   UNL     1       5.716   6.289  16.240  0.00  0.00    +0.000 A 
ATOM     13  C   UNL     1       4.603   6.622  17.028  0.00  0.00    +0.000 A 
ENDBRANCH   7   8
BRANCH   7  14
ATOM     14  C   UNL     1       2.005   4.918  19.238  0.00  0.00    +0.000 A 
ATOM     15  C   UNL     1       2.414   4.896  20.582  0.00  0.00    +0.000 A 
ATOM     16  C   UNL     1       2.082   3.819  21.417  0.00  0.00    +0.000 A 
ATOM     17  C   UNL     1       1.317   2.762  20.933  0.00  0.00    +0.000 A 
ATOM     18  C   UNL     1       0.858   2.793  19.621  0.00  0.00    +0.000 A 
ATOM     19  C   UNL     1       1.197   3.861  18.782  0.00  0.00    +0.000 A 
ENDBRANCH   7  14
ENDBRANCH   6   7
ENDBRANCH   3   6
ENDBRANCH   1   2
BRANCH   1  20
ATOM     20  C   UNL     1       0.620  11.675  20.059  0.00  0.00    +0.000 C 
BRANCH  20  21
ATOM     21  O   UNL     1       0.031  12.840  19.449  0.00  0.00    +0.000 OA
ATOM     22  H   UNL     1      -0.883  12.618  19.207  0.00  0.00    +0.000 HD
ENDBRANCH  20  21
BRANCH  20  23
ATOM     23  C   UNL     1       0.103  11.496  21.510  0.00  0.00    +0.000 C 
BRANCH  23  24
ATOM     24  N   UNL     1      -0.117  12.817  22.119  0.00  0.00    +0.000 NA
ATOM     25  H   UNL     1       0.240  13.567  21.533  0.00  0.00    +0.000 HD
BRANCH  24  27
ATOM     26  C   UNL     1      -2.095  11.767  23.051  0.00  0.00    +0.000 C 
ATOM     27  C   UNL     1      -1.492  13.090  22.545  0.00  0.00    +0.000 C 
BRANCH  27  28
ATOM     28  C   UNL     1      -1.601  14.208  23.574  0.00  0.00    +0.000 A 
ATOM     29  C   UNL     1      -2.654  14.177  24.506  0.00  0.00    +0.000 A 
ATOM     30  C   UNL     1      -2.758  15.146  25.505  0.00  0.00    +0.000 A 
ATOM     31  C   UNL     1      -1.812  16.164  25.590  0.00  0.00    +0.000 A 
ATOM     32  C   UNL     1      -0.773  16.222  24.666  0.00  0.00    +0.000 A 
ATOM     33  C   UNL     1      -0.674  15.259  23.657  0.00  0.00    +0.000 A 
ENDBRANCH  27  28
ENDBRANCH  24  27
ENDBRANCH  23  24
ENDBRANCH  20  23
ENDBRANCH   1  20
BRANCH   1  34
ATOM     34  C   UNL     1      -1.111   9.961  19.249  0.00  0.00    +0.000 C 
BRANCH  34  35
ATOM     35  C   UNL     1      -2.005  10.340  18.082  0.00  0.00    +0.000 A 
ATOM     36  C   UNL     1      -3.062  11.245  18.245  0.00  0.00    +0.000 A 
ATOM     37  C   UNL     1      -3.904  11.551  17.171  0.00  0.00    +0.000 A 
ATOM     38  C   UNL     1      -3.695  10.966  15.923  0.00  0.00    +0.000 A 
ATOM     39  C   UNL     1      -2.639  10.076  15.745  0.00  0.00    +0.000 A 
ATOM     40  C   UNL     1      -1.800   9.765  16.818  0.00  0.00    +0.000 A 
ENDBRANCH  34  35
ENDBRANCH   1  34
TORSDOF 13
ENDMDL
