MODEL 1
REMARK VINA RESULT:      -6.8      0.000      0.000
REMARK  Name = 
REMARK  10 active torsions:
REMARK  status: ('A' for Active; 'I' for Inactive)
REMARK    1  A    between atoms: C_1  and  C_2
REMARK    2  A    between atoms: C_2  and  O_3
REMARK    3  A    between atoms: O_3  and  C_4
REMARK    4  A    between atoms: C_9  and  N_10
REMARK    5  A    between atoms: N_13  and  C_14
REMARK    6  A    between atoms: C_14  and  C_15
REMARK    7  A    between atoms: C_15  and  C_17
REMARK    8  A    between atoms: C_18  and  N_19
REMARK    9  A    between atoms: N_20  and  C_21
REMARK   10  A    between atoms: N_24  and  C_25
REMARK                            x       y       z     vdW  Elec       q    Type
REMARK                         _______ _______ _______ _____ _____    ______ ____
ROOT
ATOM      1  C   UNL     1       1.731  11.013  18.891  0.00  0.00    +0.000 C 
ENDROOT
BRANCH   1   5
ATOM      2  N   UNL     1       2.169   7.405  19.601  0.00  0.00    +0.000 N 
ATOM      3  C   UNL     1       2.493   8.020  18.311  0.00  0.00    +0.000 C 
ATOM      4  C   UNL     1       1.280   8.833  17.815  0.00  0.00    +0.000 C 
ATOM      5  N   UNL     1       0.802   9.872  18.762  0.00  0.00    +0.000 NA
ATOM      6  C   UNL     1       0.573   9.244  20.088  0.00  0.00    +0.000 C 
ATOM      7  C   UNL     1       1.715   8.347  20.634  0.00  0.00    +0.000 C 
BRANCH   2  13
ATOM      8  C   UNL     1       3.475   5.299  19.543  0.00  0.00    +0.000 A 
ATOM      9  C   UNL     1       3.559   3.937  19.884  0.00  0.00    +0.000 A 
ATOM     10  C   UNL     1       2.466   3.266  20.419  0.00  0.00    +0.000 A 
ATOM     11  C   UNL     1       1.291   3.959  20.659  0.00  0.00    +0.000 A 
ATOM     12  C   UNL     1       1.226   5.329  20.393  0.00  0.00    +0.000 A 
ATOM     13  C   UNL     1       2.307   6.045  19.840  0.00  0.00    +0.000 A 
BRANCH   8  14
ATOM     14  O   UNL     1       4.500   5.933  18.873  0.00  0.00    +0.000 OA
BRANCH  14  16
ATOM     15  C   UNL     1       4.757   5.194  16.610  0.00  0.00    +0.000 C 
ATOM     16  C   UNL     1       5.302   5.115  18.023  0.00  0.00    +0.000 C 
ENDBRANCH  14  16
ENDBRANCH   8  14
ENDBRANCH   2  13
ENDBRANCH   1   5
BRANCH   1  17
ATOM     17  C   UNL     1       1.021  12.371  18.807  0.00  0.00    +0.000 C 
ATOM     18  O   UNL     1       1.440  13.314  18.124  0.00  0.00    +0.000 OA
BRANCH  17  19
ATOM     19  C   UNL     1      -0.256  12.555  19.580  0.00  0.00    +0.000 A 
ATOM     20  C   UNL     1      -1.452  12.410  18.958  0.00  0.00    +0.000 A 
ATOM     21  N   UNL     1      -2.614  12.450  19.724  0.00  0.00    +0.000 N 
ATOM     22  C   UNL     1      -3.934  12.241  19.141  0.00  0.00    +0.000 C 
ATOM     23  C   UNL     1      -2.618  12.566  21.116  0.00  0.00    +0.000 A 
ATOM     24  O   UNL     1      -3.663  12.530  21.775  0.00  0.00    +0.000 OA
ATOM     25  N   UNL     1      -1.391  12.734  21.720  0.00  0.00    +0.000 N 
ATOM     26  C   UNL     1      -1.319  12.906  23.161  0.00  0.00    +0.000 C 
ATOM     27  C   UNL     1      -0.222  12.884  21.022  0.00  0.00    +0.000 A 
ATOM     28  O   UNL     1       0.815  13.273  21.558  0.00  0.00    +0.000 OA
BRANCH  20  29
ATOM     29  N   UNL     1      -1.527  12.228  17.580  0.00  0.00    +0.000 N 
ATOM     30  H   UNL     1      -0.599  12.263  17.133  0.00  0.00    +0.000 HD
ATOM     31  H   UNL     1      -2.008  11.387  17.287  0.00  0.00    +0.000 HD
ENDBRANCH  20  29
ENDBRANCH  17  19
ENDBRANCH   1  17
TORSDOF 7
ENDMDL
MODEL 2
REMARK VINA RESULT:      -6.8      1.266      1.486
REMARK  Name = 
REMARK  10 active torsions:
REMARK  status: ('A' for Active; 'I' for Inactive)
REMARK    1  A    between atoms: C_1  and  C_2
REMARK    2  A    between atoms: C_2  and  O_3
REMARK    3  A    between atoms: O_3  and  C_4
REMARK    4  A    between atoms: C_9  and  N_10
REMARK    5  A    between atoms: N_13  and  C_14
REMARK    6  A    between atoms: C_14  and  C_15
REMARK    7  A    between atoms: C_15  and  C_17
REMARK    8  A    between atoms: C_18  and  N_19
REMARK    9  A    between atoms: N_20  and  C_21
REMARK   10  A    between atoms: N_24  and  C_25
REMARK                            x       y       z     vdW  Elec       q    Type
REMARK                         _______ _______ _______ _____ _____    ______ ____
ROOT
ATOM      1  C   UNL     1       1.652  10.633  19.717  0.00  0.00    +0.000 C 
ENDROOT
BRANCH   1   5
ATOM      2  N   UNL     1       2.594   7.217  18.639  0.00  0.00    +0.000 N 
ATOM      3  C   UNL     1       2.596   8.377  17.743  0.00  0.00    +0.000 C 
ATOM      4  C   UNL     1       1.231   9.090  17.831  0.00  0.00    +0.000 C 
ATOM      5  N   UNL     1       0.840   9.513  19.199  0.00  0.00    +0.000 NA
ATOM      6  C   UNL     1       0.940   8.344  20.109  0.00  0.00    +0.000 C 
ATOM      7  C   UNL     1       2.253   7.521  20.036  0.00  0.00    +0.000 C 
BRANCH   2  13
ATOM      8  C   UNL     1       4.242   5.481  17.993  0.00  0.00    +0.000 A 
ATOM      9  C   UNL     1       4.487   4.145  17.629  0.00  0.00    +0.000 A 
ATOM     10  C   UNL     1       3.437   3.272  17.369  0.00  0.00    +0.000 A 
ATOM     11  C   UNL     1       2.132   3.712  17.513  0.00  0.00    +0.000 A 
ATOM     12  C   UNL     1       1.883   5.016  17.948  0.00  0.00    +0.000 A 
ATOM     13  C   UNL     1       2.917   5.937  18.212  0.00  0.00    +0.000 A 
BRANCH   8  14
ATOM     14  O   UNL     1       5.270   6.393  18.104  0.00  0.00    +0.000 OA
BRANCH  14  16
ATOM     15  C   UNL     1       7.398   7.296  17.479  0.00  0.00    +0.000 C 
ATOM     16  C   UNL     1       6.329   6.270  17.154  0.00  0.00    +0.000 C 
ENDBRANCH  14  16
ENDBRANCH   8  14
ENDBRANCH   2  13
ENDBRANCH   1   5
BRANCH   1  17
ATOM     17  C   UNL     1       1.060  12.006  19.373  0.00  0.00    +0.000 C 
ATOM     18  O   UNL     1       1.633  12.829  18.649  0.00  0.00    +0.000 OA
BRANCH  17  19
ATOM     19  C   UNL     1      -0.292  12.357  19.930  0.00  0.00    +0.000 A 
ATOM     20  C   UNL     1      -1.407  12.152  19.186  0.00  0.00    +0.000 A 
ATOM     21  N   UNL     1      -2.652  12.356  19.775  0.00  0.00    +0.000 N 
ATOM     22  C   UNL     1      -3.898  12.098  19.062  0.00  0.00    +0.000 C 
ATOM     23  C   UNL     1      -2.824  12.700  21.118  0.00  0.00    +0.000 A 
ATOM     24  O   UNL     1      -3.944  12.807  21.629  0.00  0.00    +0.000 OA
ATOM     25  N   UNL     1      -1.675  12.923  21.845  0.00  0.00    +0.000 N 
ATOM     26  C   UNL     1      -1.776  13.327  23.237  0.00  0.00    +0.000 C 
ATOM     27  C   UNL     1      -0.422  12.917  21.293  0.00  0.00    +0.000 A 
ATOM     28  O   UNL     1       0.559  13.354  21.894  0.00  0.00    +0.000 OA
BRANCH  20  29
ATOM     29  N   UNL     1      -1.318  11.748  17.857  0.00  0.00    +0.000 N 
ATOM     30  H   UNL     1      -1.776  10.838  17.696  0.00  0.00    +0.000 HD
ATOM     31  H   UNL     1      -1.663  12.420  17.184  0.00  0.00    +0.000 HD
ENDBRANCH  20  29
ENDBRANCH  17  19
ENDBRANCH   1  17
TORSDOF 7
ENDMDL
MODEL 3
REMARK VINA RESULT:      -6.7      2.699      8.892
REMARK  Name = 
REMARK  10 active torsions:
REMARK  status: ('A' for Active; 'I' for Inactive)
REMARK    1  A    between atoms: C_1  and  C_2
REMARK    2  A    between atoms: C_2  and  O_3
REMARK    3  A    between atoms: O_3  and  C_4
REMARK    4  A    between atoms: C_9  and  N_10
REMARK    5  A    between atoms: N_13  and  C_14
REMARK    6  A    between atoms: C_14  and  C_15
REMARK    7  A    between atoms: C_15  and  C_17
REMARK    8  A    between atoms: C_18  and  N_19
REMARK    9  A    between atoms: N_20  and  C_21
REMARK   10  A    between atoms: N_24  and  C_25
REMARK                            x       y       z     vdW  Elec       q    Type
REMARK                         _______ _______ _______ _____ _____    ______ ____
ROOT
ATOM      1  C   UNL     1       2.184   5.852  19.053  0.00  0.00    +0.000 C 
ENDROOT
BRANCH   1   5
ATOM      2  N   UNL     1       0.967   9.340  18.793  0.00  0.00    +0.000 N 
ATOM      3  C   UNL     1       1.605   8.622  17.687  0.00  0.00    +0.000 C 
ATOM      4  C   UNL     1       2.946   8.032  18.168  0.00  0.00    +0.000 C 
ATOM      5  N   UNL     1       2.841   7.141  19.351  0.00  0.00    +0.000 NA
ATOM      6  C   UNL     1       2.106   7.855  20.426  0.00  0.00    +0.000 C 
ATOM      7  C   UNL     1       0.778   8.544  20.014  0.00  0.00    +0.000 C 
BRANCH   2  13
ATOM      8  C   UNL     1      -0.788  11.050  18.415  0.00  0.00    +0.000 A 
ATOM      9  C   UNL     1      -1.145  12.410  18.399  0.00  0.00    +0.000 A 
ATOM     10  C   UNL     1      -0.184  13.402  18.544  0.00  0.00    +0.000 A 
ATOM     11  C   UNL     1       1.139  13.046  18.750  0.00  0.00    +0.000 A 
ATOM     12  C   UNL     1       1.488  11.696  18.844  0.00  0.00    +0.000 A 
ATOM     13  C   UNL     1       0.547  10.658  18.691  0.00  0.00    +0.000 A 
BRANCH   8  14
ATOM     14  O   UNL     1      -1.707  10.065  18.120  0.00  0.00    +0.000 OA
BRANCH  14  16
ATOM     15  C   UNL     1      -3.628  10.344  16.719  0.00  0.00    +0.000 C 
ATOM     16  C   UNL     1      -2.152   9.999  16.765  0.00  0.00    +0.000 C 
ENDBRANCH  14  16
ENDBRANCH   8  14
ENDBRANCH   2  13
ENDBRANCH   1   5
BRANCH   1  17
ATOM     17  C   UNL     1       3.169   4.675  19.020  0.00  0.00    +0.000 C 
ATOM     18  O   UNL     1       3.001   3.634  19.665  0.00  0.00    +0.000 OA
BRANCH  17  19
ATOM     19  C   UNL     1       4.387   4.792  18.146  0.00  0.00    +0.000 A 
ATOM     20  C   UNL     1       4.342   4.364  16.860  0.00  0.00    +0.000 A 
ATOM     21  N   UNL     1       5.437   4.608  16.035  0.00  0.00    +0.000 N 
ATOM     22  C   UNL     1       5.442   4.235  14.625  0.00  0.00    +0.000 C 
ATOM     23  C   UNL     1       6.562   5.331  16.438  0.00  0.00    +0.000 A 
ATOM     24  O   UNL     1       7.488   5.590  15.662  0.00  0.00    +0.000 OA
ATOM     25  N   UNL     1       6.590   5.735  17.755  0.00  0.00    +0.000 N 
ATOM     26  C   UNL     1       7.748   6.454  18.258  0.00  0.00    +0.000 C 
ATOM     27  C   UNL     1       5.638   5.381  18.673  0.00  0.00    +0.000 A 
ATOM     28  O   UNL     1       5.802   5.540  19.882  0.00  0.00    +0.000 OA
BRANCH  20  29
ATOM     29  N   UNL     1       3.228   3.690  16.367  0.00  0.00    +0.000 N 
ATOM     30  H   UNL     1       2.625   4.302  15.798  0.00  0.00    +0.000 HD
ATOM     31  H   UNL     1       3.437   2.848  15.846  0.00  0.00    +0.000 HD
ENDBRANCH  20  29
ENDBRANCH  17  19
ENDBRANCH   1  17
TORSDOF 7
ENDMDL
MODEL 4
REMARK VINA RESULT:      -6.7      1.475      2.530
REMARK  Name = 
REMARK  10 active torsions:
REMARK  status: ('A' for Active; 'I' for Inactive)
REMARK    1  A    between atoms: C_1  and  C_2
REMARK    2  A    between atoms: C_2  and  O_3
REMARK    3  A    between atoms: O_3  and  C_4
REMARK    4  A    between atoms: C_9  and  N_10
REMARK    5  A    between atoms: N_13  and  C_14
REMARK    6  A    between atoms: C_14  and  C_15
REMARK    7  A    between atoms: C_15  and  C_17
REMARK    8  A    between atoms: C_18  and  N_19
REMARK    9  A    between atoms: N_20  and  C_21
REMARK   10  A    between atoms: N_24  and  C_25
REMARK                            x       y       z     vdW  Elec       q    Type
REMARK                         _______ _______ _______ _____ _____    ______ ____
ROOT
ATOM      1  C   UNL     1       0.511  11.078  20.482  0.00  0.00    +0.000 C 
ENDROOT
BRANCH   1   5
ATOM      2  N   UNL     1       2.212   8.124  19.034  0.00  0.00    +0.000 N 
ATOM      3  C   UNL     1       1.906   9.336  18.269  0.00  0.00    +0.000 C 
ATOM      4  C   UNL     1       0.413   9.683  18.442  0.00  0.00    +0.000 C 
ATOM      5  N   UNL     1      -0.023   9.854  19.851  0.00  0.00    +0.000 NA
ATOM      6  C   UNL     1       0.384   8.657  20.628  0.00  0.00    +0.000 C 
ATOM      7  C   UNL     1       1.854   8.190  20.458  0.00  0.00    +0.000 C 
BRANCH   2  13
ATOM      8  C   UNL     1       2.522   5.674  18.827  0.00  0.00    +0.000 A 
ATOM      9  C   UNL     1       3.133   4.600  18.153  0.00  0.00    +0.000 A 
ATOM     10  C   UNL     1       4.118   4.824  17.200  0.00  0.00    +0.000 A 
ATOM     11  C   UNL     1       4.474   6.124  16.878  0.00  0.00    +0.000 A 
ATOM     12  C   UNL     1       3.817   7.195  17.489  0.00  0.00    +0.000 A 
ATOM     13  C   UNL     1       2.820   7.013  18.468  0.00  0.00    +0.000 A 
BRANCH   8  14
ATOM     14  O   UNL     1       1.657   5.459  19.879  0.00  0.00    +0.000 OA
BRANCH  14  16
ATOM     15  C   UNL     1       1.149   3.332  20.855  0.00  0.00    +0.000 C 
ATOM     16  C   UNL     1       2.085   4.525  20.870  0.00  0.00    +0.000 C 
ENDBRANCH  14  16
ENDBRANCH   8  14
ENDBRANCH   2  13
ENDBRANCH   1   5
BRANCH   1  17
ATOM     17  C   UNL     1      -0.251  12.344  20.066  0.00  0.00    +0.000 C 
ATOM     18  O   UNL     1       0.230  13.213  19.329  0.00  0.00    +0.000 OA
BRANCH  17  19
ATOM     19  C   UNL     1      -1.657  12.524  20.566  0.00  0.00    +0.000 A 
ATOM     20  C   UNL     1      -2.700  12.436  19.704  0.00  0.00    +0.000 A 
ATOM     21  N   UNL     1      -3.996  12.470  20.215  0.00  0.00    +0.000 N 
ATOM     22  C   UNL     1      -5.169  12.320  19.361  0.00  0.00    +0.000 C 
ATOM     23  C   UNL     1      -4.286  12.523  21.580  0.00  0.00    +0.000 A 
ATOM     24  O   UNL     1      -5.446  12.482  22.006  0.00  0.00    +0.000 OA
ATOM     25  N   UNL     1      -3.209  12.633  22.431  0.00  0.00    +0.000 N 
ATOM     26  C   UNL     1      -3.436  12.736  23.863  0.00  0.00    +0.000 C 
ATOM     27  C   UNL     1      -1.919  12.785  21.999  0.00  0.00    +0.000 A 
ATOM     28  O   UNL     1      -1.010  13.124  22.756  0.00  0.00    +0.000 OA
BRANCH  20  29
ATOM     29  N   UNL     1      -2.490  12.319  18.333  0.00  0.00    +0.000 N 
ATOM     30  H   UNL     1      -3.375  12.237  17.810  0.00  0.00    +0.000 HD
ATOM     31  H   UNL     1      -1.927  13.053  17.924  0.00  0.00    +0.000 HD
ENDBRANCH  20  29
ENDBRANCH  17  19
ENDBRANCH   1  17
TORSDOF 7
ENDMDL
MODEL 5
REMARK VINA RESULT:      -6.7      2.648      3.706
REMARK  Name = 
REMARK  10 active torsions:
REMARK  status: ('A' for Active; 'I' for Inactive)
REMARK    1  A    between atoms: C_1  and  C_2
REMARK    2  A    between atoms: C_2  and  O_3
REMARK    3  A    between atoms: O_3  and  C_4
REMARK    4  A    between atoms: C_9  and  N_10
REMARK    5  A    between atoms: N_13  and  C_14
REMARK    6  A    between atoms: C_14  and  C_15
REMARK    7  A    between atoms: C_15  and  C_17
REMARK    8  A    between atoms: C_18  and  N_19
REMARK    9  A    between atoms: N_20  and  C_21
REMARK   10  A    between atoms: N_24  and  C_25
REMARK                            x       y       z     vdW  Elec       q    Type
REMARK                         _______ _______ _______ _____ _____    ______ ____
ROOT
ATOM      1  C   UNL     1       1.417  10.774  19.965  0.00  0.00    +0.000 C 
ENDROOT
BRANCH   1   5
ATOM      2  N   UNL     1       2.405   7.438  18.695  0.00  0.00    +0.000 N 
ATOM      3  C   UNL     1       2.322   8.633  17.850  0.00  0.00    +0.000 C 
ATOM      4  C   UNL     1       0.942   9.296  18.041  0.00  0.00    +0.000 C 
ATOM      5  N   UNL     1       0.614   9.649  19.445  0.00  0.00    +0.000 NA
ATOM      6  C   UNL     1       0.799   8.448  20.298  0.00  0.00    +0.000 C 
ATOM      7  C   UNL     1       2.132   7.674  20.120  0.00  0.00    +0.000 C 
BRANCH   2  13
ATOM      8  C   UNL     1       4.050   5.824  17.783  0.00  0.00    +0.000 A 
ATOM      9  C   UNL     1       4.326   4.513  17.357  0.00  0.00    +0.000 A 
ATOM     10  C   UNL     1       3.307   3.576  17.229  0.00  0.00    +0.000 A 
ATOM     11  C   UNL     1       2.011   3.927  17.567  0.00  0.00    +0.000 A 
ATOM     12  C   UNL     1       1.744   5.205  18.062  0.00  0.00    +0.000 A 
ATOM     13  C   UNL     1       2.745   6.189  18.197  0.00  0.00    +0.000 A 
BRANCH   8  14
ATOM     14  O   UNL     1       5.024   6.801  17.766  0.00  0.00    +0.000 OA
BRANCH  14  16
ATOM     15  C   UNL     1       7.399   6.994  17.525  0.00  0.00    +0.000 C 
ATOM     16  C   UNL     1       6.098   6.608  16.846  0.00  0.00    +0.000 C 
ENDBRANCH  14  16
ENDBRANCH   8  14
ENDBRANCH   2  13
ENDBRANCH   1   5
BRANCH   1  17
ATOM     17  C   UNL     1       0.815  12.144  19.623  0.00  0.00    +0.000 C 
ATOM     18  O   UNL     1      -0.367  12.302  19.295  0.00  0.00    +0.000 OA
BRANCH  17  19
ATOM     19  C   UNL     1       1.705  13.353  19.710  0.00  0.00    +0.000 A 
ATOM     20  C   UNL     1       2.447  13.727  18.639  0.00  0.00    +0.000 A 
ATOM     21  N   UNL     1       3.156  14.925  18.701  0.00  0.00    +0.000 N 
ATOM     22  C   UNL     1       3.927  15.428  17.570  0.00  0.00    +0.000 C 
ATOM     23  C   UNL     1       3.094  15.803  19.785  0.00  0.00    +0.000 A 
ATOM     24  O   UNL     1       3.680  16.892  19.782  0.00  0.00    +0.000 OA
ATOM     25  N   UNL     1       2.350  15.388  20.868  0.00  0.00    +0.000 N 
ATOM     26  C   UNL     1       2.275  16.230  22.049  0.00  0.00    +0.000 C 
ATOM     27  C   UNL     1       1.772  14.150  20.955  0.00  0.00    +0.000 A 
ATOM     28  O   UNL     1       1.326  13.709  22.013  0.00  0.00    +0.000 OA
BRANCH  20  29
ATOM     29  N   UNL     1       2.510  12.934  17.496  0.00  0.00    +0.000 N 
ATOM     30  H   UNL     1       3.386  13.077  16.972  0.00  0.00    +0.000 HD
ATOM     31  H   UNL     1       2.373  11.945  17.657  0.00  0.00    +0.000 HD
ENDBRANCH  20  29
ENDBRANCH  17  19
ENDBRANCH   1  17
TORSDOF 7
ENDMDL
MODEL 6
REMARK VINA RESULT:      -6.6      2.826      8.943
REMARK  Name = 
REMARK  10 active torsions:
REMARK  status: ('A' for Active; 'I' for Inactive)
REMARK    1  A    between atoms: C_1  and  C_2
REMARK    2  A    between atoms: C_2  and  O_3
REMARK    3  A    between atoms: O_3  and  C_4
REMARK    4  A    between atoms: C_9  and  N_10
REMARK    5  A    between atoms: N_13  and  C_14
REMARK    6  A    between atoms: C_14  and  C_15
REMARK    7  A    between atoms: C_15  and  C_17
REMARK    8  A    between atoms: C_18  and  N_19
REMARK    9  A    between atoms: N_20  and  C_21
REMARK   10  A    between atoms: N_24  and  C_25
REMARK                            x       y       z     vdW  Elec       q    Type
REMARK                         _______ _______ _______ _____ _____    ______ ____
ROOT
ATOM      1  C   UNL     1       3.416   5.017  20.217  0.00  0.00    +0.000 C 
ENDROOT
BRANCH   1   5
ATOM      2  N   UNL     1       1.600   8.222  19.836  0.00  0.00    +0.000 N 
ATOM      3  C   UNL     1       1.463   7.349  21.005  0.00  0.00    +0.000 C 
ATOM      4  C   UNL     1       1.135   5.916  20.535  0.00  0.00    +0.000 C 
ATOM      5  N   UNL     1       2.119   5.336  19.587  0.00  0.00    +0.000 NA
ATOM      6  C   UNL     1       2.315   6.282  18.460  0.00  0.00    +0.000 C 
ATOM      7  C   UNL     1       2.578   7.763  18.839  0.00  0.00    +0.000 C 
BRANCH   2  13
ATOM      8  C   UNL     1       0.681  10.340  20.736  0.00  0.00    +0.000 A 
ATOM      9  C   UNL     1       0.006  11.549  20.489  0.00  0.00    +0.000 A 
ATOM     10  C   UNL     1      -0.566  11.806  19.249  0.00  0.00    +0.000 A 
ATOM     11  C   UNL     1      -0.433  10.877  18.230  0.00  0.00    +0.000 A 
ATOM     12  C   UNL     1       0.301   9.708  18.448  0.00  0.00    +0.000 A 
ATOM     13  C   UNL     1       0.887   9.403  19.693  0.00  0.00    +0.000 A 
BRANCH   8  14
ATOM     14  O   UNL     1       1.117  10.011  22.002  0.00  0.00    +0.000 OA
BRANCH  14  16
ATOM     15  C   UNL     1      -0.897  10.588  23.161  0.00  0.00    +0.000 C 
ATOM     16  C   UNL     1       0.130   9.503  22.900  0.00  0.00    +0.000 C 
ENDBRANCH  14  16
ENDBRANCH   8  14
ENDBRANCH   2  13
ENDBRANCH   1   5
BRANCH   1  17
ATOM     17  C   UNL     1       4.198   3.937  19.456  0.00  0.00    +0.000 C 
ATOM     18  O   UNL     1       4.035   2.725  19.640  0.00  0.00    +0.000 OA
BRANCH  17  19
ATOM     19  C   UNL     1       5.198   4.379  18.424  0.00  0.00    +0.000 A 
ATOM     20  C   UNL     1       5.053   3.997  17.131  0.00  0.00    +0.000 A 
ATOM     21  N   UNL     1       5.912   4.531  16.174  0.00  0.00    +0.000 N 
ATOM     22  C   UNL     1       5.782   4.218  14.755  0.00  0.00    +0.000 C 
ATOM     23  C   UNL     1       6.881   5.495  16.459  0.00  0.00    +0.000 A 
ATOM     24  O   UNL     1       7.584   6.001  15.576  0.00  0.00    +0.000 OA
ATOM     25  N   UNL     1       7.022   5.849  17.783  0.00  0.00    +0.000 N 
ATOM     26  C   UNL     1       8.040   6.815  18.161  0.00  0.00    +0.000 C 
ATOM     27  C   UNL     1       6.340   5.241  18.802  0.00  0.00    +0.000 A 
ATOM     28  O   UNL     1       6.652   5.396  19.982  0.00  0.00    +0.000 OA
BRANCH  20  29
ATOM     29  N   UNL     1       4.068   3.086  16.759  0.00  0.00    +0.000 N 
ATOM     30  H   UNL     1       4.456   2.289  16.232  0.00  0.00    +0.000 HD
ATOM     31  H   UNL     1       3.499   2.739  17.520  0.00  0.00    +0.000 HD
ENDBRANCH  20  29
ENDBRANCH  17  19
ENDBRANCH   1  17
TORSDOF 7
ENDMDL
MODEL 7
REMARK VINA RESULT:      -6.6      2.137      3.723
REMARK  Name = 
REMARK  10 active torsions:
REMARK  status: ('A' for Active; 'I' for Inactive)
REMARK    1  A    between atoms: C_1  and  C_2
REMARK    2  A    between atoms: C_2  and  O_3
REMARK    3  A    between atoms: O_3  and  C_4
REMARK    4  A    between atoms: C_9  and  N_10
REMARK    5  A    between atoms: N_13  and  C_14
REMARK    6  A    between atoms: C_14  and  C_15
REMARK    7  A    between atoms: C_15  and  C_17
REMARK    8  A    between atoms: C_18  and  N_19
REMARK    9  A    between atoms: N_20  and  C_21
REMARK   10  A    between atoms: N_24  and  C_25
REMARK                            x       y       z     vdW  Elec       q    Type
REMARK                         _______ _______ _______ _____ _____    ______ ____
ROOT
ATOM      1  C   UNL     1      -0.106   9.662  19.709  0.00  0.00    +0.000 C 
ENDROOT
BRANCH   1   5
ATOM      2  N   UNL     1       2.216   6.817  19.226  0.00  0.00    +0.000 N 
ATOM      3  C   UNL     1       1.508   7.079  20.482  0.00  0.00    +0.000 C 
ATOM      4  C   UNL     1       1.746   8.543  20.905  0.00  0.00    +0.000 C 
ATOM      5  N   UNL     1       1.355   9.552  19.889  0.00  0.00    +0.000 NA
ATOM      6  C   UNL     1       2.007   9.211  18.599  0.00  0.00    +0.000 C 
ATOM      7  C   UNL     1       1.881   7.738  18.130  0.00  0.00    +0.000 C 
BRANCH   2  13
ATOM      8  C   UNL     1       2.726   4.436  18.764  0.00  0.00    +0.000 A 
ATOM      9  C   UNL     1       3.700   3.444  18.553  0.00  0.00    +0.000 A 
ATOM     10  C   UNL     1       5.049   3.715  18.746  0.00  0.00    +0.000 A 
ATOM     11  C   UNL     1       5.443   4.992  19.110  0.00  0.00    +0.000 A 
ATOM     12  C   UNL     1       4.487   6.001  19.247  0.00  0.00    +0.000 A 
ATOM     13  C   UNL     1       3.108   5.767  19.071  0.00  0.00    +0.000 A 
BRANCH   8  14
ATOM     14  O   UNL     1       1.381   4.138  18.724  0.00  0.00    +0.000 OA
BRANCH  14  16
ATOM     15  C   UNL     1       1.191   3.190  20.914  0.00  0.00    +0.000 C 
ATOM     16  C   UNL     1       0.971   2.967  19.430  0.00  0.00    +0.000 C 
ENDBRANCH  14  16
ENDBRANCH   8  14
ENDBRANCH   2  13
ENDBRANCH   1   5
BRANCH   1  17
ATOM     17  C   UNL     1      -0.537  11.025  19.149  0.00  0.00    +0.000 C 
ATOM     18  O   UNL     1       0.217  12.004  19.097  0.00  0.00    +0.000 OA
BRANCH  17  19
ATOM     19  C   UNL     1      -1.938  11.167  18.623  0.00  0.00    +0.000 A 
ATOM     20  C   UNL     1      -2.866  11.849  19.339  0.00  0.00    +0.000 A 
ATOM     21  N   UNL     1      -4.114  12.082  18.768  0.00  0.00    +0.000 N 
ATOM     22  C   UNL     1      -5.144  12.860  19.447  0.00  0.00    +0.000 C 
ATOM     23  C   UNL     1      -4.448  11.709  17.464  0.00  0.00    +0.000 A 
ATOM     24  O   UNL     1      -5.542  11.991  16.960  0.00  0.00    +0.000 OA
ATOM     25  N   UNL     1      -3.495  10.999  16.767  0.00  0.00    +0.000 N 
ATOM     26  C   UNL     1      -3.788  10.539  15.420  0.00  0.00    +0.000 C 
ATOM     27  C   UNL     1      -2.316  10.577  17.320  0.00  0.00    +0.000 A 
ATOM     28  O   UNL     1      -1.595   9.745  16.769  0.00  0.00    +0.000 OA
BRANCH  20  29
ATOM     29  N   UNL     1      -2.586  12.308  20.623  0.00  0.00    +0.000 N 
ATOM     30  H   UNL     1      -1.841  13.020  20.627  0.00  0.00    +0.000 HD
ATOM     31  H   UNL     1      -3.386  12.658  21.134  0.00  0.00    +0.000 HD
ENDBRANCH  20  29
ENDBRANCH  17  19
ENDBRANCH   1  17
TORSDOF 7
ENDMDL
MODEL 8
REMARK VINA RESULT:      -6.6      0.987      1.010
REMARK  Name = 
REMARK  10 active torsions:
REMARK  status: ('A' for Active; 'I' for Inactive)
REMARK    1  A    between atoms: C_1  and  C_2
REMARK    2  A    between atoms: C_2  and  O_3
REMARK    3  A    between atoms: O_3  and  C_4
REMARK    4  A    between atoms: C_9  and  N_10
REMARK    5  A    between atoms: N_13  and  C_14
REMARK    6  A    between atoms: C_14  and  C_15
REMARK    7  A    between atoms: C_15  and  C_17
REMARK    8  A    between atoms: C_18  and  N_19
REMARK    9  A    between atoms: N_20  and  C_21
REMARK   10  A    between atoms: N_24  and  C_25
REMARK                            x       y       z     vdW  Elec       q    Type
REMARK                         _______ _______ _______ _____ _____    ______ ____
ROOT
ATOM      1  C   UNL     1       1.086  11.355  19.850  0.00  0.00    +0.000 C 
ENDROOT
BRANCH   1   5
ATOM      2  N   UNL     1       1.996   7.766  19.774  0.00  0.00    +0.000 N 
ATOM      3  C   UNL     1       2.151   8.664  18.626  0.00  0.00    +0.000 C 
ATOM      4  C   UNL     1       0.817   9.394  18.368  0.00  0.00    +0.000 C 
ATOM      5  N   UNL     1       0.291  10.152  19.531  0.00  0.00    +0.000 NA
ATOM      6  C   UNL     1       0.235   9.248  20.707  0.00  0.00    +0.000 C 
ATOM      7  C   UNL     1       1.511   8.416  21.000  0.00  0.00    +0.000 C 
BRANCH   2  13
ATOM      8  C   UNL     1       3.319   5.866  18.889  0.00  0.00    +0.000 A 
ATOM      9  C   UNL     1       3.623   4.494  18.946  0.00  0.00    +0.000 A 
ATOM     10  C   UNL     1       2.874   3.629  19.735  0.00  0.00    +0.000 A 
ATOM     11  C   UNL     1       1.841   4.133  20.508  0.00  0.00    +0.000 A 
ATOM     12  C   UNL     1       1.583   5.506  20.513  0.00  0.00    +0.000 A 
ATOM     13  C   UNL     1       2.310   6.416  19.720  0.00  0.00    +0.000 A 
BRANCH   8  14
ATOM     14  O   UNL     1       3.955   6.703  17.996  0.00  0.00    +0.000 OA
BRANCH  14  16
ATOM     15  C   UNL     1       5.163   6.301  15.969  0.00  0.00    +0.000 C 
ATOM     16  C   UNL     1       5.207   6.248  17.484  0.00  0.00    +0.000 C 
ENDBRANCH  14  16
ENDBRANCH   8  14
ENDBRANCH   2  13
ENDBRANCH   1   5
BRANCH   1  17
ATOM     17  C   UNL     1       0.298  12.658  19.657  0.00  0.00    +0.000 C 
ATOM     18  O   UNL     1       0.751  13.641  19.058  0.00  0.00    +0.000 OA
BRANCH  17  19
ATOM     19  C   UNL     1      -1.099  12.732  20.207  0.00  0.00    +0.000 A 
ATOM     20  C   UNL     1      -2.161  12.512  19.394  0.00  0.00    +0.000 A 
ATOM     21  N   UNL     1      -3.434  12.452  19.956  0.00  0.00    +0.000 N 
ATOM     22  C   UNL     1      -4.619  12.157  19.159  0.00  0.00    +0.000 C 
ATOM     23  C   UNL     1      -3.676  12.540  21.329  0.00  0.00    +0.000 A 
ATOM     24  O   UNL     1      -4.811  12.414  21.804  0.00  0.00    +0.000 OA
ATOM     25  N   UNL     1      -2.583  12.785  22.130  0.00  0.00    +0.000 N 
ATOM     26  C   UNL     1      -2.764  12.933  23.564  0.00  0.00    +0.000 C 
ATOM     27  C   UNL     1      -1.329  13.034  21.637  0.00  0.00    +0.000 A 
ATOM     28  O   UNL     1      -0.428  13.488  22.342  0.00  0.00    +0.000 OA
BRANCH  20  29
ATOM     29  N   UNL     1      -1.993  12.352  18.021  0.00  0.00    +0.000 N 
ATOM     30  H   UNL     1      -0.999  12.278  17.759  0.00  0.00    +0.000 HD
ATOM     31  H   UNL     1      -2.504  11.578  17.617  0.00  0.00    +0.000 HD
ENDBRANCH  20  29
ENDBRANCH  17  19
ENDBRANCH   1  17
TORSDOF 7
ENDMDL
MODEL 9
REMARK VINA RESULT:      -6.6      2.192      3.832
REMARK  Name = 
REMARK  10 active torsions:
REMARK  status: ('A' for Active; 'I' for Inactive)
REMARK    1  A    between atoms: C_1  and  C_2
REMARK    2  A    between atoms: C_2  and  O_3
REMARK    3  A    between atoms: O_3  and  C_4
REMARK    4  A    between atoms: C_9  and  N_10
REMARK    5  A    between atoms: N_13  and  C_14
REMARK    6  A    between atoms: C_14  and  C_15
REMARK    7  A    between atoms: C_15  and  C_17
REMARK    8  A    between atoms: C_18  and  N_19
REMARK    9  A    between atoms: N_20  and  C_21
REMARK   10  A    between atoms: N_24  and  C_25
REMARK                            x       y       z     vdW  Elec       q    Type
REMARK                         _______ _______ _______ _____ _____    ______ ____
ROOT
ATOM      1  C   UNL     1      -0.194   9.933  19.764  0.00  0.00    +0.000 C 
ENDROOT
BRANCH   1   5
ATOM      2  N   UNL     1       2.245   7.480  18.443  0.00  0.00    +0.000 N 
ATOM      3  C   UNL     1       1.664   7.399  19.786  0.00  0.00    +0.000 C 
ATOM      4  C   UNL     1       1.848   8.752  20.503  0.00  0.00    +0.000 C 
ATOM      5  N   UNL     1       1.282   9.919  19.780  0.00  0.00    +0.000 NA
ATOM      6  C   UNL     1       1.810   9.925  18.392  0.00  0.00    +0.000 C 
ATOM      7  C   UNL     1       1.732   8.583  17.618  0.00  0.00    +0.000 C 
BRANCH   2  13
ATOM      8  C   UNL     1       2.951   5.179  17.851  0.00  0.00    +0.000 A 
ATOM      9  C   UNL     1       3.933   4.337  17.299  0.00  0.00    +0.000 A 
ATOM     10  C   UNL     1       5.189   4.828  16.964  0.00  0.00    +0.000 A 
ATOM     11  C   UNL     1       5.463   6.175  17.137  0.00  0.00    +0.000 A 
ATOM     12  C   UNL     1       4.467   7.031  17.614  0.00  0.00    +0.000 A 
ATOM     13  C   UNL     1       3.184   6.572  17.975  0.00  0.00    +0.000 A 
BRANCH   8  14
ATOM     14  O   UNL     1       1.759   4.674  18.326  0.00  0.00    +0.000 OA
BRANCH  14  16
ATOM     15  C   UNL     1       0.925   2.734  19.455  0.00  0.00    +0.000 C 
ATOM     16  C   UNL     1       1.570   3.265  18.189  0.00  0.00    +0.000 C 
ENDBRANCH  14  16
ENDBRANCH   8  14
ENDBRANCH   2  13
ENDBRANCH   1   5
BRANCH   1  17
ATOM     17  C   UNL     1      -0.772  11.309  19.403  0.00  0.00    +0.000 C 
ATOM     18  O   UNL     1      -0.156  12.368  19.571  0.00  0.00    +0.000 OA
BRANCH  17  19
ATOM     19  C   UNL     1      -2.148  11.365  18.798  0.00  0.00    +0.000 A 
ATOM     20  C   UNL     1      -3.149  12.008  19.447  0.00  0.00    +0.000 A 
ATOM     21  N   UNL     1      -4.374  12.163  18.803  0.00  0.00    +0.000 N 
ATOM     22  C   UNL     1      -5.480  12.896  19.408  0.00  0.00    +0.000 C 
ATOM     23  C   UNL     1      -4.614  11.749  17.491  0.00  0.00    +0.000 A 
ATOM     24  O   UNL     1      -5.691  11.962  16.923  0.00  0.00    +0.000 OA
ATOM     25  N   UNL     1      -3.588  11.079  16.863  0.00  0.00    +0.000 N 
ATOM     26  C   UNL     1      -3.780  10.580  15.512  0.00  0.00    +0.000 C 
ATOM     27  C   UNL     1      -2.420  10.732  17.488  0.00  0.00    +0.000 A 
ATOM     28  O   UNL     1      -1.627   9.931  16.995  0.00  0.00    +0.000 OA
BRANCH  20  29
ATOM     29  N   UNL     1      -2.966  12.505  20.735  0.00  0.00    +0.000 N 
ATOM     30  H   UNL     1      -3.645  13.246  20.965  0.00  0.00    +0.000 HD
ATOM     31  H   UNL     1      -2.973  11.805  21.466  0.00  0.00    +0.000 HD
ENDBRANCH  20  29
ENDBRANCH  17  19
ENDBRANCH   1  17
TORSDOF 7
ENDMDL
