MODEL 1
REMARK VINA RESULT:      -8.5      0.000      0.000
REMARK  Name = 
REMARK  6 active torsions:
REMARK  status: ('A' for Active; 'I' for Inactive)
REMARK    1  A    between atoms: C_1  and  C_2
REMARK    2  A    between atoms: C_5  and  C_6
REMARK    3  A    between atoms: C_6  and  C_8
REMARK    4  A    between atoms: N_12  and  C_13
REMARK    5  A    between atoms: C_13  and  C_14
REMARK    6  A    between atoms: C_14  and  N_15
REMARK                            x       y       z     vdW  Elec       q    Type
REMARK                         _______ _______ _______ _____ _____    ______ ____
ROOT
ATOM      1  C   UNL     1       3.166   8.082  17.957  0.00  0.00    +0.000 C 
ATOM      2  C   UNL     1       3.532   6.794  17.914  0.00  0.00    +0.000 C 
ATOM      3  C   UNL     1       2.666   5.580  18.056  0.00  0.00    +0.000 C 
ATOM      4  O   UNL     1       1.557   5.492  18.542  0.00  0.00    +0.000 OA
ATOM      5  N   UNL     1       3.427   4.521  17.541  0.00  0.00    +0.000 N 
ATOM      6  C   UNL     1       4.735   4.958  17.231  0.00  0.00    +0.000 A 
ATOM      7  C   UNL     1       5.815   4.239  16.748  0.00  0.00    +0.000 A 
ATOM      8  C   UNL     1       7.049   4.897  16.637  0.00  0.00    +0.000 A 
ATOM      9  C   UNL     1       7.182   6.256  16.970  0.00  0.00    +0.000 A 
ATOM     10  C   UNL     1       6.076   6.990  17.397  0.00  0.00    +0.000 A 
ATOM     11  C   UNL     1       4.863   6.327  17.523  0.00  0.00    +0.000 A 
ENDROOT
BRANCH   1  12
ATOM     12  C   UNL     1       1.763   8.563  18.068  0.00  0.00    +0.000 C 
ATOM     13  O   UNL     1       1.093   8.860  17.087  0.00  0.00    +0.000 OA
BRANCH  12  18
ATOM     14  C   UNL     1      -0.308   9.860  23.324  0.00  0.00    +0.000 C 
ATOM     15  C   UNL     1       0.246   9.508  21.975  0.00  0.00    +0.000 A 
ATOM     16  C   UNL     1       1.199   8.494  21.830  0.00  0.00    +0.000 A 
ATOM     17  C   UNL     1       1.695   8.163  20.566  0.00  0.00    +0.000 A 
ATOM     18  C   UNL     1       1.250   8.855  19.434  0.00  0.00    +0.000 A 
ATOM     19  C   UNL     1       0.288   9.862  19.576  0.00  0.00    +0.000 A 
ATOM     20  C   UNL     1      -0.206  10.191  20.839  0.00  0.00    +0.000 A 
ENDBRANCH  12  18
ENDBRANCH   1  12
BRANCH   5  21
ATOM     21  C   UNL     1       2.781   3.300  17.112  0.00  0.00    +0.000 C 
BRANCH  21  22
ATOM     22  C   UNL     1       2.701   2.118  18.072  0.00  0.00    +0.000 C 
BRANCH  22  23
ATOM     23  N   UNL     1       2.530   2.314  19.492  0.00  0.00    +0.000 N 
ATOM     24  C   UNL     1       3.412   2.639  20.475  0.00  0.00    +0.000 A 
ATOM     25  N   UNL     1       2.754   2.942  21.577  0.00  0.00    +0.000 NA
ATOM     26  C   UNL     1       1.449   2.796  21.208  0.00  0.00    +0.000 A 
ATOM     27  N   UNL     1       1.258   2.405  19.948  0.00  0.00    +0.000 NA
ENDBRANCH  22  23
ENDBRANCH  21  22
ENDBRANCH   5  21
TORSDOF 5
ENDMDL
MODEL 2
REMARK VINA RESULT:      -8.3      2.057      4.367
REMARK  Name = 
REMARK  6 active torsions:
REMARK  status: ('A' for Active; 'I' for Inactive)
REMARK    1  A    between atoms: C_1  and  C_2
REMARK    2  A    between atoms: C_5  and  C_6
REMARK    3  A    between atoms: C_6  and  C_8
REMARK    4  A    between atoms: N_12  and  C_13
REMARK    5  A    between atoms: C_13  and  C_14
REMARK    6  A    between atoms: C_14  and  N_15
REMARK                            x       y       z     vdW  Elec       q    Type
REMARK                         _______ _______ _______ _____ _____    ______ ____
ROOT
ATOM      1  C   UNL     1       1.763   6.869  18.028  0.00  0.00    +0.000 C 
ATOM      2  C   UNL     1       2.775   5.997  17.933  0.00  0.00    +0.000 C 
ATOM      3  C   UNL     1       4.242   6.287  17.834  0.00  0.00    +0.000 C 
ATOM      4  O   UNL     1       4.790   7.318  17.504  0.00  0.00    +0.000 OA
ATOM      5  N   UNL     1       4.880   5.083  18.164  0.00  0.00    +0.000 N 
ATOM      6  C   UNL     1       3.930   4.046  18.314  0.00  0.00    +0.000 A 
ATOM      7  C   UNL     1       4.126   2.704  18.592  0.00  0.00    +0.000 A 
ATOM      8  C   UNL     1       3.008   1.857  18.571  0.00  0.00    +0.000 A 
ATOM      9  C   UNL     1       1.720   2.357  18.314  0.00  0.00    +0.000 A 
ATOM     10  C   UNL     1       1.522   3.720  18.098  0.00  0.00    +0.000 A 
ATOM     11  C   UNL     1       2.635   4.549  18.100  0.00  0.00    +0.000 A 
ENDROOT
BRANCH   1  12
ATOM     12  C   UNL     1       1.920   8.343  18.149  0.00  0.00    +0.000 C 
ATOM     13  O   UNL     1       2.659   8.985  17.413  0.00  0.00    +0.000 OA
BRANCH  12  18
ATOM     14  C   UNL     1      -0.533  10.740  22.821  0.00  0.00    +0.000 C 
ATOM     15  C   UNL     1       0.092  10.140  21.597  0.00  0.00    +0.000 A 
ATOM     16  C   UNL     1       0.070  10.814  20.371  0.00  0.00    +0.000 A 
ATOM     17  C   UNL     1       0.670  10.253  19.241  0.00  0.00    +0.000 A 
ATOM     18  C   UNL     1       1.289   9.001  19.325  0.00  0.00    +0.000 A 
ATOM     19  C   UNL     1       1.321   8.328  20.552  0.00  0.00    +0.000 A 
ATOM     20  C   UNL     1       0.721   8.891  21.680  0.00  0.00    +0.000 A 
ENDBRANCH  12  18
ENDBRANCH   1  12
BRANCH   5  21
ATOM     21  C   UNL     1       6.260   5.084  18.597  0.00  0.00    +0.000 C 
BRANCH  21  22
ATOM     22  C   UNL     1       7.346   4.610  17.638  0.00  0.00    +0.000 C 
BRANCH  22  23
ATOM     23  N   UNL     1       7.080   4.435  16.230  0.00  0.00    +0.000 N 
ATOM     24  C   UNL     1       6.235   3.604  15.563  0.00  0.00    +0.000 A 
ATOM     25  N   UNL     1       6.161   3.970  14.298  0.00  0.00    +0.000 NA
ATOM     26  C   UNL     1       6.985   5.056  14.242  0.00  0.00    +0.000 A 
ATOM     27  N   UNL     1       7.578   5.376  15.392  0.00  0.00    +0.000 NA
ENDBRANCH  22  23
ENDBRANCH  21  22
ENDBRANCH   5  21
TORSDOF 5
ENDMDL
MODEL 3
REMARK VINA RESULT:      -8.2      0.498      1.176
REMARK  Name = 
REMARK  6 active torsions:
REMARK  status: ('A' for Active; 'I' for Inactive)
REMARK    1  A    between atoms: C_1  and  C_2
REMARK    2  A    between atoms: C_5  and  C_6
REMARK    3  A    between atoms: C_6  and  C_8
REMARK    4  A    between atoms: N_12  and  C_13
REMARK    5  A    between atoms: C_13  and  C_14
REMARK    6  A    between atoms: C_14  and  N_15
REMARK                            x       y       z     vdW  Elec       q    Type
REMARK                         _______ _______ _______ _____ _____    ______ ____
ROOT
ATOM      1  C   UNL     1       3.176   8.143  17.926  0.00  0.00    +0.000 C 
ATOM      2  C   UNL     1       3.537   6.854  17.891  0.00  0.00    +0.000 C 
ATOM      3  C   UNL     1       2.666   5.642  18.025  0.00  0.00    +0.000 C 
ATOM      4  O   UNL     1       1.550   5.560  18.497  0.00  0.00    +0.000 OA
ATOM      5  N   UNL     1       3.430   4.579  17.523  0.00  0.00    +0.000 N 
ATOM      6  C   UNL     1       4.743   5.011  17.229  0.00  0.00    +0.000 A 
ATOM      7  C   UNL     1       5.826   4.287  16.761  0.00  0.00    +0.000 A 
ATOM      8  C   UNL     1       7.064   4.941  16.665  0.00  0.00    +0.000 A 
ATOM      9  C   UNL     1       7.198   6.300  16.995  0.00  0.00    +0.000 A 
ATOM     10  C   UNL     1       6.089   7.039  17.406  0.00  0.00    +0.000 A 
ATOM     11  C   UNL     1       4.872   6.381  17.518  0.00  0.00    +0.000 A 
ENDROOT
BRANCH   1  12
ATOM     12  C   UNL     1       1.773   8.629  18.018  0.00  0.00    +0.000 C 
ATOM     13  O   UNL     1       1.110   8.907  17.027  0.00  0.00    +0.000 OA
BRANCH  12  18
ATOM     14  C   UNL     1      -0.191   9.717  23.361  0.00  0.00    +0.000 C 
ATOM     15  C   UNL     1       0.300   9.452  21.969  0.00  0.00    +0.000 A 
ATOM     16  C   UNL     1      -0.156  10.214  20.888  0.00  0.00    +0.000 A 
ATOM     17  C   UNL     1       0.320   9.971  19.597  0.00  0.00    +0.000 A 
ATOM     18  C   UNL     1       1.252   8.950  19.374  0.00  0.00    +0.000 A 
ATOM     19  C   UNL     1       1.718   8.194  20.456  0.00  0.00    +0.000 A 
ATOM     20  C   UNL     1       1.240   8.439  21.744  0.00  0.00    +0.000 A 
ENDBRANCH  12  18
ENDBRANCH   1  12
BRANCH   5  21
ATOM     21  C   UNL     1       2.784   3.360  17.089  0.00  0.00    +0.000 C 
BRANCH  21  22
ATOM     22  C   UNL     1       2.538   2.243  18.097  0.00  0.00    +0.000 C 
BRANCH  22  23
ATOM     23  N   UNL     1       2.250   2.533  19.482  0.00  0.00    +0.000 N 
ATOM     24  C   UNL     1       1.078   2.608  20.168  0.00  0.00    +0.000 A 
ATOM     25  N   UNL     1       1.326   2.664  21.462  0.00  0.00    +0.000 NA
ATOM     26  C   UNL     1       2.687   2.608  21.519  0.00  0.00    +0.000 A 
ATOM     27  N   UNL     1       3.300   2.537  20.338  0.00  0.00    +0.000 NA
ENDBRANCH  22  23
ENDBRANCH  21  22
ENDBRANCH   5  21
TORSDOF 5
ENDMDL
MODEL 4
REMARK VINA RESULT:      -7.7      2.324      6.573
REMARK  Name = 
REMARK  6 active torsions:
REMARK  status: ('A' for Active; 'I' for Inactive)
REMARK    1  A    between atoms: C_1  and  C_2
REMARK    2  A    between atoms: C_5  and  C_6
REMARK    3  A    between atoms: C_6  and  C_8
REMARK    4  A    between atoms: N_12  and  C_13
REMARK    5  A    between atoms: C_13  and  C_14
REMARK    6  A    between atoms: C_14  and  N_15
REMARK                            x       y       z     vdW  Elec       q    Type
REMARK                         _______ _______ _______ _____ _____    ______ ____
ROOT
ATOM      1  C   UNL     1       4.920   7.005  16.898  0.00  0.00    +0.000 C 
ATOM      2  C   UNL     1       3.954   6.746  17.790  0.00  0.00    +0.000 C 
ATOM      3  C   UNL     1       3.804   5.544  18.672  0.00  0.00    +0.000 C 
ATOM      4  O   UNL     1       4.311   4.448  18.551  0.00  0.00    +0.000 OA
ATOM      5  N   UNL     1       2.901   5.929  19.672  0.00  0.00    +0.000 N 
ATOM      6  C   UNL     1       2.376   7.213  19.396  0.00  0.00    +0.000 A 
ATOM      7  C   UNL     1       1.430   7.947  20.090  0.00  0.00    +0.000 A 
ATOM      8  C   UNL     1       0.994   9.157  19.529  0.00  0.00    +0.000 A 
ATOM      9  C   UNL     1       1.525   9.632  18.318  0.00  0.00    +0.000 A 
ATOM     10  C   UNL     1       2.523   8.917  17.656  0.00  0.00    +0.000 A 
ATOM     11  C   UNL     1       2.935   7.712  18.206  0.00  0.00    +0.000 A 
ENDROOT
BRANCH   1  12
ATOM     12  C   UNL     1       6.120   6.155  16.676  0.00  0.00    +0.000 C 
ATOM     13  O   UNL     1       7.124   6.244  17.371  0.00  0.00    +0.000 OA
BRANCH  12  18
ATOM     14  C   UNL     1       6.323   2.970  11.837  0.00  0.00    +0.000 C 
ATOM     15  C   UNL     1       6.246   3.786  13.093  0.00  0.00    +0.000 A 
ATOM     16  C   UNL     1       5.157   3.666  13.965  0.00  0.00    +0.000 A 
ATOM     17  C   UNL     1       5.103   4.418  15.141  0.00  0.00    +0.000 A 
ATOM     18  C   UNL     1       6.137   5.309  15.451  0.00  0.00    +0.000 A 
ATOM     19  C   UNL     1       7.232   5.423  14.587  0.00  0.00    +0.000 A 
ATOM     20  C   UNL     1       7.284   4.671  13.412  0.00  0.00    +0.000 A 
ENDBRANCH  12  18
ENDBRANCH   1  12
BRANCH   5  21
ATOM     21  C   UNL     1       2.847   5.206  20.924  0.00  0.00    +0.000 C 
BRANCH  21  22
ATOM     22  C   UNL     1       1.778   4.138  21.125  0.00  0.00    +0.000 C 
BRANCH  22  23
ATOM     23  N   UNL     1       1.488   3.163  20.100  0.00  0.00    +0.000 N 
ATOM     24  C   UNL     1       0.489   3.084  19.181  0.00  0.00    +0.000 A 
ATOM     25  N   UNL     1       0.772   2.144  18.300  0.00  0.00    +0.000 NA
ATOM     26  C   UNL     1       1.980   1.676  18.724  0.00  0.00    +0.000 A 
ATOM     27  N   UNL     1       2.457   2.258  19.824  0.00  0.00    +0.000 NA
ENDBRANCH  22  23
ENDBRANCH  21  22
ENDBRANCH   5  21
TORSDOF 5
ENDMDL
MODEL 5
REMARK VINA RESULT:      -7.7      2.713      6.746
REMARK  Name = 
REMARK  6 active torsions:
REMARK  status: ('A' for Active; 'I' for Inactive)
REMARK    1  A    between atoms: C_1  and  C_2
REMARK    2  A    between atoms: C_5  and  C_6
REMARK    3  A    between atoms: C_6  and  C_8
REMARK    4  A    between atoms: N_12  and  C_13
REMARK    5  A    between atoms: C_13  and  C_14
REMARK    6  A    between atoms: C_14  and  N_15
REMARK                            x       y       z     vdW  Elec       q    Type
REMARK                         _______ _______ _______ _____ _____    ______ ____
ROOT
ATOM      1  C   UNL     1       5.320   6.503  16.192  0.00  0.00    +0.000 C 
ATOM      2  C   UNL     1       4.608   6.003  17.210  0.00  0.00    +0.000 C 
ATOM      3  C   UNL     1       4.812   4.708  17.935  0.00  0.00    +0.000 C 
ATOM      4  O   UNL     1       5.425   3.725  17.573  0.00  0.00    +0.000 OA
ATOM      5  N   UNL     1       4.096   4.839  19.134  0.00  0.00    +0.000 N 
ATOM      6  C   UNL     1       3.357   6.044  19.138  0.00  0.00    +0.000 A 
ATOM      7  C   UNL     1       2.490   6.543  20.094  0.00  0.00    +0.000 A 
ATOM      8  C   UNL     1       1.786   7.720  19.795  0.00  0.00    +0.000 A 
ATOM      9  C   UNL     1       1.981   8.396  18.579  0.00  0.00    +0.000 A 
ATOM     10  C   UNL     1       2.903   7.921  17.648  0.00  0.00    +0.000 A 
ATOM     11  C   UNL     1       3.580   6.746  17.941  0.00  0.00    +0.000 A 
ENDROOT
BRANCH   1  12
ATOM     12  C   UNL     1       6.550   5.882  15.629  0.00  0.00    +0.000 C 
ATOM     13  O   UNL     1       7.672   6.196  16.004  0.00  0.00    +0.000 OA
BRANCH  12  18
ATOM     14  C   UNL     1       5.751   2.331  11.119  0.00  0.00    +0.000 C 
ATOM     15  C   UNL     1       5.983   3.253  12.279  0.00  0.00    +0.000 A 
ATOM     16  C   UNL     1       7.191   3.945  12.419  0.00  0.00    +0.000 A 
ATOM     17  C   UNL     1       7.391   4.815  13.495  0.00  0.00    +0.000 A 
ATOM     18  C   UNL     1       6.383   4.990  14.450  0.00  0.00    +0.000 A 
ATOM     19  C   UNL     1       5.169   4.308  14.306  0.00  0.00    +0.000 A 
ATOM     20  C   UNL     1       4.973   3.440  13.231  0.00  0.00    +0.000 A 
ENDBRANCH  12  18
ENDBRANCH   1  12
BRANCH   5  21
ATOM     21  C   UNL     1       4.406   3.990  20.264  0.00  0.00    +0.000 C 
BRANCH  21  22
ATOM     22  C   UNL     1       3.618   2.701  20.469  0.00  0.00    +0.000 C 
BRANCH  22  23
ATOM     23  N   UNL     1       2.274   2.554  19.962  0.00  0.00    +0.000 N 
ATOM     24  C   UNL     1       1.083   3.046  20.394  0.00  0.00    +0.000 A 
ATOM     25  N   UNL     1       0.160   2.841  19.475  0.00  0.00    +0.000 NA
ATOM     26  C   UNL     1       0.850   2.219  18.476  0.00  0.00    +0.000 A 
ATOM     27  N   UNL     1       2.143   2.012  18.727  0.00  0.00    +0.000 NA
ENDBRANCH  22  23
ENDBRANCH  21  22
ENDBRANCH   5  21
TORSDOF 5
ENDMDL
MODEL 6
REMARK VINA RESULT:      -7.5      2.082      2.954
REMARK  Name = 
REMARK  6 active torsions:
REMARK  status: ('A' for Active; 'I' for Inactive)
REMARK    1  A    between atoms: C_1  and  C_2
REMARK    2  A    between atoms: C_5  and  C_6
REMARK    3  A    between atoms: C_6  and  C_8
REMARK    4  A    between atoms: N_12  and  C_13
REMARK    5  A    between atoms: C_13  and  C_14
REMARK    6  A    between atoms: C_14  and  N_15
REMARK                            x       y       z     vdW  Elec       q    Type
REMARK                         _______ _______ _______ _____ _____    ______ ____
ROOT
ATOM      1  C   UNL     1       1.973   9.100  17.733  0.00  0.00    +0.000 C 
ATOM      2  C   UNL     1       2.533   8.100  18.425  0.00  0.00    +0.000 C 
ATOM      3  C   UNL     1       2.131   7.560  19.763  0.00  0.00    +0.000 C 
ATOM      4  O   UNL     1       1.456   8.088  20.622  0.00  0.00    +0.000 OA
ATOM      5  N   UNL     1       2.744   6.301  19.853  0.00  0.00    +0.000 N 
ATOM      6  C   UNL     1       3.600   6.089  18.749  0.00  0.00    +0.000 A 
ATOM      7  C   UNL     1       4.423   5.013  18.465  0.00  0.00    +0.000 A 
ATOM      8  C   UNL     1       5.269   5.107  17.349  0.00  0.00    +0.000 A 
ATOM      9  C   UNL     1       5.257   6.240  16.519  0.00  0.00    +0.000 A 
ATOM     10  C   UNL     1       4.380   7.294  16.776  0.00  0.00    +0.000 A 
ATOM     11  C   UNL     1       3.561   7.203  17.892  0.00  0.00    +0.000 A 
ENDROOT
BRANCH   1  12
ATOM     12  C   UNL     1       0.742   9.830  18.141  0.00  0.00    +0.000 C 
ATOM     13  O   UNL     1      -0.358   9.576  17.668  0.00  0.00    +0.000 OA
BRANCH  12  18
ATOM     14  C   UNL     1       1.587  14.499  21.470  0.00  0.00    +0.000 C 
ATOM     15  C   UNL     1       1.352  13.282  20.627  0.00  0.00    +0.000 A 
ATOM     16  C   UNL     1       0.356  12.356  20.959  0.00  0.00    +0.000 A 
ATOM     17  C   UNL     1       0.133  11.234  20.156  0.00  0.00    +0.000 A 
ATOM     18  C   UNL     1       0.917  11.021  19.017  0.00  0.00    +0.000 A 
ATOM     19  C   UNL     1       1.907  11.950  18.677  0.00  0.00    +0.000 A 
ATOM     20  C   UNL     1       2.127  13.070  19.480  0.00  0.00    +0.000 A 
ENDBRANCH  12  18
ENDBRANCH   1  12
BRANCH   5  21
ATOM     21  C   UNL     1       2.246   5.314  20.786  0.00  0.00    +0.000 C 
BRANCH  21  22
ATOM     22  C   UNL     1       1.228   4.283  20.311  0.00  0.00    +0.000 C 
BRANCH  22  23
ATOM     23  N   UNL     1       1.583   3.264  19.352  0.00  0.00    +0.000 N 
ATOM     24  C   UNL     1       1.355   3.158  18.015  0.00  0.00    +0.000 A 
ATOM     25  N   UNL     1       2.074   2.170  17.521  0.00  0.00    +0.000 NA
ATOM     26  C   UNL     1       2.745   1.700  18.610  0.00  0.00    +0.000 A 
ATOM     27  N   UNL     1       2.474   2.328  19.755  0.00  0.00    +0.000 NA
ENDBRANCH  22  23
ENDBRANCH  21  22
ENDBRANCH   5  21
TORSDOF 5
ENDMDL
MODEL 7
REMARK VINA RESULT:      -7.4      3.095      7.300
REMARK  Name = 
REMARK  6 active torsions:
REMARK  status: ('A' for Active; 'I' for Inactive)
REMARK    1  A    between atoms: C_1  and  C_2
REMARK    2  A    between atoms: C_5  and  C_6
REMARK    3  A    between atoms: C_6  and  C_8
REMARK    4  A    between atoms: N_12  and  C_13
REMARK    5  A    between atoms: C_13  and  C_14
REMARK    6  A    between atoms: C_14  and  N_15
REMARK                            x       y       z     vdW  Elec       q    Type
REMARK                         _______ _______ _______ _____ _____    ______ ____
ROOT
ATOM      1  C   UNL     1       6.004   4.414  18.285  0.00  0.00    +0.000 C 
ATOM      2  C   UNL     1       4.873   5.010  18.683  0.00  0.00    +0.000 C 
ATOM      3  C   UNL     1       4.327   6.340  18.260  0.00  0.00    +0.000 C 
ATOM      4  O   UNL     1       4.913   7.270  17.744  0.00  0.00    +0.000 OA
ATOM      5  N   UNL     1       2.974   6.319  18.628  0.00  0.00    +0.000 N 
ATOM      6  C   UNL     1       2.682   5.150  19.367  0.00  0.00    +0.000 A 
ATOM      7  C   UNL     1       1.494   4.753  19.956  0.00  0.00    +0.000 A 
ATOM      8  C   UNL     1       1.504   3.591  20.742  0.00  0.00    +0.000 A 
ATOM      9  C   UNL     1       2.674   2.829  20.900  0.00  0.00    +0.000 A 
ATOM     10  C   UNL     1       3.852   3.201  20.253  0.00  0.00    +0.000 A 
ATOM     11  C   UNL     1       3.839   4.362  19.493  0.00  0.00    +0.000 A 
ENDROOT
BRANCH   1  12
ATOM     12  C   UNL     1       6.920   4.943  17.239  0.00  0.00    +0.000 C 
ATOM     13  O   UNL     1       7.787   5.772  17.486  0.00  0.00    +0.000 OA
BRANCH  12  18
ATOM     14  C   UNL     1       5.666   3.361  11.806  0.00  0.00    +0.000 C 
ATOM     15  C   UNL     1       6.014   3.781  13.203  0.00  0.00    +0.000 A 
ATOM     16  C   UNL     1       7.131   4.583  13.458  0.00  0.00    +0.000 A 
ATOM     17  C   UNL     1       7.436   4.983  14.762  0.00  0.00    +0.000 A 
ATOM     18  C   UNL     1       6.629   4.570  15.828  0.00  0.00    +0.000 A 
ATOM     19  C   UNL     1       5.504   3.776  15.575  0.00  0.00    +0.000 A 
ATOM     20  C   UNL     1       5.202   3.379  14.272  0.00  0.00    +0.000 A 
ENDBRANCH  12  18
ENDBRANCH   1  12
BRANCH   5  21
ATOM     21  C   UNL     1       2.036   7.226  18.004  0.00  0.00    +0.000 C 
BRANCH  21  22
ATOM     22  C   UNL     1       2.022   8.692  18.421  0.00  0.00    +0.000 C 
BRANCH  22  23
ATOM     23  N   UNL     1       1.200   9.154  19.514  0.00  0.00    +0.000 N 
ATOM     24  C   UNL     1       0.190  10.064  19.568  0.00  0.00    +0.000 A 
ATOM     25  N   UNL     1      -0.421   9.978  20.733  0.00  0.00    +0.000 NA
ATOM     26  C   UNL     1       0.256   8.977  21.364  0.00  0.00    +0.000 A 
ATOM     27  N   UNL     1       1.261   8.446  20.667  0.00  0.00    +0.000 NA
ENDBRANCH  22  23
ENDBRANCH  21  22
ENDBRANCH   5  21
TORSDOF 5
ENDMDL
MODEL 8
REMARK VINA RESULT:      -7.4      2.568      5.001
REMARK  Name = 
REMARK  6 active torsions:
REMARK  status: ('A' for Active; 'I' for Inactive)
REMARK    1  A    between atoms: C_1  and  C_2
REMARK    2  A    between atoms: C_5  and  C_6
REMARK    3  A    between atoms: C_6  and  C_8
REMARK    4  A    between atoms: N_12  and  C_13
REMARK    5  A    between atoms: C_13  and  C_14
REMARK    6  A    between atoms: C_14  and  N_15
REMARK                            x       y       z     vdW  Elec       q    Type
REMARK                         _______ _______ _______ _____ _____    ______ ____
ROOT
ATOM      1  C   UNL     1       0.935   8.686  20.060  0.00  0.00    +0.000 C 
ATOM      2  C   UNL     1       1.709   7.867  19.335  0.00  0.00    +0.000 C 
ATOM      3  C   UNL     1       2.433   8.166  18.057  0.00  0.00    +0.000 C 
ATOM      4  O   UNL     1       2.229   9.060  17.262  0.00  0.00    +0.000 OA
ATOM      5  N   UNL     1       3.394   7.153  17.932  0.00  0.00    +0.000 N 
ATOM      6  C   UNL     1       3.225   6.183  18.946  0.00  0.00    +0.000 A 
ATOM      7  C   UNL     1       3.921   5.007  19.166  0.00  0.00    +0.000 A 
ATOM      8  C   UNL     1       3.469   4.155  20.185  0.00  0.00    +0.000 A 
ATOM      9  C   UNL     1       2.367   4.499  20.987  0.00  0.00    +0.000 A 
ATOM     10  C   UNL     1       1.711   5.715  20.800  0.00  0.00    +0.000 A 
ATOM     11  C   UNL     1       2.151   6.543  19.778  0.00  0.00    +0.000 A 
ENDROOT
BRANCH   1  12
ATOM     12  C   UNL     1       0.714  10.127  19.766  0.00  0.00    +0.000 C 
ATOM     13  O   UNL     1       1.441  11.005  20.211  0.00  0.00    +0.000 OA
BRANCH  12  18
ATOM     14  C   UNL     1      -4.239  11.632  17.160  0.00  0.00    +0.000 C 
ATOM     15  C   UNL     1      -2.955  11.223  17.816  0.00  0.00    +0.000 A 
ATOM     16  C   UNL     1      -2.125  10.257  17.237  0.00  0.00    +0.000 A 
ATOM     17  C   UNL     1      -0.921   9.896  17.848  0.00  0.00    +0.000 A 
ATOM     18  C   UNL     1      -0.542  10.492  19.057  0.00  0.00    +0.000 A 
ATOM     19  C   UNL     1      -1.366  11.466  19.633  0.00  0.00    +0.000 A 
ATOM     20  C   UNL     1      -2.567  11.825  19.020  0.00  0.00    +0.000 A 
ENDBRANCH  12  18
ENDBRANCH   1  12
BRANCH   5  21
ATOM     21  C   UNL     1       4.546   7.345  17.077  0.00  0.00    +0.000 C 
BRANCH  21  22
ATOM     22  C   UNL     1       5.751   6.422  17.228  0.00  0.00    +0.000 C 
BRANCH  22  23
ATOM     23  N   UNL     1       6.079   5.445  16.217  0.00  0.00    +0.000 N 
ATOM     24  C   UNL     1       5.355   4.436  15.663  0.00  0.00    +0.000 A 
ATOM     25  N   UNL     1       5.992   3.961  14.610  0.00  0.00    +0.000 NA
ATOM     26  C   UNL     1       7.115   4.732  14.554  0.00  0.00    +0.000 A 
ATOM     27  N   UNL     1       7.221   5.647  15.518  0.00  0.00    +0.000 NA
ENDBRANCH  22  23
ENDBRANCH  21  22
ENDBRANCH   5  21
TORSDOF 5
ENDMDL
MODEL 9
REMARK VINA RESULT:      -7.4      3.120      7.395
REMARK  Name = 
REMARK  6 active torsions:
REMARK  status: ('A' for Active; 'I' for Inactive)
REMARK    1  A    between atoms: C_1  and  C_2
REMARK    2  A    between atoms: C_5  and  C_6
REMARK    3  A    between atoms: C_6  and  C_8
REMARK    4  A    between atoms: N_12  and  C_13
REMARK    5  A    between atoms: C_13  and  C_14
REMARK    6  A    between atoms: C_14  and  N_15
REMARK                            x       y       z     vdW  Elec       q    Type
REMARK                         _______ _______ _______ _____ _____    ______ ____
ROOT
ATOM      1  C   UNL     1       5.926   4.385  18.451  0.00  0.00    +0.000 C 
ATOM      2  C   UNL     1       4.798   5.032  18.773  0.00  0.00    +0.000 C 
ATOM      3  C   UNL     1       4.314   6.358  18.271  0.00  0.00    +0.000 C 
ATOM      4  O   UNL     1       4.951   7.247  17.743  0.00  0.00    +0.000 OA
ATOM      5  N   UNL     1       2.947   6.393  18.578  0.00  0.00    +0.000 N 
ATOM      6  C   UNL     1       2.585   5.267  19.352  0.00  0.00    +0.000 A 
ATOM      7  C   UNL     1       1.361   4.931  19.902  0.00  0.00    +0.000 A 
ATOM      8  C   UNL     1       1.300   3.804  20.736  0.00  0.00    +0.000 A 
ATOM      9  C   UNL     1       2.437   3.014  20.978  0.00  0.00    +0.000 A 
ATOM     10  C   UNL     1       3.653   3.323  20.369  0.00  0.00    +0.000 A 
ATOM     11  C   UNL     1       3.710   4.450  19.562  0.00  0.00    +0.000 A 
ENDROOT
BRANCH   1  12
ATOM     12  C   UNL     1       6.903   4.841  17.426  0.00  0.00    +0.000 C 
ATOM     13  O   UNL     1       7.816   5.614  17.688  0.00  0.00    +0.000 OA
BRANCH  12  18
ATOM     14  C   UNL     1       5.935   3.546  11.860  0.00  0.00    +0.000 C 
ATOM     15  C   UNL     1       6.163   3.869  13.306  0.00  0.00    +0.000 A 
ATOM     16  C   UNL     1       5.337   3.336  14.302  0.00  0.00    +0.000 A 
ATOM     17  C   UNL     1       5.569   3.630  15.649  0.00  0.00    +0.000 A 
ATOM     18  C   UNL     1       6.626   4.473  16.011  0.00  0.00    +0.000 A 
ATOM     19  C   UNL     1       7.460   4.998  15.017  0.00  0.00    +0.000 A 
ATOM     20  C   UNL     1       7.227   4.703  13.673  0.00  0.00    +0.000 A 
ENDBRANCH  12  18
ENDBRANCH   1  12
BRANCH   5  21
ATOM     21  C   UNL     1       2.065   7.300  17.875  0.00  0.00    +0.000 C 
BRANCH  21  22
ATOM     22  C   UNL     1       2.110   8.789  18.200  0.00  0.00    +0.000 C 
BRANCH  22  23
ATOM     23  N   UNL     1       1.107   9.406  19.035  0.00  0.00    +0.000 N 
ATOM     24  C   UNL     1       0.050  10.209  18.739  0.00  0.00    +0.000 A 
ATOM     25  N   UNL     1      -0.724  10.330  19.800  0.00  0.00    +0.000 NA
ATOM     26  C   UNL     1      -0.093   9.561  20.733  0.00  0.00    +0.000 A 
ATOM     27  N   UNL     1       1.035   8.983  20.319  0.00  0.00    +0.000 NA
ENDBRANCH  22  23
ENDBRANCH  21  22
ENDBRANCH   5  21
TORSDOF 5
ENDMDL
