MODEL 1
REMARK VINA RESULT:      -7.6      0.000      0.000
REMARK  Name = 
REMARK  9 active torsions:
REMARK  status: ('A' for Active; 'I' for Inactive)
REMARK    1  A    between atoms: C_2  and  C_3
REMARK    2  A    between atoms: C_3  and  N_4
REMARK    3  A    between atoms: C_5  and  C_7
REMARK    4  A    between atoms: C_7  and  C_8
REMARK    5  A    between atoms: C_7  and  N_15
REMARK    6  A    between atoms: C_8  and  C_9
REMARK    7  A    between atoms: N_15  and  C_16
REMARK    8  A    between atoms: C_16  and  C_17
REMARK    9  A    between atoms: C_16  and  C_24
REMARK                            x       y       z     vdW  Elec       q    Type
REMARK                         _______ _______ _______ _____ _____    ______ ____
ROOT
ATOM      1  C   UNL     1       2.960   6.943  18.331  0.00  0.00    +0.000 C 
ENDROOT
BRANCH   1   3
ATOM      2  N   UNL     1       1.430   8.412  19.615  0.00  0.00    +0.000 N 
ATOM      3  C   UNL     1       2.195   8.285  18.463  0.00  0.00    +0.000 C 
ATOM      4  O   UNL     1       2.236   9.164  17.603  0.00  0.00    +0.000 OA
ATOM      5  H   UNL     1       1.603   7.788  20.398  0.00  0.00    +0.000 HD
BRANCH   2   6
ATOM      6  C   UNL     1       0.686   9.623  19.880  0.00  0.00    +0.000 C 
ATOM      7  C   UNL     1       1.360  10.842  20.494  0.00  0.00    +0.000 C 
ATOM      8  C   UNL     1       0.461   9.993  21.334  0.00  0.00    +0.000 C 
BRANCH   6  10
ATOM      9  N   UNL     1      -0.997  10.228  17.982  0.00  0.00    +0.000 NA
ATOM     10  C   UNL     1      -0.283   9.962  18.862  0.00  0.00    +0.000 C 
ENDBRANCH   6  10
ENDBRANCH   2   6
ENDBRANCH   1   3
BRANCH   1  11
ATOM     11  N   UNL     1       4.054   7.017  17.330  0.00  0.00    +0.000 NA
ATOM     12  H   UNL     1       4.320   7.997  17.209  0.00  0.00    +0.000 HD
BRANCH  11  13
ATOM     13  C   UNL     1       5.298   6.246  17.633  0.00  0.00    +0.000 C 
BRANCH  13  14
ATOM     14  C   UNL     1       5.706   5.426  16.399  0.00  0.00    +0.000 A 
ATOM     15  C   UNL     1       7.014   5.478  15.887  0.00  0.00    +0.000 A 
ATOM     16  C   UNL     1       7.330   4.866  14.671  0.00  0.00    +0.000 A 
ATOM     17  C   UNL     1       6.339   4.202  13.952  0.00  0.00    +0.000 A 
ATOM     18 BR   UNL     1       6.740   3.481  12.251  0.00  0.00    +0.000 Br
ATOM     19  C   UNL     1       5.047   4.098  14.463  0.00  0.00    +0.000 A 
ATOM     20  C   UNL     1       4.732   4.702  15.684  0.00  0.00    +0.000 A 
ENDBRANCH  13  14
BRANCH  13  21
ATOM     21  C   UNL     1       5.338   5.316  18.904  0.00  0.00    +0.000 C 
ATOM     22  F   UNL     1       4.623   5.818  19.940  0.00  0.00    +0.000 F 
ATOM     23  F   UNL     1       4.876   4.065  18.685  0.00  0.00    +0.000 F 
ATOM     24  F   UNL     1       6.618   5.191  19.344  0.00  0.00    +0.000 F 
ENDBRANCH  13  21
ENDBRANCH  11  13
ENDBRANCH   1  11
BRANCH   1  25
ATOM     25  C   UNL     1       1.935   5.875  17.876  0.00  0.00    +0.000 C 
BRANCH  25  26
ATOM     26  C   UNL     1       1.745   4.693  18.801  0.00  0.00    +0.000 A 
ATOM     27  C   UNL     1       1.674   3.386  18.303  0.00  0.00    +0.000 A 
ATOM     28  C   UNL     1       1.590   2.300  19.177  0.00  0.00    +0.000 A 
ATOM     29  C   UNL     1       1.572   2.509  20.555  0.00  0.00    +0.000 A 
ATOM     30  C   UNL     1       1.623   3.806  21.060  0.00  0.00    +0.000 A 
ATOM     31  C   UNL     1       1.708   4.892  20.189  0.00  0.00    +0.000 A 
ENDBRANCH  25  26
ENDBRANCH   1  25
TORSDOF 9
ENDMDL
MODEL 2
REMARK VINA RESULT:      -7.6      0.841      1.327
REMARK  Name = 
REMARK  9 active torsions:
REMARK  status: ('A' for Active; 'I' for Inactive)
REMARK    1  A    between atoms: C_2  and  C_3
REMARK    2  A    between atoms: C_3  and  N_4
REMARK    3  A    between atoms: C_5  and  C_7
REMARK    4  A    between atoms: C_7  and  C_8
REMARK    5  A    between atoms: C_7  and  N_15
REMARK    6  A    between atoms: C_8  and  C_9
REMARK    7  A    between atoms: N_15  and  C_16
REMARK    8  A    between atoms: C_16  and  C_17
REMARK    9  A    between atoms: C_16  and  C_24
REMARK                            x       y       z     vdW  Elec       q    Type
REMARK                         _______ _______ _______ _____ _____    ______ ____
ROOT
ATOM      1  C   UNL     1       3.006   6.820  18.490  0.00  0.00    +0.000 C 
ENDROOT
BRANCH   1   3
ATOM      2  N   UNL     1       1.524   8.186  19.935  0.00  0.00    +0.000 N 
ATOM      3  C   UNL     1       2.313   8.174  18.791  0.00  0.00    +0.000 C 
ATOM      4  O   UNL     1       2.425   9.158  18.062  0.00  0.00    +0.000 OA
ATOM      5  H   UNL     1       1.642   7.453  20.628  0.00  0.00    +0.000 HD
BRANCH   2   6
ATOM      6  C   UNL     1       0.842   9.392  20.350  0.00  0.00    +0.000 C 
ATOM      7  C   UNL     1      -0.504   9.779  19.752  0.00  0.00    +0.000 C 
ATOM      8  C   UNL     1       0.730  10.509  19.329  0.00  0.00    +0.000 C 
BRANCH   6  10
ATOM      9  N   UNL     1       1.042   9.819  22.915  0.00  0.00    +0.000 NA
ATOM     10  C   UNL     1       0.938   9.676  21.764  0.00  0.00    +0.000 C 
ENDBRANCH   6  10
ENDBRANCH   2   6
ENDBRANCH   1   3
BRANCH   1  11
ATOM     11  N   UNL     1       4.102   6.959  17.499  0.00  0.00    +0.000 NA
ATOM     12  H   UNL     1       4.370   7.945  17.446  0.00  0.00    +0.000 HD
BRANCH  11  13
ATOM     13  C   UNL     1       5.344   6.167  17.752  0.00  0.00    +0.000 C 
BRANCH  13  14
ATOM     14  C   UNL     1       5.707   5.367  16.491  0.00  0.00    +0.000 A 
ATOM     15  C   UNL     1       6.996   5.426  15.934  0.00  0.00    +0.000 A 
ATOM     16  C   UNL     1       7.268   4.834  14.698  0.00  0.00    +0.000 A 
ATOM     17  C   UNL     1       6.251   4.182  14.004  0.00  0.00    +0.000 A 
ATOM     18 BR   UNL     1       6.591   3.489  12.278  0.00  0.00    +0.000 Br
ATOM     19  C   UNL     1       4.978   4.071  14.559  0.00  0.00    +0.000 A 
ATOM     20  C   UNL     1       4.708   4.655  15.800  0.00  0.00    +0.000 A 
ENDBRANCH  13  14
BRANCH  13  21
ATOM     21  C   UNL     1       5.406   5.211  19.003  0.00  0.00    +0.000 C 
ATOM     22  F   UNL     1       4.588   5.611  20.006  0.00  0.00    +0.000 F 
ATOM     23  F   UNL     1       5.086   3.927  18.731  0.00  0.00    +0.000 F 
ATOM     24  F   UNL     1       6.666   5.203  19.514  0.00  0.00    +0.000 F 
ENDBRANCH  13  21
ENDBRANCH  11  13
ENDBRANCH   1  11
BRANCH   1  25
ATOM     25  C   UNL     1       1.925   5.872  17.914  0.00  0.00    +0.000 C 
BRANCH  25  26
ATOM     26  C   UNL     1       1.743   4.552  18.628  0.00  0.00    +0.000 A 
ATOM     27  C   UNL     1       1.947   3.334  17.967  0.00  0.00    +0.000 A 
ATOM     28  C   UNL     1       1.864   2.127  18.666  0.00  0.00    +0.000 A 
ATOM     29  C   UNL     1       1.572   2.126  20.029  0.00  0.00    +0.000 A 
ATOM     30  C   UNL     1       1.349   3.329  20.692  0.00  0.00    +0.000 A 
ATOM     31  C   UNL     1       1.434   4.536  19.997  0.00  0.00    +0.000 A 
ENDBRANCH  25  26
ENDBRANCH   1  25
TORSDOF 9
ENDMDL
MODEL 3
REMARK VINA RESULT:      -7.5      1.074      1.565
REMARK  Name = 
REMARK  9 active torsions:
REMARK  status: ('A' for Active; 'I' for Inactive)
REMARK    1  A    between atoms: C_2  and  C_3
REMARK    2  A    between atoms: C_3  and  N_4
REMARK    3  A    between atoms: C_5  and  C_7
REMARK    4  A    between atoms: C_7  and  C_8
REMARK    5  A    between atoms: C_7  and  N_15
REMARK    6  A    between atoms: C_8  and  C_9
REMARK    7  A    between atoms: N_15  and  C_16
REMARK    8  A    between atoms: C_16  and  C_17
REMARK    9  A    between atoms: C_16  and  C_24
REMARK                            x       y       z     vdW  Elec       q    Type
REMARK                         _______ _______ _______ _____ _____    ______ ____
ROOT
ATOM      1  C   UNL     1       2.976   6.937  18.659  0.00  0.00    +0.000 C 
ENDROOT
BRANCH   1   3
ATOM      2  N   UNL     1       1.470   8.857  19.105  0.00  0.00    +0.000 N 
ATOM      3  C   UNL     1       2.316   8.256  18.180  0.00  0.00    +0.000 C 
ATOM      4  O   UNL     1       2.501   8.726  17.059  0.00  0.00    +0.000 OA
ATOM      5  H   UNL     1       1.525   8.582  20.081  0.00  0.00    +0.000 HD
BRANCH   2   6
ATOM      6  C   UNL     1       0.810  10.106  18.800  0.00  0.00    +0.000 C 
ATOM      7  C   UNL     1      -0.465  10.520  19.523  0.00  0.00    +0.000 C 
ATOM      8  C   UNL     1      -0.542  10.026  18.115  0.00  0.00    +0.000 C 
BRANCH   6  10
ATOM      9  N   UNL     1       2.374  12.155  18.405  0.00  0.00    +0.000 NA
ATOM     10  C   UNL     1       1.708  11.212  18.556  0.00  0.00    +0.000 C 
ENDBRANCH   6  10
ENDBRANCH   2   6
ENDBRANCH   1   3
BRANCH   1  11
ATOM     11  N   UNL     1       3.633   6.204  17.549  0.00  0.00    +0.000 NA
ATOM     12  H   UNL     1       3.464   6.713  16.677  0.00  0.00    +0.000 HD
BRANCH  11  13
ATOM     13  C   UNL     1       5.107   5.985  17.666  0.00  0.00    +0.000 C 
BRANCH  13  14
ATOM     14  C   UNL     1       5.623   5.282  16.400  0.00  0.00    +0.000 A 
ATOM     15  C   UNL     1       6.895   5.565  15.874  0.00  0.00    +0.000 A 
ATOM     16  C   UNL     1       7.286   5.052  14.634  0.00  0.00    +0.000 A 
ATOM     17  C   UNL     1       6.405   4.255  13.906  0.00  0.00    +0.000 A 
ATOM     18 BR   UNL     1       6.889   3.663  12.177  0.00  0.00    +0.000 Br
ATOM     19  C   UNL     1       5.157   3.924  14.429  0.00  0.00    +0.000 A 
ATOM     20  C   UNL     1       4.769   4.429  15.673  0.00  0.00    +0.000 A 
ENDBRANCH  13  14
BRANCH  13  21
ATOM     21  C   UNL     1       5.678   5.245  18.934  0.00  0.00    +0.000 C 
ATOM     22  F   UNL     1       5.537   3.899  18.859  0.00  0.00    +0.000 F 
ATOM     23  F   UNL     1       6.987   5.485  19.168  0.00  0.00    +0.000 F 
ATOM     24  F   UNL     1       5.001   5.642  20.043  0.00  0.00    +0.000 F 
ENDBRANCH  13  21
ENDBRANCH  11  13
ENDBRANCH   1  11
BRANCH   1  25
ATOM     25  C   UNL     1       1.850   6.051  19.249  0.00  0.00    +0.000 C 
BRANCH  25  26
ATOM     26  C   UNL     1       2.048   4.556  19.138  0.00  0.00    +0.000 A 
ATOM     27  C   UNL     1       1.884   3.891  17.916  0.00  0.00    +0.000 A 
ATOM     28  C   UNL     1       2.159   2.525  17.812  0.00  0.00    +0.000 A 
ATOM     29  C   UNL     1       2.595   1.812  18.927  0.00  0.00    +0.000 A 
ATOM     30  C   UNL     1       2.744   2.459  20.150  0.00  0.00    +0.000 A 
ATOM     31  C   UNL     1       2.471   3.824  20.257  0.00  0.00    +0.000 A 
ENDBRANCH  25  26
ENDBRANCH   1  25
TORSDOF 9
ENDMDL
MODEL 4
REMARK VINA RESULT:      -7.5      0.808      1.538
REMARK  Name = 
REMARK  9 active torsions:
REMARK  status: ('A' for Active; 'I' for Inactive)
REMARK    1  A    between atoms: C_2  and  C_3
REMARK    2  A    between atoms: C_3  and  N_4
REMARK    3  A    between atoms: C_5  and  C_7
REMARK    4  A    between atoms: C_7  and  C_8
REMARK    5  A    between atoms: C_7  and  N_15
REMARK    6  A    between atoms: C_8  and  C_9
REMARK    7  A    between atoms: N_15  and  C_16
REMARK    8  A    between atoms: C_16  and  C_17
REMARK    9  A    between atoms: C_16  and  C_24
REMARK                            x       y       z     vdW  Elec       q    Type
REMARK                         _______ _______ _______ _____ _____    ______ ____
ROOT
ATOM      1  C   UNL     1       3.107   6.762  18.282  0.00  0.00    +0.000 C 
ENDROOT
BRANCH   1   3
ATOM      2  N   UNL     1       1.602   8.307  19.505  0.00  0.00    +0.000 N 
ATOM      3  C   UNL     1       2.437   8.154  18.405  0.00  0.00    +0.000 C 
ATOM      4  O   UNL     1       2.606   9.051  17.580  0.00  0.00    +0.000 OA
ATOM      5  H   UNL     1       1.671   7.651  20.277  0.00  0.00    +0.000 HD
BRANCH   2   6
ATOM      6  C   UNL     1       0.934   9.564  19.756  0.00  0.00    +0.000 C 
ATOM      7  C   UNL     1      -0.353   9.931  19.030  0.00  0.00    +0.000 C 
ATOM      8  C   UNL     1       0.931  10.583  18.632  0.00  0.00    +0.000 C 
BRANCH   6  10
ATOM      9  N   UNL     1       0.859  10.322  22.250  0.00  0.00    +0.000 NA
ATOM     10  C   UNL     1       0.942   9.978  21.141  0.00  0.00    +0.000 C 
ENDBRANCH   6  10
ENDBRANCH   2   6
ENDBRANCH   1   3
BRANCH   1  11
ATOM     11  N   UNL     1       4.043   6.688  17.133  0.00  0.00    +0.000 NA
ATOM     12  H   UNL     1       4.225   7.638  16.799  0.00  0.00    +0.000 HD
BRANCH  11  13
ATOM     13  C   UNL     1       5.365   6.036  17.380  0.00  0.00    +0.000 C 
BRANCH  13  14
ATOM     14  C   UNL     1       5.798   5.264  16.123  0.00  0.00    +0.000 A 
ATOM     15  C   UNL     1       7.054   5.480  15.530  0.00  0.00    +0.000 A 
ATOM     16  C   UNL     1       7.370   4.903  14.297  0.00  0.00    +0.000 A 
ATOM     17  C   UNL     1       6.430   4.108  13.644  0.00  0.00    +0.000 A 
ATOM     18 BR   UNL     1       6.815   3.429  11.921  0.00  0.00    +0.000 Br
ATOM     19  C   UNL     1       5.198   3.843  14.235  0.00  0.00    +0.000 A 
ATOM     20  C   UNL     1       4.884   4.412  15.473  0.00  0.00    +0.000 A 
ENDBRANCH  13  14
BRANCH  13  21
ATOM     21  C   UNL     1       5.542   5.108  18.640  0.00  0.00    +0.000 C 
ATOM     22  F   UNL     1       5.212   5.731  19.797  0.00  0.00    +0.000 F 
ATOM     23  F   UNL     1       4.815   3.970  18.592  0.00  0.00    +0.000 F 
ATOM     24  F   UNL     1       6.844   4.737  18.760  0.00  0.00    +0.000 F 
ENDBRANCH  13  21
ENDBRANCH  11  13
ENDBRANCH   1  11
BRANCH   1  25
ATOM     25  C   UNL     1       1.975   5.726  18.075  0.00  0.00    +0.000 C 
BRANCH  25  26
ATOM     26  C   UNL     1       1.868   4.632  19.114  0.00  0.00    +0.000 A 
ATOM     27  C   UNL     1       2.191   4.873  20.456  0.00  0.00    +0.000 A 
ATOM     28  C   UNL     1       2.000   3.878  21.418  0.00  0.00    +0.000 A 
ATOM     29  C   UNL     1       1.489   2.635  21.049  0.00  0.00    +0.000 A 
ATOM     30  C   UNL     1       1.183   2.380  19.715  0.00  0.00    +0.000 A 
ATOM     31  C   UNL     1       1.371   3.372  18.752  0.00  0.00    +0.000 A 
ENDBRANCH  25  26
ENDBRANCH   1  25
TORSDOF 9
ENDMDL
MODEL 5
REMARK VINA RESULT:      -7.5      3.270      5.775
REMARK  Name = 
REMARK  9 active torsions:
REMARK  status: ('A' for Active; 'I' for Inactive)
REMARK    1  A    between atoms: C_2  and  C_3
REMARK    2  A    between atoms: C_3  and  N_4
REMARK    3  A    between atoms: C_5  and  C_7
REMARK    4  A    between atoms: C_7  and  C_8
REMARK    5  A    between atoms: C_7  and  N_15
REMARK    6  A    between atoms: C_8  and  C_9
REMARK    7  A    between atoms: N_15  and  C_16
REMARK    8  A    between atoms: C_16  and  C_17
REMARK    9  A    between atoms: C_16  and  C_24
REMARK                            x       y       z     vdW  Elec       q    Type
REMARK                         _______ _______ _______ _____ _____    ______ ____
ROOT
ATOM      1  C   UNL     1       3.465   5.890  17.420  0.00  0.00    +0.000 C 
ENDROOT
BRANCH   1   3
ATOM      2  N   UNL     1       3.097   4.311  19.296  0.00  0.00    +0.000 N 
ATOM      3  C   UNL     1       3.302   4.434  17.927  0.00  0.00    +0.000 C 
ATOM      4  O   UNL     1       3.376   3.457  17.185  0.00  0.00    +0.000 OA
ATOM      5  H   UNL     1       2.807   5.124  19.831  0.00  0.00    +0.000 HD
BRANCH   2   6
ATOM      6  C   UNL     1       2.902   3.012  19.900  0.00  0.00    +0.000 C 
ATOM      7  C   UNL     1       1.780   2.090  19.440  0.00  0.00    +0.000 C 
ATOM      8  C   UNL     1       1.652   2.819  20.739  0.00  0.00    +0.000 C 
BRANCH   6  10
ATOM      9  N   UNL     1       5.072   1.663  20.423  0.00  0.00    +0.000 NA
ATOM     10  C   UNL     1       4.126   2.306  20.207  0.00  0.00    +0.000 C 
ENDBRANCH   6  10
ENDBRANCH   2   6
ENDBRANCH   1   3
BRANCH   1  11
ATOM     11  N   UNL     1       4.682   6.062  16.588  0.00  0.00    +0.000 NA
ATOM     12  H   UNL     1       4.846   7.063  16.454  0.00  0.00    +0.000 HD
BRANCH  11  13
ATOM     13  C   UNL     1       5.947   5.465  17.113  0.00  0.00    +0.000 C 
BRANCH  13  14
ATOM     14  C   UNL     1       6.905   6.588  17.543  0.00  0.00    +0.000 A 
ATOM     15  C   UNL     1       7.806   6.412  18.607  0.00  0.00    +0.000 A 
ATOM     16  C   UNL     1       8.548   7.488  19.100  0.00  0.00    +0.000 A 
ATOM     17  C   UNL     1       8.392   8.752  18.536  0.00  0.00    +0.000 A 
ATOM     18 BR   UNL     1       9.305  10.230  19.283  0.00  0.00    +0.000 Br
ATOM     19  C   UNL     1       7.539   8.940  17.450  0.00  0.00    +0.000 A 
ATOM     20  C   UNL     1       6.803   7.861  16.951  0.00  0.00    +0.000 A 
ENDBRANCH  13  14
BRANCH  13  21
ATOM     21  C   UNL     1       6.736   4.428  16.227  0.00  0.00    +0.000 C 
ATOM     22  F   UNL     1       7.114   4.945  15.032  0.00  0.00    +0.000 F 
ATOM     23  F   UNL     1       7.854   3.943  16.811  0.00  0.00    +0.000 F 
ATOM     24  F   UNL     1       5.942   3.360  15.951  0.00  0.00    +0.000 F 
ENDBRANCH  13  21
ENDBRANCH  11  13
ENDBRANCH   1  11
BRANCH   1  25
ATOM     25  C   UNL     1       3.578   6.799  18.669  0.00  0.00    +0.000 C 
BRANCH  25  26
ATOM     26  C   UNL     1       2.467   7.805  18.868  0.00  0.00    +0.000 A 
ATOM     27  C   UNL     1       1.860   7.979  20.119  0.00  0.00    +0.000 A 
ATOM     28  C   UNL     1       0.899   8.975  20.307  0.00  0.00    +0.000 A 
ATOM     29  C   UNL     1       0.532   9.803  19.247  0.00  0.00    +0.000 A 
ATOM     30  C   UNL     1       1.116   9.627  17.996  0.00  0.00    +0.000 A 
ATOM     31  C   UNL     1       2.077   8.634  17.806  0.00  0.00    +0.000 A 
ENDBRANCH  25  26
ENDBRANCH   1  25
TORSDOF 9
ENDMDL
MODEL 6
REMARK VINA RESULT:      -7.5      1.054      1.730
REMARK  Name = 
REMARK  9 active torsions:
REMARK  status: ('A' for Active; 'I' for Inactive)
REMARK    1  A    between atoms: C_2  and  C_3
REMARK    2  A    between atoms: C_3  and  N_4
REMARK    3  A    between atoms: C_5  and  C_7
REMARK    4  A    between atoms: C_7  and  C_8
REMARK    5  A    between atoms: C_7  and  N_15
REMARK    6  A    between atoms: C_8  and  C_9
REMARK    7  A    between atoms: N_15  and  C_16
REMARK    8  A    between atoms: C_16  and  C_17
REMARK    9  A    between atoms: C_16  and  C_24
REMARK                            x       y       z     vdW  Elec       q    Type
REMARK                         _______ _______ _______ _____ _____    ______ ____
ROOT
ATOM      1  C   UNL     1       3.100   7.042  18.727  0.00  0.00    +0.000 C 
ENDROOT
BRANCH   1   3
ATOM      2  N   UNL     1       1.512   8.912  19.090  0.00  0.00    +0.000 N 
ATOM      3  C   UNL     1       2.389   8.313  18.194  0.00  0.00    +0.000 C 
ATOM      4  O   UNL     1       2.563   8.748  17.057  0.00  0.00    +0.000 OA
ATOM      5  H   UNL     1       1.571   8.677  20.076  0.00  0.00    +0.000 HD
BRANCH   2   6
ATOM      6  C   UNL     1       0.802  10.120  18.734  0.00  0.00    +0.000 C 
ATOM      7  C   UNL     1      -0.562  10.437  19.331  0.00  0.00    +0.000 C 
ATOM      8  C   UNL     1      -0.467   9.962  17.918  0.00  0.00    +0.000 C 
BRANCH   6  10
ATOM      9  N   UNL     1       2.252  12.267  18.434  0.00  0.00    +0.000 NA
ATOM     10  C   UNL     1       1.644  11.286  18.590  0.00  0.00    +0.000 C 
ENDBRANCH   6  10
ENDBRANCH   2   6
ENDBRANCH   1   3
BRANCH   1  11
ATOM     11  N   UNL     1       3.682   6.225  17.633  0.00  0.00    +0.000 NA
ATOM     12  H   UNL     1       3.488   6.688  16.742  0.00  0.00    +0.000 HD
BRANCH  11  13
ATOM     13  C   UNL     1       5.152   5.963  17.696  0.00  0.00    +0.000 C 
BRANCH  13  14
ATOM     14  C   UNL     1       5.599   5.237  16.418  0.00  0.00    +0.000 A 
ATOM     15  C   UNL     1       6.839   5.512  15.817  0.00  0.00    +0.000 A 
ATOM     16  C   UNL     1       7.162   4.976  14.568  0.00  0.00    +0.000 A 
ATOM     17  C   UNL     1       6.245   4.164  13.905  0.00  0.00    +0.000 A 
ATOM     18 BR   UNL     1       6.634   3.541  12.162  0.00  0.00    +0.000 Br
ATOM     19  C   UNL     1       5.028   3.842  14.501  0.00  0.00    +0.000 A 
ATOM     20  C   UNL     1       4.708   4.370  15.755  0.00  0.00    +0.000 A 
ENDBRANCH  13  14
BRANCH  13  21
ATOM     21  C   UNL     1       5.748   5.214  18.948  0.00  0.00    +0.000 C 
ATOM     22  F   UNL     1       7.090   5.367  19.056  0.00  0.00    +0.000 F 
ATOM     23  F   UNL     1       5.217   5.605  20.127  0.00  0.00    +0.000 F 
ATOM     24  F   UNL     1       5.519   3.879  18.838  0.00  0.00    +0.000 F 
ENDBRANCH  13  21
ENDBRANCH  11  13
ENDBRANCH   1  11
BRANCH   1  25
ATOM     25  C   UNL     1       2.034   6.200  19.471  0.00  0.00    +0.000 C 
BRANCH  25  26
ATOM     26  C   UNL     1       2.148   4.699  19.330  0.00  0.00    +0.000 A 
ATOM     27  C   UNL     1       2.497   3.892  20.421  0.00  0.00    +0.000 A 
ATOM     28  C   UNL     1       2.509   2.501  20.296  0.00  0.00    +0.000 A 
ATOM     29  C   UNL     1       2.178   1.904  19.081  0.00  0.00    +0.000 A 
ATOM     30  C   UNL     1       1.848   2.697  17.985  0.00  0.00    +0.000 A 
ATOM     31  C   UNL     1       1.833   4.087  18.108  0.00  0.00    +0.000 A 
ENDBRANCH  25  26
ENDBRANCH   1  25
TORSDOF 9
ENDMDL
MODEL 7
REMARK VINA RESULT:      -7.4      3.767      6.454
REMARK  Name = 
REMARK  9 active torsions:
REMARK  status: ('A' for Active; 'I' for Inactive)
REMARK    1  A    between atoms: C_2  and  C_3
REMARK    2  A    between atoms: C_3  and  N_4
REMARK    3  A    between atoms: C_5  and  C_7
REMARK    4  A    between atoms: C_7  and  C_8
REMARK    5  A    between atoms: C_7  and  N_15
REMARK    6  A    between atoms: C_8  and  C_9
REMARK    7  A    between atoms: N_15  and  C_16
REMARK    8  A    between atoms: C_16  and  C_17
REMARK    9  A    between atoms: C_16  and  C_24
REMARK                            x       y       z     vdW  Elec       q    Type
REMARK                         _______ _______ _______ _____ _____    ______ ____
ROOT
ATOM      1  C   UNL     1       5.290   4.316  16.120  0.00  0.00    +0.000 C 
ENDROOT
BRANCH   1   3
ATOM      2  N   UNL     1       5.601   3.317  13.872  0.00  0.00    +0.000 N 
ATOM      3  C   UNL     1       5.608   4.493  14.613  0.00  0.00    +0.000 C 
ATOM      4  O   UNL     1       5.875   5.583  14.111  0.00  0.00    +0.000 OA
ATOM      5  H   UNL     1       5.152   2.491  14.254  0.00  0.00    +0.000 HD
BRANCH   2   6
ATOM      6  C   UNL     1       5.854   3.340  12.448  0.00  0.00    +0.000 C 
ATOM      7  C   UNL     1       6.992   2.533  11.838  0.00  0.00    +0.000 C 
ATOM      8  C   UNL     1       7.132   4.014  11.983  0.00  0.00    +0.000 C 
BRANCH   6  10
ATOM      9  N   UNL     1       3.749   3.405  10.911  0.00  0.00    +0.000 NA
ATOM     10  C   UNL     1       4.662   3.349  11.630  0.00  0.00    +0.000 C 
ENDBRANCH   6  10
ENDBRANCH   2   6
ENDBRANCH   1   3
BRANCH   1  11
ATOM     11  N   UNL     1       6.520   4.242  16.948  0.00  0.00    +0.000 NA
ATOM     12  H   UNL     1       7.276   4.720  16.452  0.00  0.00    +0.000 HD
BRANCH  11  13
ATOM     13  C   UNL     1       6.443   4.823  18.323  0.00  0.00    +0.000 C 
BRANCH  13  14
ATOM     14  C   UNL     1       5.288   5.835  18.388  0.00  0.00    +0.000 A 
ATOM     15  C   UNL     1       4.283   5.735  19.365  0.00  0.00    +0.000 A 
ATOM     16  C   UNL     1       3.151   6.553  19.311  0.00  0.00    +0.000 A 
ATOM     17  C   UNL     1       3.012   7.475  18.276  0.00  0.00    +0.000 A 
ATOM     18 BR   UNL     1       1.425   8.493  18.137  0.00  0.00    +0.000 Br
ATOM     19  C   UNL     1       4.017   7.623  17.323  0.00  0.00    +0.000 A 
ATOM     20  C   UNL     1       5.154   6.811  17.382  0.00  0.00    +0.000 A 
ENDBRANCH  13  14
BRANCH  13  21
ATOM     21  C   UNL     1       7.731   5.471  18.958  0.00  0.00    +0.000 C 
ATOM     22  F   UNL     1       7.560   5.798  20.262  0.00  0.00    +0.000 F 
ATOM     23  F   UNL     1       8.829   4.686  18.897  0.00  0.00    +0.000 F 
ATOM     24  F   UNL     1       8.036   6.624  18.307  0.00  0.00    +0.000 F 
ENDBRANCH  13  21
ENDBRANCH  11  13
ENDBRANCH   1  11
BRANCH   1  25
ATOM     25  C   UNL     1       4.504   2.990  16.269  0.00  0.00    +0.000 C 
BRANCH  25  26
ATOM     26  C   UNL     1       3.398   2.979  17.300  0.00  0.00    +0.000 A 
ATOM     27  C   UNL     1       2.268   3.796  17.161  0.00  0.00    +0.000 A 
ATOM     28  C   UNL     1       1.215   3.706  18.074  0.00  0.00    +0.000 A 
ATOM     29  C   UNL     1       1.281   2.805  19.135  0.00  0.00    +0.000 A 
ATOM     30  C   UNL     1       2.407   2.002  19.293  0.00  0.00    +0.000 A 
ATOM     31  C   UNL     1       3.460   2.088  18.381  0.00  0.00    +0.000 A 
ENDBRANCH  25  26
ENDBRANCH   1  25
TORSDOF 9
ENDMDL
MODEL 8
REMARK VINA RESULT:      -7.4      3.082      5.596
REMARK  Name = 
REMARK  9 active torsions:
REMARK  status: ('A' for Active; 'I' for Inactive)
REMARK    1  A    between atoms: C_2  and  C_3
REMARK    2  A    between atoms: C_3  and  N_4
REMARK    3  A    between atoms: C_5  and  C_7
REMARK    4  A    between atoms: C_7  and  C_8
REMARK    5  A    between atoms: C_7  and  N_15
REMARK    6  A    between atoms: C_8  and  C_9
REMARK    7  A    between atoms: N_15  and  C_16
REMARK    8  A    between atoms: C_16  and  C_17
REMARK    9  A    between atoms: C_16  and  C_24
REMARK                            x       y       z     vdW  Elec       q    Type
REMARK                         _______ _______ _______ _____ _____    ______ ____
ROOT
ATOM      1  C   UNL     1       2.940   5.889  17.820  0.00  0.00    +0.000 C 
ENDROOT
BRANCH   1   3
ATOM      2  N   UNL     1       2.991   4.399  19.802  0.00  0.00    +0.000 N 
ATOM      3  C   UNL     1       2.825   4.466  18.424  0.00  0.00    +0.000 C 
ATOM      4  O   UNL     1       2.630   3.464  17.738  0.00  0.00    +0.000 OA
ATOM      5  H   UNL     1       2.911   5.248  20.353  0.00  0.00    +0.000 HD
BRANCH   2   6
ATOM      6  C   UNL     1       2.881   3.138  20.500  0.00  0.00    +0.000 C 
ATOM      7  C   UNL     1       1.580   2.347  20.497  0.00  0.00    +0.000 C 
ATOM      8  C   UNL     1       1.985   3.100  21.724  0.00  0.00    +0.000 C 
BRANCH   6  10
ATOM      9  N   UNL     1       5.045   1.688  20.374  0.00  0.00    +0.000 NA
ATOM     10  C   UNL     1       4.055   2.300  20.405  0.00  0.00    +0.000 C 
ENDBRANCH   6  10
ENDBRANCH   2   6
ENDBRANCH   1   3
BRANCH   1  11
ATOM     11  N   UNL     1       4.082   6.008  16.878  0.00  0.00    +0.000 NA
ATOM     12  H   UNL     1       4.296   7.001  16.751  0.00  0.00    +0.000 HD
BRANCH  11  13
ATOM     13  C   UNL     1       5.349   5.318  17.265  0.00  0.00    +0.000 C 
BRANCH  13  14
ATOM     14  C   UNL     1       6.433   6.366  17.564  0.00  0.00    +0.000 A 
ATOM     15  C   UNL     1       7.441   6.124  18.513  0.00  0.00    +0.000 A 
ATOM     16  C   UNL     1       8.316   7.143  18.900  0.00  0.00    +0.000 A 
ATOM     17  C   UNL     1       8.188   8.414  18.346  0.00  0.00    +0.000 A 
ATOM     18 BR   UNL     1       9.293   9.820  18.961  0.00  0.00    +0.000 Br
ATOM     19  C   UNL     1       7.226   8.664  17.370  0.00  0.00    +0.000 A 
ATOM     20  C   UNL     1       6.356   7.643  16.975  0.00  0.00    +0.000 A 
ENDBRANCH  13  14
BRANCH  13  21
ATOM     21  C   UNL     1       5.948   4.216  16.312  0.00  0.00    +0.000 C 
ATOM     22  F   UNL     1       7.255   3.961  16.566  0.00  0.00    +0.000 F 
ATOM     23  F   UNL     1       5.304   3.030  16.369  0.00  0.00    +0.000 F 
ATOM     24  F   UNL     1       5.881   4.637  15.021  0.00  0.00    +0.000 F 
ENDBRANCH  13  21
ENDBRANCH  11  13
ENDBRANCH   1  11
BRANCH   1  25
ATOM     25  C   UNL     1       3.157   6.870  18.999  0.00  0.00    +0.000 C 
BRANCH  25  26
ATOM     26  C   UNL     1       2.174   8.014  19.107  0.00  0.00    +0.000 A 
ATOM     27  C   UNL     1       1.772   8.735  17.976  0.00  0.00    +0.000 A 
ATOM     28  C   UNL     1       0.795   9.728  18.081  0.00  0.00    +0.000 A 
ATOM     29  C   UNL     1       0.215  10.013  19.316  0.00  0.00    +0.000 A 
ATOM     30  C   UNL     1       0.621   9.314  20.450  0.00  0.00    +0.000 A 
ATOM     31  C   UNL     1       1.595   8.321  20.347  0.00  0.00    +0.000 A 
ENDBRANCH  25  26
ENDBRANCH   1  25
TORSDOF 9
ENDMDL
MODEL 9
REMARK VINA RESULT:      -7.4      1.100      1.391
REMARK  Name = 
REMARK  9 active torsions:
REMARK  status: ('A' for Active; 'I' for Inactive)
REMARK    1  A    between atoms: C_2  and  C_3
REMARK    2  A    between atoms: C_3  and  N_4
REMARK    3  A    between atoms: C_5  and  C_7
REMARK    4  A    between atoms: C_7  and  C_8
REMARK    5  A    between atoms: C_7  and  N_15
REMARK    6  A    between atoms: C_8  and  C_9
REMARK    7  A    between atoms: N_15  and  C_16
REMARK    8  A    between atoms: C_16  and  C_17
REMARK    9  A    between atoms: C_16  and  C_24
REMARK                            x       y       z     vdW  Elec       q    Type
REMARK                         _______ _______ _______ _____ _____    ______ ____
ROOT
ATOM      1  C   UNL     1       3.308   6.430  18.518  0.00  0.00    +0.000 C 
ENDROOT
BRANCH   1   3
ATOM      2  N   UNL     1       2.060   7.759  20.199  0.00  0.00    +0.000 N 
ATOM      3  C   UNL     1       2.284   7.547  18.844  0.00  0.00    +0.000 C 
ATOM      4  O   UNL     1       1.691   8.183  17.974  0.00  0.00    +0.000 OA
ATOM      5  H   UNL     1       2.725   7.396  20.875  0.00  0.00    +0.000 HD
BRANCH   2   6
ATOM      6  C   UNL     1       1.149   8.789  20.645  0.00  0.00    +0.000 C 
ATOM      7  C   UNL     1       0.920   9.050  22.128  0.00  0.00    +0.000 C 
ATOM      8  C   UNL     1      -0.125   8.336  21.333  0.00  0.00    +0.000 C 
BRANCH   6  10
ATOM      9  N   UNL     1       1.253  11.015  19.289  0.00  0.00    +0.000 NA
ATOM     10  C   UNL     1       1.184   9.999  19.855  0.00  0.00    +0.000 C 
ENDBRANCH   6  10
ENDBRANCH   2   6
ENDBRANCH   1   3
BRANCH   1  11
ATOM     11  N   UNL     1       4.149   6.764  17.342  0.00  0.00    +0.000 NA
ATOM     12  H   UNL     1       4.143   7.779  17.215  0.00  0.00    +0.000 HD
BRANCH  11  13
ATOM     13  C   UNL     1       5.575   6.322  17.385  0.00  0.00    +0.000 C 
BRANCH  13  14
ATOM     14  C   UNL     1       5.877   5.441  16.162  0.00  0.00    +0.000 A 
ATOM     15  C   UNL     1       7.096   5.544  15.470  0.00  0.00    +0.000 A 
ATOM     16  C   UNL     1       7.292   4.865  14.265  0.00  0.00    +0.000 A 
ATOM     17  C   UNL     1       6.268   4.082  13.737  0.00  0.00    +0.000 A 
ATOM     18 BR   UNL     1       6.492   3.263  12.047  0.00  0.00    +0.000 Br
ATOM     19  C   UNL     1       5.069   3.929  14.429  0.00  0.00    +0.000 A 
ATOM     20  C   UNL     1       4.876   4.600  15.640  0.00  0.00    +0.000 A 
ENDBRANCH  13  14
BRANCH  13  21
ATOM     21  C   UNL     1       6.123   5.610  18.679  0.00  0.00    +0.000 C 
ATOM     22  F   UNL     1       7.360   6.039  19.027  0.00  0.00    +0.000 F 
ATOM     23  F   UNL     1       5.338   5.768  19.768  0.00  0.00    +0.000 F 
ATOM     24  F   UNL     1       6.226   4.272  18.461  0.00  0.00    +0.000 F 
ENDBRANCH  13  21
ENDBRANCH  11  13
ENDBRANCH   1  11
BRANCH   1  25
ATOM     25  C   UNL     1       2.500   5.145  18.210  0.00  0.00    +0.000 C 
BRANCH  25  26
ATOM     26  C   UNL     1       2.384   4.140  19.335  0.00  0.00    +0.000 A 
ATOM     27  C   UNL     1       3.433   3.262  19.634  0.00  0.00    +0.000 A 
ATOM     28  C   UNL     1       3.345   2.404  20.733  0.00  0.00    +0.000 A 
ATOM     29  C   UNL     1       2.208   2.413  21.539  0.00  0.00    +0.000 A 
ATOM     30  C   UNL     1       1.152   3.268  21.239  0.00  0.00    +0.000 A 
ATOM     31  C   UNL     1       1.238   4.128  20.143  0.00  0.00    +0.000 A 
ENDBRANCH  25  26
ENDBRANCH   1  25
TORSDOF 9
ENDMDL
