MODEL 1
REMARK VINA RESULT:      -8.8      0.000      0.000
REMARK  Name = 
REMARK  5 active torsions:
REMARK  status: ('A' for Active; 'I' for Inactive)
REMARK    1  A    between atoms: C_1  and  C_2
REMARK    2  A    between atoms: C_6  and  N_7
REMARK    3  A    between atoms: N_7  and  C_8
REMARK    4  A    between atoms: C_14  and  C_15
REMARK    5  A    between atoms: C_16  and  C_17
REMARK                            x       y       z     vdW  Elec       q    Type
REMARK                         _______ _______ _______ _____ _____    ______ ____
ROOT
ATOM      1  C   UNL     1      -0.503  11.372  21.778  0.00  0.00    +0.000 C 
ATOM      2  C   UNL     1       0.336  10.227  21.300  0.00  0.00    +0.000 A 
ATOM      3  C   UNL     1       0.818   9.270  22.170  0.00  0.00    +0.000 A 
ATOM      4  C   UNL     1       1.562   8.222  21.639  0.00  0.00    +0.000 A 
ATOM      5  C   UNL     1       1.781   8.122  20.248  0.00  0.00    +0.000 A 
ATOM      6  C   UNL     1       2.447   7.026  19.587  0.00  0.00    +0.000 A 
ATOM      7  C   UNL     1       2.693   7.116  18.202  0.00  0.00    +0.000 A 
ATOM      8  C   UNL     1       2.062   8.158  17.550  0.00  0.00    +0.000 A 
ATOM      9  N   UNL     1       1.402   9.174  18.144  0.00  0.00    +0.000 NA
ATOM     10  C   UNL     1       1.277   9.172  19.462  0.00  0.00    +0.000 A 
ATOM     11  N   UNL     1       0.594  10.190  19.977  0.00  0.00    +0.000 NA
ENDROOT
BRANCH   7  12
ATOM     12  C   UNL     1       3.461   6.099  17.411  0.00  0.00    +0.000 C 
ATOM     13  O   UNL     1       2.834   5.105  17.037  0.00  0.00    +0.000 OA
ATOM     14  N   UNL     1       4.838   6.270  17.118  0.00  0.00    +0.000 N 
ATOM     15  C   UNL     1       5.432   5.403  16.092  0.00  0.00    +0.000 C 
ATOM     16  C   UNL     1       6.264   4.255  16.664  0.00  0.00    +0.000 C 
ATOM     17  C   UNL     1       7.658   4.647  17.146  0.00  0.00    +0.000 C 
ATOM     18  C   UNL     1       7.668   5.698  18.249  0.00  0.00    +0.000 C 
ATOM     19  C   UNL     1       7.212   7.054  17.738  0.00  0.00    +0.000 C 
ATOM     20  C   UNL     1       5.701   7.262  17.768  0.00  0.00    +0.000 C 
ENDBRANCH   7  12
BRANCH   6  21
ATOM     21  N   UNL     1       2.754   5.824  20.315  0.00  0.00    +0.000 N 
ATOM     22  H   UNL     1       3.763   5.792  20.528  0.00  0.00    +0.000 HD
BRANCH  21  23
ATOM     23  C   UNL     1       2.343   4.493  19.974  0.00  0.00    +0.000 A 
ATOM     24  C   UNL     1       0.982   4.131  19.944  0.00  0.00    +0.000 A 
ATOM     25  C   UNL     1       0.577   2.828  19.657  0.00  0.00    +0.000 A 
ATOM     26  C   UNL     1       1.529   1.868  19.347  0.00  0.00    +0.000 A 
ATOM     27  C   UNL     1       2.886   2.201  19.341  0.00  0.00    +0.000 A 
ATOM     28 CL   UNL     1       3.986   0.934  18.914  0.00  0.00    +0.000 Cl
ATOM     29  C   UNL     1       3.316   3.505  19.670  0.00  0.00    +0.000 A 
ATOM     30  C   UNL     1       4.780   3.868  19.719  0.00  0.00    +0.000 C 
ENDBRANCH  21  23
ENDBRANCH   6  21
TORSDOF 3
ENDMDL
MODEL 2
REMARK VINA RESULT:      -7.8      4.494      9.158
REMARK  Name = 
REMARK  5 active torsions:
REMARK  status: ('A' for Active; 'I' for Inactive)
REMARK    1  A    between atoms: C_1  and  C_2
REMARK    2  A    between atoms: C_6  and  N_7
REMARK    3  A    between atoms: N_7  and  C_8
REMARK    4  A    between atoms: C_14  and  C_15
REMARK    5  A    between atoms: C_16  and  C_17
REMARK                            x       y       z     vdW  Elec       q    Type
REMARK                         _______ _______ _______ _____ _____    ______ ____
ROOT
ATOM      1  C   UNL     1       3.205   6.187  18.352  0.00  0.00    +0.000 C 
ATOM      2  C   UNL     1       2.430   7.403  18.756  0.00  0.00    +0.000 A 
ATOM      3  C   UNL     1       2.017   8.339  17.830  0.00  0.00    +0.000 A 
ATOM      4  C   UNL     1       1.273   9.422  18.285  0.00  0.00    +0.000 A 
ATOM      5  C   UNL     1       0.920   9.537  19.648  0.00  0.00    +0.000 A 
ATOM      6  C   UNL     1       0.070  10.560  20.204  0.00  0.00    +0.000 A 
ATOM      7  C   UNL     1      -0.104  10.614  21.602  0.00  0.00    +0.000 A 
ATOM      8  C   UNL     1       0.377   9.527  22.306  0.00  0.00    +0.000 A 
ATOM      9  N   UNL     1       1.142   8.538  21.800  0.00  0.00    +0.000 NA
ATOM     10  C   UNL     1       1.427   8.547  20.507  0.00  0.00    +0.000 A 
ATOM     11  N   UNL     1       2.166   7.530  20.073  0.00  0.00    +0.000 NA
ENDROOT
BRANCH   7  12
ATOM     12  C   UNL     1      -0.878  11.682  22.319  0.00  0.00    +0.000 C 
ATOM     13  O   UNL     1      -1.942  11.336  22.837  0.00  0.00    +0.000 OA
ATOM     14  N   UNL     1      -0.410  13.019  22.386  0.00  0.00    +0.000 N 
ATOM     15  C   UNL     1      -1.052  13.920  23.353  0.00  0.00    +0.000 C 
ATOM     16  C   UNL     1      -2.055  14.886  22.721  0.00  0.00    +0.000 C 
ATOM     17  C   UNL     1      -1.434  16.085  22.010  0.00  0.00    +0.000 C 
ATOM     18  C   UNL     1      -0.498  15.719  20.864  0.00  0.00    +0.000 C 
ATOM     19  C   UNL     1       0.777  15.064  21.366  0.00  0.00    +0.000 C 
ATOM     20  C   UNL     1       0.676  13.554  21.558  0.00  0.00    +0.000 C 
ENDBRANCH   7  12
BRANCH   6  21
ATOM     21  N   UNL     1      -0.667  11.438  19.334  0.00  0.00    +0.000 N 
ATOM     22  H   UNL     1      -0.819  12.346  19.800  0.00  0.00    +0.000 HD
BRANCH  21  23
ATOM     23  C   UNL     1      -1.865  11.117  18.614  0.00  0.00    +0.000 A 
ATOM     24  C   UNL     1      -1.889  10.089  17.652  0.00  0.00    +0.000 A 
ATOM     25  C   UNL     1      -3.039   9.800  16.917  0.00  0.00    +0.000 A 
ATOM     26  C   UNL     1      -4.206  10.508  17.167  0.00  0.00    +0.000 A 
ATOM     27  C   UNL     1      -4.223  11.516  18.135  0.00  0.00    +0.000 A 
ATOM     28 CL   UNL     1      -5.738  12.315  18.383  0.00  0.00    +0.000 Cl
ATOM     29  C   UNL     1      -3.057  11.849  18.858  0.00  0.00    +0.000 A 
ATOM     30  C   UNL     1      -3.045  12.968  19.870  0.00  0.00    +0.000 C 
ENDBRANCH  21  23
ENDBRANCH   6  21
TORSDOF 3
ENDMDL
MODEL 3
REMARK VINA RESULT:      -7.6      5.129      8.252
REMARK  Name = 
REMARK  5 active torsions:
REMARK  status: ('A' for Active; 'I' for Inactive)
REMARK    1  A    between atoms: C_1  and  C_2
REMARK    2  A    between atoms: C_6  and  N_7
REMARK    3  A    between atoms: N_7  and  C_8
REMARK    4  A    between atoms: C_14  and  C_15
REMARK    5  A    between atoms: C_16  and  C_17
REMARK                            x       y       z     vdW  Elec       q    Type
REMARK                         _______ _______ _______ _____ _____    ______ ____
ROOT
ATOM      1  C   UNL     1       1.160  18.481  17.437  0.00  0.00    +0.000 C 
ATOM      2  C   UNL     1       0.763  17.213  18.126  0.00  0.00    +0.000 A 
ATOM      3  C   UNL     1      -0.533  16.991  18.546  0.00  0.00    +0.000 A 
ATOM      4  C   UNL     1      -0.823  15.772  19.149  0.00  0.00    +0.000 A 
ATOM      5  C   UNL     1       0.171  14.779  19.291  0.00  0.00    +0.000 A 
ATOM      6  C   UNL     1      -0.048  13.450  19.806  0.00  0.00    +0.000 A 
ATOM      7  C   UNL     1       1.062  12.603  19.995  0.00  0.00    +0.000 A 
ATOM      8  C   UNL     1       2.251  13.045  19.447  0.00  0.00    +0.000 A 
ATOM      9  N   UNL     1       2.470  14.270  18.926  0.00  0.00    +0.000 NA
ATOM     10  C   UNL     1       1.464  15.128  18.864  0.00  0.00    +0.000 A 
ATOM     11  N   UNL     1       1.745  16.307  18.317  0.00  0.00    +0.000 NA
ENDROOT
BRANCH   7  12
ATOM     12  C   UNL     1       0.991  11.237  20.614  0.00  0.00    +0.000 C 
ATOM     13  O   UNL     1       1.008  11.190  21.846  0.00  0.00    +0.000 OA
ATOM     14  N   UNL     1       0.918  10.066  19.819  0.00  0.00    +0.000 N 
ATOM     15  C   UNL     1       0.540   8.811  20.485  0.00  0.00    +0.000 C 
ATOM     16  C   UNL     1       1.724   7.883  20.763  0.00  0.00    +0.000 C 
ATOM     17  C   UNL     1       2.223   7.096  19.553  0.00  0.00    +0.000 C 
ATOM     18  C   UNL     1       2.695   7.963  18.393  0.00  0.00    +0.000 C 
ATOM     19  C   UNL     1       1.541   8.694  17.730  0.00  0.00    +0.000 C 
ATOM     20  C   UNL     1       1.186  10.029  18.378  0.00  0.00    +0.000 C 
ENDBRANCH   7  12
BRANCH   6  21
ATOM     21  N   UNL     1      -1.387  12.970  20.018  0.00  0.00    +0.000 N 
ATOM     22  H   UNL     1      -1.432  12.433  20.898  0.00  0.00    +0.000 HD
BRANCH  21  23
ATOM     23  C   UNL     1      -2.213  12.294  19.060  0.00  0.00    +0.000 A 
ATOM     24  C   UNL     1      -1.676  11.779  17.863  0.00  0.00    +0.000 A 
ATOM     25  C   UNL     1      -2.480  11.160  16.907  0.00  0.00    +0.000 A 
ATOM     26  C   UNL     1      -3.836  11.001  17.152  0.00  0.00    +0.000 A 
ATOM     27  C   UNL     1      -4.395  11.476  18.342  0.00  0.00    +0.000 A 
ATOM     28 CL   UNL     1      -6.090  11.200  18.556  0.00  0.00    +0.000 Cl
ATOM     29  C   UNL     1      -3.603  12.142  19.302  0.00  0.00    +0.000 A 
ATOM     30  C   UNL     1      -4.200  12.706  20.568  0.00  0.00    +0.000 C 
ENDBRANCH  21  23
ENDBRANCH   6  21
TORSDOF 3
ENDMDL
MODEL 4
REMARK VINA RESULT:      -7.4      4.850      9.773
REMARK  Name = 
REMARK  5 active torsions:
REMARK  status: ('A' for Active; 'I' for Inactive)
REMARK    1  A    between atoms: C_1  and  C_2
REMARK    2  A    between atoms: C_6  and  N_7
REMARK    3  A    between atoms: N_7  and  C_8
REMARK    4  A    between atoms: C_14  and  C_15
REMARK    5  A    between atoms: C_16  and  C_17
REMARK                            x       y       z     vdW  Elec       q    Type
REMARK                         _______ _______ _______ _____ _____    ______ ____
ROOT
ATOM      1  C   UNL     1       2.729   6.577  19.612  0.00  0.00    +0.000 C 
ATOM      2  C   UNL     1       1.907   7.796  19.895  0.00  0.00    +0.000 A 
ATOM      3  C   UNL     1       1.606   8.712  18.909  0.00  0.00    +0.000 A 
ATOM      4  C   UNL     1       0.809   9.800  19.250  0.00  0.00    +0.000 A 
ATOM      5  C   UNL     1       0.294   9.938  20.558  0.00  0.00    +0.000 A 
ATOM      6  C   UNL     1      -0.620  10.967  20.987  0.00  0.00    +0.000 A 
ATOM      7  C   UNL     1      -0.962  11.047  22.352  0.00  0.00    +0.000 A 
ATOM      8  C   UNL     1      -0.566   9.976  23.130  0.00  0.00    +0.000 A 
ATOM      9  N   UNL     1       0.259   8.982  22.739  0.00  0.00    +0.000 NA
ATOM     10  C   UNL     1       0.698   8.968  21.490  0.00  0.00    +0.000 A 
ATOM     11  N   UNL     1       1.486   7.947  21.168  0.00  0.00    +0.000 NA
ENDROOT
BRANCH   7  12
ATOM     12  C   UNL     1      -1.819  12.124  22.950  0.00  0.00    +0.000 C 
ATOM     13  O   UNL     1      -2.958  11.794  23.290  0.00  0.00    +0.000 OA
ATOM     14  N   UNL     1      -1.345  13.451  23.104  0.00  0.00    +0.000 N 
ATOM     15  C   UNL     1      -2.115  14.356  23.968  0.00  0.00    +0.000 C 
ATOM     16  C   UNL     1      -2.989  15.346  23.196  0.00  0.00    +0.000 C 
ATOM     17  C   UNL     1      -2.242  16.539  22.604  0.00  0.00    +0.000 C 
ATOM     18  C   UNL     1      -1.144  16.164  21.616  0.00  0.00    +0.000 C 
ATOM     19  C   UNL     1       0.024  15.481  22.306  0.00  0.00    +0.000 C 
ATOM     20  C   UNL     1      -0.133  13.971  22.463  0.00  0.00    +0.000 C 
ENDBRANCH   7  12
BRANCH   6  21
ATOM     21  N   UNL     1      -1.249  11.824  20.018  0.00  0.00    +0.000 N 
ATOM     22  H   UNL     1      -1.459  12.740  20.444  0.00  0.00    +0.000 HD
BRANCH  21  23
ATOM     23  C   UNL     1      -2.352  11.483  19.166  0.00  0.00    +0.000 A 
ATOM     24  C   UNL     1      -2.241  10.469  18.194  0.00  0.00    +0.000 A 
ATOM     25  C   UNL     1      -3.294  10.162  17.333  0.00  0.00    +0.000 A 
ATOM     26  C   UNL     1      -4.501  10.835  17.460  0.00  0.00    +0.000 A 
ATOM     27  C   UNL     1      -4.652  11.827  18.433  0.00  0.00    +0.000 A 
ATOM     28 CL   UNL     1      -6.207  12.583  18.522  0.00  0.00    +0.000 Cl
ATOM     29  C   UNL     1      -3.583  12.180  19.285  0.00  0.00    +0.000 A 
ATOM     30  C   UNL     1      -3.713  13.283  20.305  0.00  0.00    +0.000 C 
ENDBRANCH  21  23
ENDBRANCH   6  21
TORSDOF 3
ENDMDL
MODEL 5
REMARK VINA RESULT:      -7.3      5.142     10.353
REMARK  Name = 
REMARK  5 active torsions:
REMARK  status: ('A' for Active; 'I' for Inactive)
REMARK    1  A    between atoms: C_1  and  C_2
REMARK    2  A    between atoms: C_6  and  N_7
REMARK    3  A    between atoms: N_7  and  C_8
REMARK    4  A    between atoms: C_14  and  C_15
REMARK    5  A    between atoms: C_16  and  C_17
REMARK                            x       y       z     vdW  Elec       q    Type
REMARK                         _______ _______ _______ _____ _____    ______ ____
ROOT
ATOM      1  C   UNL     1       2.400   6.449  18.371  0.00  0.00    +0.000 C 
ATOM      2  C   UNL     1       2.045   7.866  18.700  0.00  0.00    +0.000 A 
ATOM      3  C   UNL     1       2.166   8.878  17.769  0.00  0.00    +0.000 A 
ATOM      4  C   UNL     1       1.783  10.160  18.147  0.00  0.00    +0.000 A 
ATOM      5  C   UNL     1       1.251  10.408  19.431  0.00  0.00    +0.000 A 
ATOM      6  C   UNL     1       0.730  11.673  19.886  0.00  0.00    +0.000 A 
ATOM      7  C   UNL     1       0.333  11.801  21.232  0.00  0.00    +0.000 A 
ATOM      8  C   UNL     1       0.262  10.622  21.948  0.00  0.00    +0.000 A 
ATOM      9  N   UNL     1       0.707   9.419  21.530  0.00  0.00    +0.000 NA
ATOM     10  C   UNL     1       1.209   9.311  20.309  0.00  0.00    +0.000 A 
ATOM     11  N   UNL     1       1.606   8.093  19.955  0.00  0.00    +0.000 NA
ENDROOT
BRANCH   7  12
ATOM     12  C   UNL     1      -0.130  13.083  21.861  0.00  0.00    +0.000 C 
ATOM     13  O   UNL     1       0.748  13.886  22.186  0.00  0.00    +0.000 OA
ATOM     14  N   UNL     1      -1.506  13.348  22.079  0.00  0.00    +0.000 N 
ATOM     15  C   UNL     1      -1.893  14.727  22.403  0.00  0.00    +0.000 C 
ATOM     16  C   UNL     1      -2.183  14.951  23.888  0.00  0.00    +0.000 C 
ATOM     17  C   UNL     1      -3.546  14.452  24.361  0.00  0.00    +0.000 C 
ATOM     18  C   UNL     1      -3.772  12.959  24.159  0.00  0.00    +0.000 C 
ATOM     19  C   UNL     1      -3.895  12.602  22.687  0.00  0.00    +0.000 C 
ATOM     20  C   UNL     1      -2.563  12.336  21.991  0.00  0.00    +0.000 C 
ENDBRANCH   7  12
BRANCH   6  21
ATOM     21  N   UNL     1       0.524  12.747  18.951  0.00  0.00    +0.000 N 
ATOM     22  H   UNL     1       0.223  12.366  18.040  0.00  0.00    +0.000 HD
BRANCH  21  23
ATOM     23  C   UNL     1       1.424  13.833  18.687  0.00  0.00    +0.000 A 
ATOM     24  C   UNL     1       2.779  13.604  18.380  0.00  0.00    +0.000 A 
ATOM     25  C   UNL     1       3.670  14.655  18.167  0.00  0.00    +0.000 A 
ATOM     26  C   UNL     1       3.208  15.962  18.209  0.00  0.00    +0.000 A 
ATOM     27  C   UNL     1       1.862  16.223  18.484  0.00  0.00    +0.000 A 
ATOM     28 CL   UNL     1       1.388  17.888  18.487  0.00  0.00    +0.000 Cl
ATOM     29  C   UNL     1       0.956  15.172  18.744  0.00  0.00    +0.000 A 
ATOM     30  C   UNL     1      -0.487  15.438  19.093  0.00  0.00    +0.000 C 
ENDBRANCH  21  23
ENDBRANCH   6  21
TORSDOF 3
ENDMDL
MODEL 6
REMARK VINA RESULT:      -7.1      6.716     10.111
REMARK  Name = 
REMARK  5 active torsions:
REMARK  status: ('A' for Active; 'I' for Inactive)
REMARK    1  A    between atoms: C_1  and  C_2
REMARK    2  A    between atoms: C_6  and  N_7
REMARK    3  A    between atoms: N_7  and  C_8
REMARK    4  A    between atoms: C_14  and  C_15
REMARK    5  A    between atoms: C_16  and  C_17
REMARK                            x       y       z     vdW  Elec       q    Type
REMARK                         _______ _______ _______ _____ _____    ______ ____
ROOT
ATOM      1  C   UNL     1       4.733  14.898  17.867  0.00  0.00    +0.000 C 
ATOM      2  C   UNL     1       3.491  14.347  18.496  0.00  0.00    +0.000 A 
ATOM      3  C   UNL     1       2.766  13.334  17.903  0.00  0.00    +0.000 A 
ATOM      4  C   UNL     1       1.643  12.858  18.571  0.00  0.00    +0.000 A 
ATOM      5  C   UNL     1       1.282  13.372  19.836  0.00  0.00    +0.000 A 
ATOM      6  C   UNL     1       0.202  12.881  20.656  0.00  0.00    +0.000 A 
ATOM      7  C   UNL     1      -0.114  13.566  21.847  0.00  0.00    +0.000 A 
ATOM      8  C   UNL     1       0.799  14.523  22.245  0.00  0.00    +0.000 A 
ATOM      9  N   UNL     1       1.839  14.972  21.511  0.00  0.00    +0.000 NA
ATOM     10  C   UNL     1       2.069  14.428  20.326  0.00  0.00    +0.000 A 
ATOM     11  N   UNL     1       3.123  14.902  19.669  0.00  0.00    +0.000 NA
ENDROOT
BRANCH   7  12
ATOM     12  C   UNL     1      -1.271  13.224  22.739  0.00  0.00    +0.000 C 
ATOM     13  O   UNL     1      -1.166  12.192  23.406  0.00  0.00    +0.000 OA
ATOM     14  N   UNL     1      -2.427  14.043  22.802  0.00  0.00    +0.000 N 
ATOM     15  C   UNL     1      -3.365  13.818  23.911  0.00  0.00    +0.000 C 
ATOM     16  C   UNL     1      -4.616  13.036  23.508  0.00  0.00    +0.000 C 
ATOM     17  C   UNL     1      -5.675  13.851  22.771  0.00  0.00    +0.000 C 
ATOM     18  C   UNL     1      -5.192  14.477  21.469  0.00  0.00    +0.000 C 
ATOM     19  C   UNL     1      -4.182  15.584  21.716  0.00  0.00    +0.000 C 
ATOM     20  C   UNL     1      -2.739  15.103  21.839  0.00  0.00    +0.000 C 
ENDBRANCH   7  12
BRANCH   6  21
ATOM     21  N   UNL     1      -0.465  11.653  20.312  0.00  0.00    +0.000 N 
ATOM     22  H   UNL     1       0.229  10.945  20.026  0.00  0.00    +0.000 HD
BRANCH  21  23
ATOM     23  C   UNL     1      -1.602  11.514  19.448  0.00  0.00    +0.000 A 
ATOM     24  C   UNL     1      -2.819  12.167  19.727  0.00  0.00    +0.000 A 
ATOM     25  C   UNL     1      -3.941  12.001  18.917  0.00  0.00    +0.000 A 
ATOM     26  C   UNL     1      -3.854  11.212  17.779  0.00  0.00    +0.000 A 
ATOM     27  C   UNL     1      -2.652  10.572  17.459  0.00  0.00    +0.000 A 
ATOM     28 CL   UNL     1      -2.647   9.635  16.004  0.00  0.00    +0.000 Cl
ATOM     29  C   UNL     1      -1.519  10.696  18.291  0.00  0.00    +0.000 A 
ATOM     30  C   UNL     1      -0.231   9.971  17.988  0.00  0.00    +0.000 C 
ENDBRANCH  21  23
ENDBRANCH   6  21
TORSDOF 3
ENDMDL
MODEL 7
REMARK VINA RESULT:      -7.0      4.633      9.777
REMARK  Name = 
REMARK  5 active torsions:
REMARK  status: ('A' for Active; 'I' for Inactive)
REMARK    1  A    between atoms: C_1  and  C_2
REMARK    2  A    between atoms: C_6  and  N_7
REMARK    3  A    between atoms: N_7  and  C_8
REMARK    4  A    between atoms: C_14  and  C_15
REMARK    5  A    between atoms: C_16  and  C_17
REMARK                            x       y       z     vdW  Elec       q    Type
REMARK                         _______ _______ _______ _____ _____    ______ ____
ROOT
ATOM      1  C   UNL     1       2.582   6.650  19.622  0.00  0.00    +0.000 C 
ATOM      2  C   UNL     1       1.804   7.891  19.933  0.00  0.00    +0.000 A 
ATOM      3  C   UNL     1       1.612   8.881  18.991  0.00  0.00    +0.000 A 
ATOM      4  C   UNL     1       0.850   9.987  19.353  0.00  0.00    +0.000 A 
ATOM      5  C   UNL     1       0.259  10.071  20.633  0.00  0.00    +0.000 A 
ATOM      6  C   UNL     1      -0.629  11.119  21.071  0.00  0.00    +0.000 A 
ATOM      7  C   UNL     1      -1.053  11.133  22.416  0.00  0.00    +0.000 A 
ATOM      8  C   UNL     1      -0.761   9.997  23.145  0.00  0.00    +0.000 A 
ATOM      9  N   UNL     1       0.037   8.986  22.742  0.00  0.00    +0.000 NA
ATOM     10  C   UNL     1       0.554   9.025  21.524  0.00  0.00    +0.000 A 
ATOM     11  N   UNL     1       1.310   7.985  21.185  0.00  0.00    +0.000 NA
ENDROOT
BRANCH   7  12
ATOM     12  C   UNL     1      -1.893  12.215  23.028  0.00  0.00    +0.000 C 
ATOM     13  O   UNL     1      -3.029  11.894  23.385  0.00  0.00    +0.000 OA
ATOM     14  N   UNL     1      -1.406  13.538  23.178  0.00  0.00    +0.000 N 
ATOM     15  C   UNL     1      -2.155  14.447  24.056  0.00  0.00    +0.000 C 
ATOM     16  C   UNL     1      -3.033  15.446  23.299  0.00  0.00    +0.000 C 
ATOM     17  C   UNL     1      -2.286  16.634  22.699  0.00  0.00    +0.000 C 
ATOM     18  C   UNL     1      -1.206  16.253  21.694  0.00  0.00    +0.000 C 
ATOM     19  C   UNL     1      -0.033  15.559  22.364  0.00  0.00    +0.000 C 
ATOM     20  C   UNL     1      -0.199  14.051  22.521  0.00  0.00    +0.000 C 
ENDBRANCH   7  12
BRANCH   6  21
ATOM     21  N   UNL     1      -1.152  12.067  20.123  0.00  0.00    +0.000 N 
ATOM     22  H   UNL     1      -0.923  13.026  20.425  0.00  0.00    +0.000 HD
BRANCH  21  23
ATOM     23  C   UNL     1      -2.481  12.089  19.584  0.00  0.00    +0.000 A 
ATOM     24  C   UNL     1      -3.545  12.691  20.283  0.00  0.00    +0.000 A 
ATOM     25  C   UNL     1      -4.848  12.677  19.787  0.00  0.00    +0.000 A 
ATOM     26  C   UNL     1      -5.104  12.100  18.552  0.00  0.00    +0.000 A 
ATOM     27  C   UNL     1      -4.065  11.518  17.820  0.00  0.00    +0.000 A 
ATOM     28 CL   UNL     1      -4.491  10.851  16.281  0.00  0.00    +0.000 Cl
ATOM     29  C   UNL     1      -2.747  11.486  18.327  0.00  0.00    +0.000 A 
ATOM     30  C   UNL     1      -1.625  10.817  17.574  0.00  0.00    +0.000 C 
ENDBRANCH  21  23
ENDBRANCH   6  21
TORSDOF 3
ENDMDL
MODEL 8
REMARK VINA RESULT:      -7.0      4.666      8.987
REMARK  Name = 
REMARK  5 active torsions:
REMARK  status: ('A' for Active; 'I' for Inactive)
REMARK    1  A    between atoms: C_1  and  C_2
REMARK    2  A    between atoms: C_6  and  N_7
REMARK    3  A    between atoms: N_7  and  C_8
REMARK    4  A    between atoms: C_14  and  C_15
REMARK    5  A    between atoms: C_16  and  C_17
REMARK                            x       y       z     vdW  Elec       q    Type
REMARK                         _______ _______ _______ _____ _____    ______ ____
ROOT
ATOM      1  C   UNL     1      -4.157  10.134  14.499  0.00  0.00    +0.000 C 
ATOM      2  C   UNL     1      -3.444  10.350  15.797  0.00  0.00    +0.000 A 
ATOM      3  C   UNL     1      -2.198   9.808  16.039  0.00  0.00    +0.000 A 
ATOM      4  C   UNL     1      -1.591  10.085  17.259  0.00  0.00    +0.000 A 
ATOM      5  C   UNL     1      -2.218  10.928  18.204  0.00  0.00    +0.000 A 
ATOM      6  C   UNL     1      -1.633  11.360  19.449  0.00  0.00    +0.000 A 
ATOM      7  C   UNL     1      -2.421  12.110  20.346  0.00  0.00    +0.000 A 
ATOM      8  C   UNL     1      -3.624  12.568  19.844  0.00  0.00    +0.000 A 
ATOM      9  N   UNL     1      -4.173  12.208  18.666  0.00  0.00    +0.000 NA
ATOM     10  C   UNL     1      -3.501  11.392  17.869  0.00  0.00    +0.000 A 
ATOM     11  N   UNL     1      -4.091  11.098  16.714  0.00  0.00    +0.000 NA
ENDROOT
BRANCH   7  12
ATOM     12  C   UNL     1      -1.974  12.538  21.713  0.00  0.00    +0.000 C 
ATOM     13  O   UNL     1      -1.981  11.671  22.590  0.00  0.00    +0.000 OA
ATOM     14  N   UNL     1      -1.575  13.871  21.981  0.00  0.00    +0.000 N 
ATOM     15  C   UNL     1      -0.865  14.133  23.240  0.00  0.00    +0.000 C 
ATOM     16  C   UNL     1      -1.744  14.765  24.321  0.00  0.00    +0.000 C 
ATOM     17  C   UNL     1      -2.001  16.260  24.149  0.00  0.00    +0.000 C 
ATOM     18  C   UNL     1      -2.692  16.632  22.844  0.00  0.00    +0.000 C 
ATOM     19  C   UNL     1      -1.784  16.416  21.645  0.00  0.00    +0.000 C 
ATOM     20  C   UNL     1      -1.817  15.001  21.077  0.00  0.00    +0.000 C 
ENDBRANCH   7  12
BRANCH   6  21
ATOM     21  N   UNL     1      -0.240  11.116  19.716  0.00  0.00    +0.000 N 
ATOM     22  H   UNL     1       0.339  11.558  18.986  0.00  0.00    +0.000 HD
BRANCH  21  23
ATOM     23  C   UNL     1       0.358   9.852  20.035  0.00  0.00    +0.000 A 
ATOM     24  C   UNL     1       0.021   9.157  21.213  0.00  0.00    +0.000 A 
ATOM     25  C   UNL     1       0.631   7.950  21.551  0.00  0.00    +0.000 A 
ATOM     26  C   UNL     1       1.560   7.388  20.689  0.00  0.00    +0.000 A 
ATOM     27  C   UNL     1       1.897   8.038  19.498  0.00  0.00    +0.000 A 
ATOM     28 CL   UNL     1       3.047   7.235  18.484  0.00  0.00    +0.000 Cl
ATOM     29  C   UNL     1       1.320   9.282  19.161  0.00  0.00    +0.000 A 
ATOM     30  C   UNL     1       1.710  10.021  17.905  0.00  0.00    +0.000 C 
ENDBRANCH  21  23
ENDBRANCH   6  21
TORSDOF 3
ENDMDL
MODEL 9
REMARK VINA RESULT:      -7.0      9.168     10.955
REMARK  Name = 
REMARK  5 active torsions:
REMARK  status: ('A' for Active; 'I' for Inactive)
REMARK    1  A    between atoms: C_1  and  C_2
REMARK    2  A    between atoms: C_6  and  N_7
REMARK    3  A    between atoms: N_7  and  C_8
REMARK    4  A    between atoms: C_14  and  C_15
REMARK    5  A    between atoms: C_16  and  C_17
REMARK                            x       y       z     vdW  Elec       q    Type
REMARK                         _______ _______ _______ _____ _____    ______ ____
ROOT
ATOM      1  C   UNL     1       5.815  12.188  26.369  0.00  0.00    +0.000 C 
ATOM      2  C   UNL     1       6.417  12.565  25.051  0.00  0.00    +0.000 A 
ATOM      3  C   UNL     1       7.034  11.632  24.243  0.00  0.00    +0.000 A 
ATOM      4  C   UNL     1       7.538  12.059  23.019  0.00  0.00    +0.000 A 
ATOM      5  C   UNL     1       7.386  13.400  22.603  0.00  0.00    +0.000 A 
ATOM      6  C   UNL     1       7.778  13.922  21.317  0.00  0.00    +0.000 A 
ATOM      7  C   UNL     1       7.668  15.307  21.082  0.00  0.00    +0.000 A 
ATOM      8  C   UNL     1       6.969  16.021  22.037  0.00  0.00    +0.000 A 
ATOM      9  N   UNL     1       6.559  15.545  23.231  0.00  0.00    +0.000 NA
ATOM     10  C   UNL     1       6.776  14.272  23.522  0.00  0.00    +0.000 A 
ATOM     11  N   UNL     1       6.325  13.865  24.705  0.00  0.00    +0.000 NA
ENDROOT
BRANCH   7  12
ATOM     12  C   UNL     1       8.131  15.994  19.831  0.00  0.00    +0.000 C 
ATOM     13  O   UNL     1       7.315  16.067  18.909  0.00  0.00    +0.000 OA
ATOM     14  N   UNL     1       9.442  16.521  19.715  0.00  0.00    +0.000 N 
ATOM     15  C   UNL     1       9.714  17.439  18.600  0.00  0.00    +0.000 C 
ATOM     16  C   UNL     1      10.468  16.788  17.439  0.00  0.00    +0.000 C 
ATOM     17  C   UNL     1      11.968  16.611  17.665  0.00  0.00    +0.000 C 
ATOM     18  C   UNL     1      12.323  15.748  18.870  0.00  0.00    +0.000 C 
ATOM     19  C   UNL     1      11.974  16.437  20.178  0.00  0.00    +0.000 C 
ATOM     20  C   UNL     1      10.537  16.216  20.641  0.00  0.00    +0.000 C 
ENDBRANCH   7  12
BRANCH   6  21
ATOM     21  N   UNL     1       8.172  13.024  20.264  0.00  0.00    +0.000 N 
ATOM     22  H   UNL     1       7.673  12.126  20.364  0.00  0.00    +0.000 HD
BRANCH  21  23
ATOM     23  C   UNL     1       9.514  12.728  19.853  0.00  0.00    +0.000 A 
ATOM     24  C   UNL     1      10.488  12.307  20.779  0.00  0.00    +0.000 A 
ATOM     25  C   UNL     1      11.806  12.060  20.395  0.00  0.00    +0.000 A 
ATOM     26  C   UNL     1      12.164  12.185  19.061  0.00  0.00    +0.000 A 
ATOM     27  C   UNL     1      11.215  12.575  18.112  0.00  0.00    +0.000 A 
ATOM     28 CL   UNL     1      11.764  12.673  16.474  0.00  0.00    +0.000 Cl
ATOM     29  C   UNL     1       9.887  12.869  18.491  0.00  0.00    +0.000 A 
ATOM     30  C   UNL     1       8.863  13.340  17.488  0.00  0.00    +0.000 C 
ENDBRANCH  21  23
ENDBRANCH   6  21
TORSDOF 3
ENDMDL
