MODEL 1
REMARK VINA RESULT:      -7.9      0.000      0.000
REMARK  Name = 
REMARK  5 active torsions:
REMARK  status: ('A' for Active; 'I' for Inactive)
REMARK    1  A    between atoms: C_1  and  C_2
REMARK    2  A    between atoms: C_3  and  N_4
REMARK    3  A    between atoms: C_5  and  C_7
REMARK    4  A    between atoms: N_16  and  C_17
REMARK    5  A    between atoms: N_23  and  C_24
REMARK                            x       y       z     vdW  Elec       q    Type
REMARK                         _______ _______ _______ _____ _____    ______ ____
ROOT
ATOM      1  C   UNL     1       2.074   5.803  20.778  0.00  0.00    +0.000 C 
ATOM      2  C   UNL     1       2.051   7.039  19.933  0.00  0.00    +0.000 A 
ATOM      3  C   UNL     1       2.604   7.320  18.735  0.00  0.00    +0.000 A 
ATOM      4  C   UNL     1       2.029   8.675  18.352  0.00  0.00    +0.000 A 
ATOM      5  O   UNL     1       2.316   9.243  17.306  0.00  0.00    +0.000 OA
ATOM      6  N   UNL     1       1.201   9.073  19.405  0.00  0.00    +0.000 N 
ATOM      7  N   UNL     1       1.297   8.123  20.439  0.00  0.00    +0.000 N 
ATOM      8  C   UNL     1       0.125   7.901  21.293  0.00  0.00    +0.000 C 
ENDROOT
BRANCH   6   9
ATOM      9  C   UNL     1       0.644  10.352  19.600  0.00  0.00    +0.000 A 
ATOM     10  C   UNL     1      -0.524  10.718  18.926  0.00  0.00    +0.000 A 
ATOM     11  C   UNL     1      -1.179  11.911  19.248  0.00  0.00    +0.000 A 
ATOM     12  C   UNL     1      -0.646  12.770  20.210  0.00  0.00    +0.000 A 
ATOM     13  C   UNL     1       0.546  12.441  20.847  0.00  0.00    +0.000 A 
ATOM     14  C   UNL     1       1.187  11.241  20.548  0.00  0.00    +0.000 A 
ENDBRANCH   6   9
BRANCH   3  15
ATOM     15  N   UNL     1       3.465   6.698  17.852  0.00  0.00    +0.000 N 
ATOM     16  C   UNL     1       4.608   5.968  18.107  0.00  0.00    +0.000 C 
ATOM     17  O   UNL     1       5.013   5.652  19.221  0.00  0.00    +0.000 OA
ATOM     18  H   UNL     1       3.199   6.847  16.877  0.00  0.00    +0.000 HD
BRANCH  16  19
ATOM     19  C   UNL     1       5.471   5.532  16.979  0.00  0.00    +0.000 A 
ATOM     20  C   UNL     1       4.948   4.539  16.128  0.00  0.00    +0.000 A 
ATOM     21  C   UNL     1       5.655   4.121  15.004  0.00  0.00    +0.000 A 
ATOM     22  C   UNL     1       6.881   4.706  14.757  0.00  0.00    +0.000 A 
ATOM     23  N   UNL     1       7.424   5.656  15.548  0.00  0.00    +0.000 NA
ATOM     24  C   UNL     1       6.708   6.053  16.635  0.00  0.00    +0.000 A 
ATOM     25 CL   UNL     1       7.502   7.313  17.491  0.00  0.00    +0.000 Cl
ENDBRANCH  16  19
ENDBRANCH   3  15
TORSDOF 3
ENDMDL
MODEL 2
REMARK VINA RESULT:      -7.8      0.314      1.034
REMARK  Name = 
REMARK  5 active torsions:
REMARK  status: ('A' for Active; 'I' for Inactive)
REMARK    1  A    between atoms: C_1  and  C_2
REMARK    2  A    between atoms: C_3  and  N_4
REMARK    3  A    between atoms: C_5  and  C_7
REMARK    4  A    between atoms: N_16  and  C_17
REMARK    5  A    between atoms: N_23  and  C_24
REMARK                            x       y       z     vdW  Elec       q    Type
REMARK                         _______ _______ _______ _____ _____    ______ ____
ROOT
ATOM      1  C   UNL     1       2.001   6.022  20.789  0.00  0.00    +0.000 C 
ATOM      2  C   UNL     1       1.994   7.235  19.911  0.00  0.00    +0.000 A 
ATOM      3  C   UNL     1       2.559   7.481  18.711  0.00  0.00    +0.000 A 
ATOM      4  C   UNL     1       1.998   8.830  18.289  0.00  0.00    +0.000 A 
ATOM      5  O   UNL     1       2.298   9.368  17.230  0.00  0.00    +0.000 OA
ATOM      6  N   UNL     1       1.164   9.261  19.323  0.00  0.00    +0.000 N 
ATOM      7  N   UNL     1       1.245   8.338  20.382  0.00  0.00    +0.000 N 
ATOM      8  C   UNL     1       0.063   8.148  21.232  0.00  0.00    +0.000 C 
ENDROOT
BRANCH   6   9
ATOM      9  C   UNL     1       0.617  10.549  19.480  0.00  0.00    +0.000 A 
ATOM     10  C   UNL     1       1.250  11.485  20.303  0.00  0.00    +0.000 A 
ATOM     11  C   UNL     1       0.816  12.814  20.323  0.00  0.00    +0.000 A 
ATOM     12  C   UNL     1      -0.284  13.207  19.560  0.00  0.00    +0.000 A 
ATOM     13  C   UNL     1      -0.957  12.271  18.782  0.00  0.00    +0.000 A 
ATOM     14  C   UNL     1      -0.510  10.952  18.738  0.00  0.00    +0.000 A 
ENDBRANCH   6   9
BRANCH   3  15
ATOM     15  N   UNL     1       3.423   6.829  17.852  0.00  0.00    +0.000 N 
ATOM     16  C   UNL     1       4.523   6.047  18.139  0.00  0.00    +0.000 C 
ATOM     17  O   UNL     1       4.874   5.702  19.263  0.00  0.00    +0.000 OA
ATOM     18  H   UNL     1       3.199   6.999  16.870  0.00  0.00    +0.000 HD
BRANCH  16  19
ATOM     19  C   UNL     1       5.405   5.583  17.037  0.00  0.00    +0.000 A 
ATOM     20  C   UNL     1       4.883   4.597  16.179  0.00  0.00    +0.000 A 
ATOM     21  C   UNL     1       5.609   4.155  15.077  0.00  0.00    +0.000 A 
ATOM     22  C   UNL     1       6.854   4.710  14.859  0.00  0.00    +0.000 A 
ATOM     23  N   UNL     1       7.398   5.653  15.658  0.00  0.00    +0.000 NA
ATOM     24  C   UNL     1       6.662   6.074  16.723  0.00  0.00    +0.000 A 
ATOM     25 CL   UNL     1       7.462   7.321  17.592  0.00  0.00    +0.000 Cl
ENDBRANCH  16  19
ENDBRANCH   3  15
TORSDOF 3
ENDMDL
MODEL 3
REMARK VINA RESULT:      -7.4      2.296      8.074
REMARK  Name = 
REMARK  5 active torsions:
REMARK  status: ('A' for Active; 'I' for Inactive)
REMARK    1  A    between atoms: C_1  and  C_2
REMARK    2  A    between atoms: C_3  and  N_4
REMARK    3  A    between atoms: C_5  and  C_7
REMARK    4  A    between atoms: N_16  and  C_17
REMARK    5  A    between atoms: N_23  and  C_24
REMARK                            x       y       z     vdW  Elec       q    Type
REMARK                         _______ _______ _______ _____ _____    ______ ____
ROOT
ATOM      1  C   UNL     1       5.962   5.265  19.392  0.00  0.00    +0.000 C 
ATOM      2  C   UNL     1       5.649   5.617  17.971  0.00  0.00    +0.000 A 
ATOM      3  C   UNL     1       4.845   6.557  17.432  0.00  0.00    +0.000 A 
ATOM      4  C   UNL     1       5.139   6.509  15.941  0.00  0.00    +0.000 A 
ATOM      5  O   UNL     1       4.582   7.242  15.134  0.00  0.00    +0.000 OA
ATOM      6  N   UNL     1       6.087   5.500  15.750  0.00  0.00    +0.000 N 
ATOM      7  N   UNL     1       6.324   4.864  16.982  0.00  0.00    +0.000 N 
ATOM      8  C   UNL     1       7.656   4.302  17.231  0.00  0.00    +0.000 C 
ENDROOT
BRANCH   6   9
ATOM      9  C   UNL     1       6.483   4.941  14.519  0.00  0.00    +0.000 A 
ATOM     10  C   UNL     1       5.754   3.888  13.962  0.00  0.00    +0.000 A 
ATOM     11  C   UNL     1       6.031   3.449  12.663  0.00  0.00    +0.000 A 
ATOM     12  C   UNL     1       7.070   4.025  11.931  0.00  0.00    +0.000 A 
ATOM     13  C   UNL     1       7.837   5.037  12.498  0.00  0.00    +0.000 A 
ATOM     14  C   UNL     1       7.547   5.495  13.782  0.00  0.00    +0.000 A 
ENDBRANCH   6   9
BRANCH   3  15
ATOM     15  N   UNL     1       3.929   7.483  17.893  0.00  0.00    +0.000 N 
ATOM     16  C   UNL     1       2.766   7.287  18.610  0.00  0.00    +0.000 C 
ATOM     17  O   UNL     1       2.386   6.213  19.064  0.00  0.00    +0.000 OA
ATOM     18  H   UNL     1       4.168   8.437  17.619  0.00  0.00    +0.000 HD
BRANCH  16  19
ATOM     19  C   UNL     1       1.848   8.429  18.851  0.00  0.00    +0.000 A 
ATOM     20  C   UNL     1       1.455   9.177  17.725  0.00  0.00    +0.000 A 
ATOM     21  C   UNL     1       0.541  10.219  17.845  0.00  0.00    +0.000 A 
ATOM     22  C   UNL     1       0.040  10.496  19.102  0.00  0.00    +0.000 A 
ATOM     23  N   UNL     1       0.392   9.812  20.211  0.00  0.00    +0.000 NA
ATOM     24  C   UNL     1       1.281   8.792  20.063  0.00  0.00    +0.000 A 
ATOM     25 CL   UNL     1       1.566   7.981  21.550  0.00  0.00    +0.000 Cl
ENDBRANCH  16  19
ENDBRANCH   3  15
TORSDOF 3
ENDMDL
MODEL 4
REMARK VINA RESULT:      -7.4      2.726      7.806
REMARK  Name = 
REMARK  5 active torsions:
REMARK  status: ('A' for Active; 'I' for Inactive)
REMARK    1  A    between atoms: C_1  and  C_2
REMARK    2  A    between atoms: C_3  and  N_4
REMARK    3  A    between atoms: C_5  and  C_7
REMARK    4  A    between atoms: N_16  and  C_17
REMARK    5  A    between atoms: N_23  and  C_24
REMARK                            x       y       z     vdW  Elec       q    Type
REMARK                         _______ _______ _______ _____ _____    ______ ____
ROOT
ATOM      1  C   UNL     1       1.426   4.799  20.706  0.00  0.00    +0.000 C 
ATOM      2  C   UNL     1       2.287   5.445  19.665  0.00  0.00    +0.000 A 
ATOM      3  C   UNL     1       2.357   6.716  19.217  0.00  0.00    +0.000 A 
ATOM      4  C   UNL     1       3.573   6.737  18.304  0.00  0.00    +0.000 A 
ATOM      5  O   UNL     1       3.943   7.748  17.719  0.00  0.00    +0.000 OA
ATOM      6  N   UNL     1       4.086   5.438  18.287  0.00  0.00    +0.000 N 
ATOM      7  N   UNL     1       3.232   4.605  19.033  0.00  0.00    +0.000 N 
ATOM      8  C   UNL     1       3.816   3.455  19.733  0.00  0.00    +0.000 C 
ENDROOT
BRANCH   6   9
ATOM      9  C   UNL     1       5.060   4.930  17.406  0.00  0.00    +0.000 A 
ATOM     10  C   UNL     1       4.688   4.475  16.138  0.00  0.00    +0.000 A 
ATOM     11  C   UNL     1       5.665   4.138  15.195  0.00  0.00    +0.000 A 
ATOM     12  C   UNL     1       7.019   4.208  15.527  0.00  0.00    +0.000 A 
ATOM     13  C   UNL     1       7.398   4.606  16.805  0.00  0.00    +0.000 A 
ATOM     14  C   UNL     1       6.428   4.967  17.739  0.00  0.00    +0.000 A 
ENDBRANCH   6   9
BRANCH   3  15
ATOM     15  N   UNL     1       1.658   7.892  19.409  0.00  0.00    +0.000 N 
ATOM     16  C   UNL     1       1.290   8.513  20.585  0.00  0.00    +0.000 C 
ATOM     17  O   UNL     1       1.626   8.156  21.710  0.00  0.00    +0.000 OA
ATOM     18  H   UNL     1       1.363   8.319  18.529  0.00  0.00    +0.000 HD
BRANCH  16  19
ATOM     19  C   UNL     1       0.389   9.693  20.545  0.00  0.00    +0.000 A 
ATOM     20  C   UNL     1       0.137  10.255  19.279  0.00  0.00    +0.000 A 
ATOM     21  C   UNL     1      -0.751  11.318  19.136  0.00  0.00    +0.000 A 
ATOM     22  C   UNL     1      -1.368  11.801  20.273  0.00  0.00    +0.000 A 
ATOM     23  N   UNL     1      -1.152  11.298  21.507  0.00  0.00    +0.000 NA
ATOM     24  C   UNL     1      -0.286  10.254  21.617  0.00  0.00    +0.000 A 
ATOM     25 CL   UNL     1      -0.179   9.688  23.235  0.00  0.00    +0.000 Cl
ENDBRANCH  16  19
ENDBRANCH   3  15
TORSDOF 3
ENDMDL
MODEL 5
REMARK VINA RESULT:      -7.2      2.407      7.749
REMARK  Name = 
REMARK  5 active torsions:
REMARK  status: ('A' for Active; 'I' for Inactive)
REMARK    1  A    between atoms: C_1  and  C_2
REMARK    2  A    between atoms: C_3  and  N_4
REMARK    3  A    between atoms: C_5  and  C_7
REMARK    4  A    between atoms: N_16  and  C_17
REMARK    5  A    between atoms: N_23  and  C_24
REMARK                            x       y       z     vdW  Elec       q    Type
REMARK                         _______ _______ _______ _____ _____    ______ ____
ROOT
ATOM      1  C   UNL     1       1.575   4.748  20.789  0.00  0.00    +0.000 C 
ATOM      2  C   UNL     1       2.377   5.414  19.714  0.00  0.00    +0.000 A 
ATOM      3  C   UNL     1       2.401   6.686  19.265  0.00  0.00    +0.000 A 
ATOM      4  C   UNL     1       3.576   6.734  18.301  0.00  0.00    +0.000 A 
ATOM      5  O   UNL     1       3.899   7.753  17.703  0.00  0.00    +0.000 OA
ATOM      6  N   UNL     1       4.115   5.445  18.258  0.00  0.00    +0.000 N 
ATOM      7  N   UNL     1       3.310   4.594  19.039  0.00  0.00    +0.000 N 
ATOM      8  C   UNL     1       3.948   3.455  19.709  0.00  0.00    +0.000 C 
ENDROOT
BRANCH   6   9
ATOM      9  C   UNL     1       5.060   4.959  17.334  0.00  0.00    +0.000 A 
ATOM     10  C   UNL     1       4.635   4.426  16.114  0.00  0.00    +0.000 A 
ATOM     11  C   UNL     1       5.568   4.108  15.121  0.00  0.00    +0.000 A 
ATOM     12  C   UNL     1       6.933   4.274  15.358  0.00  0.00    +0.000 A 
ATOM     13  C   UNL     1       7.368   4.752  16.589  0.00  0.00    +0.000 A 
ATOM     14  C   UNL     1       6.441   5.095  17.571  0.00  0.00    +0.000 A 
ENDBRANCH   6   9
BRANCH   3  15
ATOM     15  N   UNL     1       1.688   7.847  19.491  0.00  0.00    +0.000 N 
ATOM     16  C   UNL     1       1.299   8.421  20.684  0.00  0.00    +0.000 C 
ATOM     17  O   UNL     1       1.625   8.027  21.799  0.00  0.00    +0.000 OA
ATOM     18  H   UNL     1       1.400   8.303  18.624  0.00  0.00    +0.000 HD
BRANCH  16  19
ATOM     19  C   UNL     1       0.387   9.593  20.675  0.00  0.00    +0.000 A 
ATOM     20  C   UNL     1       0.058  10.151  21.925  0.00  0.00    +0.000 A 
ATOM     21  C   UNL     1      -0.731  11.295  22.010  0.00  0.00    +0.000 A 
ATOM     22  C   UNL     1      -1.182  11.856  20.832  0.00  0.00    +0.000 A 
ATOM     23  N   UNL     1      -0.898  11.353  19.612  0.00  0.00    +0.000 NA
ATOM     24  C   UNL     1      -0.118  10.240  19.558  0.00  0.00    +0.000 A 
ATOM     25 CL   UNL     1       0.207   9.773  17.937  0.00  0.00    +0.000 Cl
ENDBRANCH  16  19
ENDBRANCH   3  15
TORSDOF 3
ENDMDL
MODEL 6
REMARK VINA RESULT:      -7.1      2.667      4.410
REMARK  Name = 
REMARK  5 active torsions:
REMARK  status: ('A' for Active; 'I' for Inactive)
REMARK    1  A    between atoms: C_1  and  C_2
REMARK    2  A    between atoms: C_3  and  N_4
REMARK    3  A    between atoms: C_5  and  C_7
REMARK    4  A    between atoms: N_16  and  C_17
REMARK    5  A    between atoms: N_23  and  C_24
REMARK                            x       y       z     vdW  Elec       q    Type
REMARK                         _______ _______ _______ _____ _____    ______ ____
ROOT
ATOM      1  C   UNL     1      -1.138  10.048  17.673  0.00  0.00    +0.000 C 
ATOM      2  C   UNL     1      -0.641  10.298  19.063  0.00  0.00    +0.000 A 
ATOM      3  C   UNL     1       0.392   9.776  19.757  0.00  0.00    +0.000 A 
ATOM      4  C   UNL     1       0.459  10.604  21.031  0.00  0.00    +0.000 A 
ATOM      5  O   UNL     1       1.294  10.406  21.904  0.00  0.00    +0.000 OA
ATOM      6  N   UNL     1      -0.586  11.529  20.965  0.00  0.00    +0.000 N 
ATOM      7  N   UNL     1      -1.343  11.273  19.807  0.00  0.00    +0.000 N 
ATOM      8  C   UNL     1      -2.008  12.402  19.145  0.00  0.00    +0.000 C 
ENDROOT
BRANCH   6   9
ATOM      9  C   UNL     1      -1.057  12.342  22.015  0.00  0.00    +0.000 A 
ATOM     10  C   UNL     1      -0.411  13.545  22.313  0.00  0.00    +0.000 A 
ATOM     11  C   UNL     1      -0.975  14.439  23.228  0.00  0.00    +0.000 A 
ATOM     12  C   UNL     1      -2.161  14.117  23.889  0.00  0.00    +0.000 A 
ATOM     13  C   UNL     1      -2.781  12.898  23.641  0.00  0.00    +0.000 A 
ATOM     14  C   UNL     1      -2.237  12.016  22.709  0.00  0.00    +0.000 A 
ENDBRANCH   6   9
BRANCH   3  15
ATOM     15  N   UNL     1       1.328   8.778  19.571  0.00  0.00    +0.000 N 
ATOM     16  C   UNL     1       2.062   8.461  18.446  0.00  0.00    +0.000 C 
ATOM     17  O   UNL     1       2.077   9.108  17.404  0.00  0.00    +0.000 OA
ATOM     18  H   UNL     1       1.446   8.193  20.400  0.00  0.00    +0.000 HD
BRANCH  16  19
ATOM     19  C   UNL     1       2.894   7.230  18.432  0.00  0.00    +0.000 A 
ATOM     20  C   UNL     1       3.918   7.168  17.467  0.00  0.00    +0.000 A 
ATOM     21  C   UNL     1       4.793   6.086  17.426  0.00  0.00    +0.000 A 
ATOM     22  C   UNL     1       4.619   5.080  18.355  0.00  0.00    +0.000 A 
ATOM     23  N   UNL     1       3.648   5.093  19.293  0.00  0.00    +0.000 NA
ATOM     24  C   UNL     1       2.813   6.166  19.317  0.00  0.00    +0.000 A 
ATOM     25 CL   UNL     1       1.686   6.064  20.609  0.00  0.00    +0.000 Cl
ENDBRANCH  16  19
ENDBRANCH   3  15
TORSDOF 3
ENDMDL
MODEL 7
REMARK VINA RESULT:      -7.1      2.701      7.894
REMARK  Name = 
REMARK  5 active torsions:
REMARK  status: ('A' for Active; 'I' for Inactive)
REMARK    1  A    between atoms: C_1  and  C_2
REMARK    2  A    between atoms: C_3  and  N_4
REMARK    3  A    between atoms: C_5  and  C_7
REMARK    4  A    between atoms: N_16  and  C_17
REMARK    5  A    between atoms: N_23  and  C_24
REMARK                            x       y       z     vdW  Elec       q    Type
REMARK                         _______ _______ _______ _____ _____    ______ ____
ROOT
ATOM      1  C   UNL     1       1.527   4.973  20.672  0.00  0.00    +0.000 C 
ATOM      2  C   UNL     1       2.331   5.661  19.613  0.00  0.00    +0.000 A 
ATOM      3  C   UNL     1       2.345   6.939  19.181  0.00  0.00    +0.000 A 
ATOM      4  C   UNL     1       3.529   7.012  18.230  0.00  0.00    +0.000 A 
ATOM      5  O   UNL     1       3.846   8.042  17.647  0.00  0.00    +0.000 OA
ATOM      6  N   UNL     1       4.083   5.731  18.176  0.00  0.00    +0.000 N 
ATOM      7  N   UNL     1       3.281   4.861  18.937  0.00  0.00    +0.000 N 
ATOM      8  C   UNL     1       3.924   3.721  19.600  0.00  0.00    +0.000 C 
ENDROOT
BRANCH   6   9
ATOM      9  C   UNL     1       5.042   5.267  17.255  0.00  0.00    +0.000 A 
ATOM     10  C   UNL     1       6.402   5.325  17.571  0.00  0.00    +0.000 A 
ATOM     11  C   UNL     1       7.345   4.706  16.744  0.00  0.00    +0.000 A 
ATOM     12  C   UNL     1       6.942   4.068  15.571  0.00  0.00    +0.000 A 
ATOM     13  C   UNL     1       5.597   4.053  15.219  0.00  0.00    +0.000 A 
ATOM     14  C   UNL     1       4.651   4.645  16.054  0.00  0.00    +0.000 A 
ENDBRANCH   6   9
BRANCH   3  15
ATOM     15  N   UNL     1       1.616   8.089  19.414  0.00  0.00    +0.000 N 
ATOM     16  C   UNL     1       1.263   8.678  20.611  0.00  0.00    +0.000 C 
ATOM     17  O   UNL     1       1.642   8.313  21.719  0.00  0.00    +0.000 OA
ATOM     18  H   UNL     1       1.283   8.521  18.551  0.00  0.00    +0.000 HD
BRANCH  16  19
ATOM     19  C   UNL     1       0.325   9.829  20.618  0.00  0.00    +0.000 A 
ATOM     20  C   UNL     1       0.056  10.435  19.375  0.00  0.00    +0.000 A 
ATOM     21  C   UNL     1      -0.865  11.474  19.274  0.00  0.00    +0.000 A 
ATOM     22  C   UNL     1      -1.498  11.890  20.428  0.00  0.00    +0.000 A 
ATOM     23  N   UNL     1      -1.267  11.344  21.642  0.00  0.00    +0.000 NA
ATOM     24  C   UNL     1      -0.369  10.324  21.711  0.00  0.00    +0.000 A 
ATOM     25 CL   UNL     1      -0.246   9.696  23.304  0.00  0.00    +0.000 Cl
ENDBRANCH  16  19
ENDBRANCH   3  15
TORSDOF 3
ENDMDL
MODEL 8
REMARK VINA RESULT:      -7.0      1.551      2.000
REMARK  Name = 
REMARK  5 active torsions:
REMARK  status: ('A' for Active; 'I' for Inactive)
REMARK    1  A    between atoms: C_1  and  C_2
REMARK    2  A    between atoms: C_3  and  N_4
REMARK    3  A    between atoms: C_5  and  C_7
REMARK    4  A    between atoms: N_16  and  C_17
REMARK    5  A    between atoms: N_23  and  C_24
REMARK                            x       y       z     vdW  Elec       q    Type
REMARK                         _______ _______ _______ _____ _____    ______ ____
ROOT
ATOM      1  C   UNL     1       1.570   6.509  21.060  0.00  0.00    +0.000 C 
ATOM      2  C   UNL     1       1.674   7.649  20.095  0.00  0.00    +0.000 A 
ATOM      3  C   UNL     1       2.254   7.752  18.882  0.00  0.00    +0.000 A 
ATOM      4  C   UNL     1       1.821   9.113  18.360  0.00  0.00    +0.000 A 
ATOM      5  O   UNL     1       2.166   9.541  17.266  0.00  0.00    +0.000 OA
ATOM      6  N   UNL     1       1.037   9.696  19.359  0.00  0.00    +0.000 N 
ATOM      7  N   UNL     1       1.034   8.849  20.482  0.00  0.00    +0.000 N 
ATOM      8  C   UNL     1      -0.156   8.835  21.341  0.00  0.00    +0.000 C 
ENDROOT
BRANCH   6   9
ATOM      9  C   UNL     1       0.614  11.038  19.419  0.00  0.00    +0.000 A 
ATOM     10  C   UNL     1       1.358  11.975  20.141  0.00  0.00    +0.000 A 
ATOM     11  C   UNL     1       1.047  13.336  20.059  0.00  0.00    +0.000 A 
ATOM     12  C   UNL     1      -0.039  13.766  19.295  0.00  0.00    +0.000 A 
ATOM     13  C   UNL     1      -0.820  12.836  18.618  0.00  0.00    +0.000 A 
ATOM     14  C   UNL     1      -0.497  11.481  18.676  0.00  0.00    +0.000 A 
ENDBRANCH   6   9
BRANCH   3  15
ATOM     15  N   UNL     1       3.048   6.960  18.075  0.00  0.00    +0.000 N 
ATOM     16  C   UNL     1       4.028   6.054  18.425  0.00  0.00    +0.000 C 
ATOM     17  O   UNL     1       4.301   5.713  19.571  0.00  0.00    +0.000 OA
ATOM     18  H   UNL     1       2.874   7.117  17.081  0.00  0.00    +0.000 HD
BRANCH  16  19
ATOM     19  C   UNL     1       4.872   5.436  17.370  0.00  0.00    +0.000 A 
ATOM     20  C   UNL     1       6.007   6.161  16.960  0.00  0.00    +0.000 A 
ATOM     21  C   UNL     1       6.895   5.629  16.030  0.00  0.00    +0.000 A 
ATOM     22  C   UNL     1       6.622   4.375  15.521  0.00  0.00    +0.000 A 
ATOM     23  N   UNL     1       5.543   3.646  15.879  0.00  0.00    +0.000 NA
ATOM     24  C   UNL     1       4.697   4.186  16.797  0.00  0.00    +0.000 A 
ATOM     25 CL   UNL     1       3.421   3.107  17.195  0.00  0.00    +0.000 Cl
ENDBRANCH  16  19
ENDBRANCH   3  15
TORSDOF 3
ENDMDL
MODEL 9
REMARK VINA RESULT:      -7.0      2.368      7.682
REMARK  Name = 
REMARK  5 active torsions:
REMARK  status: ('A' for Active; 'I' for Inactive)
REMARK    1  A    between atoms: C_1  and  C_2
REMARK    2  A    between atoms: C_3  and  N_4
REMARK    3  A    between atoms: C_5  and  C_7
REMARK    4  A    between atoms: N_16  and  C_17
REMARK    5  A    between atoms: N_23  and  C_24
REMARK                            x       y       z     vdW  Elec       q    Type
REMARK                         _______ _______ _______ _____ _____    ______ ____
ROOT
ATOM      1  C   UNL     1       1.794   4.385  20.297  0.00  0.00    +0.000 C 
ATOM      2  C   UNL     1       2.618   5.157  19.313  0.00  0.00    +0.000 A 
ATOM      3  C   UNL     1       2.741   6.481  19.086  0.00  0.00    +0.000 A 
ATOM      4  C   UNL     1       3.885   6.597  18.091  0.00  0.00    +0.000 A 
ATOM      5  O   UNL     1       4.278   7.674  17.659  0.00  0.00    +0.000 OA
ATOM      6  N   UNL     1       4.305   5.295  17.806  0.00  0.00    +0.000 N 
ATOM      7  N   UNL     1       3.453   4.392  18.467  0.00  0.00    +0.000 N 
ATOM      8  C   UNL     1       4.007   3.106  18.906  0.00  0.00    +0.000 C 
ENDROOT
BRANCH   6   9
ATOM      9  C   UNL     1       5.174   4.899  16.771  0.00  0.00    +0.000 A 
ATOM     10  C   UNL     1       4.655   4.488  15.540  0.00  0.00    +0.000 A 
ATOM     11  C   UNL     1       5.508   4.266  14.454  0.00  0.00    +0.000 A 
ATOM     12  C   UNL     1       6.888   4.407  14.602  0.00  0.00    +0.000 A 
ATOM     13  C   UNL     1       7.419   4.761  15.838  0.00  0.00    +0.000 A 
ATOM     14  C   UNL     1       6.570   5.009  16.916  0.00  0.00    +0.000 A 
ENDBRANCH   6   9
BRANCH   3  15
ATOM     15  N   UNL     1       2.141   7.641  19.536  0.00  0.00    +0.000 N 
ATOM     16  C   UNL     1       1.474   8.618  18.826  0.00  0.00    +0.000 C 
ATOM     17  O   UNL     1       1.204   8.566  17.630  0.00  0.00    +0.000 OA
ATOM     18  H   UNL     1       2.253   7.772  20.543  0.00  0.00    +0.000 HD
BRANCH  16  19
ATOM     19  C   UNL     1       1.054   9.868  19.509  0.00  0.00    +0.000 A 
ATOM     20  C   UNL     1       1.390  11.080  18.876  0.00  0.00    +0.000 A 
ATOM     21  C   UNL     1       0.975  12.299  19.405  0.00  0.00    +0.000 A 
ATOM     22  C   UNL     1       0.231  12.278  20.568  0.00  0.00    +0.000 A 
ATOM     23  N   UNL     1      -0.110  11.142  21.213  0.00  0.00    +0.000 NA
ATOM     24  C   UNL     1       0.301   9.964  20.669  0.00  0.00    +0.000 A 
ATOM     25 CL   UNL     1      -0.274   8.617  21.567  0.00  0.00    +0.000 Cl
ENDBRANCH  16  19
ENDBRANCH   3  15
TORSDOF 3
ENDMDL
