MODEL 1
REMARK VINA RESULT:      -6.8      0.000      0.000
REMARK  Name = 
REMARK  7 active torsions:
REMARK  status: ('A' for Active; 'I' for Inactive)
REMARK    1  A    between atoms: C_2  and  C_3
REMARK    2  A    between atoms: C_3  and  O_4
REMARK    3  A    between atoms: O_4  and  C_5
REMARK    4  A    between atoms: C_5  and  O_6
REMARK    5  A    between atoms: O_6  and  N_7
REMARK    6  A    between atoms: C_10  and  C_11
REMARK    7  A    between atoms: C_12  and  C_13
REMARK                            x       y       z     vdW  Elec       q    Type
REMARK                         _______ _______ _______ _____ _____    ______ ____
ROOT
ATOM      1  N   UNL     1       3.249   5.421  17.762  0.00  0.00    +0.000 NA
ATOM      2  C   UNL     1       4.490   5.480  17.358  0.00  0.00    +0.000 C 
ATOM      3  C   UNL     1       5.282   6.687  17.691  0.00  0.00    +0.000 C 
ATOM      4  C   UNL     1       6.561   6.789  17.320  0.00  0.00    +0.000 C 
ATOM      5  C   UNL     1       7.328   5.740  16.570  0.00  0.00    +0.000 C 
ATOM      6  C   UNL     1       6.598   4.458  16.209  0.00  0.00    +0.000 C 
ATOM      7  C   UNL     1       5.129   4.353  16.566  0.00  0.00    +0.000 C 
ENDROOT
BRANCH   4   8
ATOM      8  C   UNL     1       7.361   8.034  17.665  0.00  0.00    +0.000 C 
ATOM      9  C   UNL     1       8.047   9.102  17.962  0.00  0.00    +0.000 C 
BRANCH   9  10
ATOM     10  C   UNL     1       8.798  10.270  18.295  0.00  0.00    +0.000 A 
ATOM     11  C   UNL     1       9.741  10.252  19.311  0.00  0.00    +0.000 A 
ATOM     12  C   UNL     1      10.424  11.431  19.595  0.00  0.00    +0.000 A 
ATOM     13  C   UNL     1      10.144  12.575  18.853  0.00  0.00    +0.000 A 
ATOM     14  C   UNL     1       9.189  12.489  17.851  0.00  0.00    +0.000 A 
ATOM     15  N   UNL     1       8.507  11.361  17.555  0.00  0.00    +0.000 NA
ENDBRANCH   9  10
ENDBRANCH   4   8
BRANCH   1  16
ATOM     16  O   UNL     1       2.635   4.261  17.258  0.00  0.00    +0.000 OA
BRANCH  16  17
ATOM     17  C   UNL     1       1.459   3.951  17.998  0.00  0.00    +0.000 C 
BRANCH  17  18
ATOM     18  O   UNL     1       1.283   2.533  18.114  0.00  0.00    +0.000 OA
BRANCH  18  19
ATOM     19  C   UNL     1       1.852   2.029  19.321  0.00  0.00    +0.000 C 
BRANCH  19  21
ATOM     20  F   UNL     1       0.832   2.714  21.323  0.00  0.00    +0.000 F 
ATOM     21  C   UNL     1       1.771   3.082  20.411  0.00  0.00    +0.000 C 
ENDBRANCH  19  21
ENDBRANCH  18  19
ENDBRANCH  17  18
ENDBRANCH  16  17
ENDBRANCH   1  16
TORSDOF 7
ENDMDL
MODEL 2
REMARK VINA RESULT:      -6.7      4.836      7.027
REMARK  Name = 
REMARK  7 active torsions:
REMARK  status: ('A' for Active; 'I' for Inactive)
REMARK    1  A    between atoms: C_2  and  C_3
REMARK    2  A    between atoms: C_3  and  O_4
REMARK    3  A    between atoms: O_4  and  C_5
REMARK    4  A    between atoms: C_5  and  O_6
REMARK    5  A    between atoms: O_6  and  N_7
REMARK    6  A    between atoms: C_10  and  C_11
REMARK    7  A    between atoms: C_12  and  C_13
REMARK                            x       y       z     vdW  Elec       q    Type
REMARK                         _______ _______ _______ _____ _____    ______ ____
ROOT
ATOM      1  N   UNL     1       4.525   5.278  16.703  0.00  0.00    +0.000 NA
ATOM      2  C   UNL     1       3.957   5.086  17.865  0.00  0.00    +0.000 C 
ATOM      3  C   UNL     1       3.237   6.219  18.491  0.00  0.00    +0.000 C 
ATOM      4  C   UNL     1       2.622   6.069  19.668  0.00  0.00    +0.000 C 
ATOM      5  C   UNL     1       2.569   4.795  20.458  0.00  0.00    +0.000 C 
ATOM      6  C   UNL     1       3.261   3.576  19.875  0.00  0.00    +0.000 C 
ATOM      7  C   UNL     1       4.019   3.744  18.573  0.00  0.00    +0.000 C 
ENDROOT
BRANCH   4   8
ATOM      8  C   UNL     1       1.890   7.240  20.302  0.00  0.00    +0.000 C 
ATOM      9  C   UNL     1       1.262   8.244  20.847  0.00  0.00    +0.000 C 
BRANCH   9  10
ATOM     10  C   UNL     1       0.580   9.346  21.447  0.00  0.00    +0.000 A 
ATOM     11  C   UNL     1      -0.205   9.176  22.577  0.00  0.00    +0.000 A 
ATOM     12  C   UNL     1      -0.857  10.289  23.099  0.00  0.00    +0.000 A 
ATOM     13  C   UNL     1      -0.696  11.524  22.478  0.00  0.00    +0.000 A 
ATOM     14  C   UNL     1       0.117  11.594  21.357  0.00  0.00    +0.000 A 
ATOM     15  N   UNL     1       0.760  10.531  20.825  0.00  0.00    +0.000 NA
ENDBRANCH   9  10
ENDBRANCH   4   8
BRANCH   1  16
ATOM     16  O   UNL     1       5.247   4.133  16.327  0.00  0.00    +0.000 OA
BRANCH  16  17
ATOM     17  C   UNL     1       6.607   4.459  16.059  0.00  0.00    +0.000 C 
BRANCH  17  18
ATOM     18  O   UNL     1       7.383   4.460  17.264  0.00  0.00    +0.000 OA
BRANCH  18  19
ATOM     19  C   UNL     1       7.591   5.783  17.755  0.00  0.00    +0.000 C 
BRANCH  19  21
ATOM     20  F   UNL     1       6.523   5.559  19.835  0.00  0.00    +0.000 F 
ATOM     21  C   UNL     1       7.742   5.756  19.266  0.00  0.00    +0.000 C 
ENDBRANCH  19  21
ENDBRANCH  18  19
ENDBRANCH  17  18
ENDBRANCH  16  17
ENDBRANCH   1  16
TORSDOF 7
ENDMDL
MODEL 3
REMARK VINA RESULT:      -6.7      1.814      2.021
REMARK  Name = 
REMARK  7 active torsions:
REMARK  status: ('A' for Active; 'I' for Inactive)
REMARK    1  A    between atoms: C_2  and  C_3
REMARK    2  A    between atoms: C_3  and  O_4
REMARK    3  A    between atoms: O_4  and  C_5
REMARK    4  A    between atoms: C_5  and  O_6
REMARK    5  A    between atoms: O_6  and  N_7
REMARK    6  A    between atoms: C_10  and  C_11
REMARK    7  A    between atoms: C_12  and  C_13
REMARK                            x       y       z     vdW  Elec       q    Type
REMARK                         _______ _______ _______ _____ _____    ______ ____
ROOT
ATOM      1  N   UNL     1       5.622   3.958  19.358  0.00  0.00    +0.000 NA
ATOM      2  C   UNL     1       6.037   4.740  18.396  0.00  0.00    +0.000 C 
ATOM      3  C   UNL     1       6.790   5.963  18.759  0.00  0.00    +0.000 C 
ATOM      4  C   UNL     1       7.253   6.784  17.813  0.00  0.00    +0.000 C 
ATOM      5  C   UNL     1       7.096   6.576  16.336  0.00  0.00    +0.000 C 
ATOM      6  C   UNL     1       6.357   5.332  15.875  0.00  0.00    +0.000 C 
ATOM      7  C   UNL     1       5.768   4.423  16.935  0.00  0.00    +0.000 C 
ENDROOT
BRANCH   4   8
ATOM      8  C   UNL     1       8.022   8.038  18.199  0.00  0.00    +0.000 C 
ATOM      9  C   UNL     1       8.681   9.113  18.529  0.00  0.00    +0.000 C 
BRANCH   9  10
ATOM     10  C   UNL     1       9.402  10.294  18.884  0.00  0.00    +0.000 A 
ATOM     11  C   UNL     1       9.543  10.678  20.209  0.00  0.00    +0.000 A 
ATOM     12  C   UNL     1      10.241  11.850  20.483  0.00  0.00    +0.000 A 
ATOM     13  C   UNL     1      10.773  12.586  19.429  0.00  0.00    +0.000 A 
ATOM     14  C   UNL     1      10.586  12.115  18.138  0.00  0.00    +0.000 A 
ATOM     15  N   UNL     1       9.909  10.984  17.840  0.00  0.00    +0.000 NA
ENDBRANCH   9  10
ENDBRANCH   4   8
BRANCH   1  16
ATOM     16  O   UNL     1       4.839   2.919  18.827  0.00  0.00    +0.000 OA
BRANCH  16  17
ATOM     17  C   UNL     1       3.775   2.587  19.713  0.00  0.00    +0.000 C 
BRANCH  17  18
ATOM     18  O   UNL     1       2.608   2.180  18.987  0.00  0.00    +0.000 OA
BRANCH  18  19
ATOM     19  C   UNL     1       1.614   3.203  18.971  0.00  0.00    +0.000 C 
BRANCH  19  21
ATOM     20  F   UNL     1       2.432   3.388  16.778  0.00  0.00    +0.000 F 
ATOM     21  C   UNL     1       1.807   4.094  17.757  0.00  0.00    +0.000 C 
ENDBRANCH  19  21
ENDBRANCH  18  19
ENDBRANCH  17  18
ENDBRANCH  16  17
ENDBRANCH   1  16
TORSDOF 7
ENDMDL
MODEL 4
REMARK VINA RESULT:      -6.7      4.940      7.093
REMARK  Name = 
REMARK  7 active torsions:
REMARK  status: ('A' for Active; 'I' for Inactive)
REMARK    1  A    between atoms: C_2  and  C_3
REMARK    2  A    between atoms: C_3  and  O_4
REMARK    3  A    between atoms: O_4  and  C_5
REMARK    4  A    between atoms: C_5  and  O_6
REMARK    5  A    between atoms: O_6  and  N_7
REMARK    6  A    between atoms: C_10  and  C_11
REMARK    7  A    between atoms: C_12  and  C_13
REMARK                            x       y       z     vdW  Elec       q    Type
REMARK                         _______ _______ _______ _____ _____    ______ ____
ROOT
ATOM      1  N   UNL     1       4.739   5.794  16.498  0.00  0.00    +0.000 NA
ATOM      2  C   UNL     1       4.056   5.505  17.574  0.00  0.00    +0.000 C 
ATOM      3  C   UNL     1       3.333   6.598  18.265  0.00  0.00    +0.000 C 
ATOM      4  C   UNL     1       2.604   6.351  19.356  0.00  0.00    +0.000 C 
ATOM      5  C   UNL     1       2.416   5.001  19.982  0.00  0.00    +0.000 C 
ATOM      6  C   UNL     1       3.103   3.818  19.322  0.00  0.00    +0.000 C 
ATOM      7  C   UNL     1       3.987   4.089  18.121  0.00  0.00    +0.000 C 
ENDROOT
BRANCH   4   8
ATOM      8  C   UNL     1       1.870   7.483  20.057  0.00  0.00    +0.000 C 
ATOM      9  C   UNL     1       1.239   8.453  20.658  0.00  0.00    +0.000 C 
BRANCH   9  10
ATOM     10  C   UNL     1       0.544   9.511  21.318  0.00  0.00    +0.000 A 
ATOM     11  C   UNL     1       0.542  10.799  20.805  0.00  0.00    +0.000 A 
ATOM     12  C   UNL     1      -0.140  11.786  21.510  0.00  0.00    +0.000 A 
ATOM     13  C   UNL     1      -0.794  11.450  22.691  0.00  0.00    +0.000 A 
ATOM     14  C   UNL     1      -0.741  10.131  23.118  0.00  0.00    +0.000 A 
ATOM     15  N   UNL     1      -0.085   9.152  22.459  0.00  0.00    +0.000 NA
ENDBRANCH   9  10
ENDBRANCH   4   8
BRANCH   1  16
ATOM     16  O   UNL     1       5.439   4.660  16.054  0.00  0.00    +0.000 OA
BRANCH  16  17
ATOM     17  C   UNL     1       6.777   4.998  15.704  0.00  0.00    +0.000 C 
BRANCH  17  18
ATOM     18  O   UNL     1       7.432   5.687  16.777  0.00  0.00    +0.000 OA
BRANCH  18  19
ATOM     19  C   UNL     1       7.698   4.816  17.876  0.00  0.00    +0.000 C 
BRANCH  19  21
ATOM     20  F   UNL     1       6.511   5.652  19.722  0.00  0.00    +0.000 F 
ATOM     21  C   UNL     1       7.751   5.614  19.166  0.00  0.00    +0.000 C 
ENDBRANCH  19  21
ENDBRANCH  18  19
ENDBRANCH  17  18
ENDBRANCH  16  17
ENDBRANCH   1  16
TORSDOF 7
ENDMDL
MODEL 5
REMARK VINA RESULT:      -6.6      0.935      1.166
REMARK  Name = 
REMARK  7 active torsions:
REMARK  status: ('A' for Active; 'I' for Inactive)
REMARK    1  A    between atoms: C_2  and  C_3
REMARK    2  A    between atoms: C_3  and  O_4
REMARK    3  A    between atoms: O_4  and  C_5
REMARK    4  A    between atoms: C_5  and  O_6
REMARK    5  A    between atoms: O_6  and  N_7
REMARK    6  A    between atoms: C_10  and  C_11
REMARK    7  A    between atoms: C_12  and  C_13
REMARK                            x       y       z     vdW  Elec       q    Type
REMARK                         _______ _______ _______ _____ _____    ______ ____
ROOT
ATOM      1  N   UNL     1       3.639   5.052  18.027  0.00  0.00    +0.000 NA
ATOM      2  C   UNL     1       4.764   5.295  17.406  0.00  0.00    +0.000 C 
ATOM      3  C   UNL     1       5.580   6.447  17.854  0.00  0.00    +0.000 C 
ATOM      4  C   UNL     1       6.747   6.726  17.267  0.00  0.00    +0.000 C 
ATOM      5  C   UNL     1       7.361   5.937  16.148  0.00  0.00    +0.000 C 
ATOM      6  C   UNL     1       6.601   4.723  15.644  0.00  0.00    +0.000 C 
ATOM      7  C   UNL     1       5.244   4.430  16.254  0.00  0.00    +0.000 C 
ENDROOT
BRANCH   4   8
ATOM      8  C   UNL     1       7.574   7.913  17.734  0.00  0.00    +0.000 C 
ATOM      9  C   UNL     1       8.283   8.931  18.135  0.00  0.00    +0.000 C 
BRANCH   9  10
ATOM     10  C   UNL     1       9.064  10.041  18.577  0.00  0.00    +0.000 A 
ATOM     11  C   UNL     1       9.702  10.876  17.672  0.00  0.00    +0.000 A 
ATOM     12  C   UNL     1      10.464  11.928  18.171  0.00  0.00    +0.000 A 
ATOM     13  C   UNL     1      10.553  12.108  19.548  0.00  0.00    +0.000 A 
ATOM     14  C   UNL     1       9.872  11.225  20.372  0.00  0.00    +0.000 A 
ATOM     15  N   UNL     1       9.128  10.192  19.917  0.00  0.00    +0.000 NA
ENDBRANCH   9  10
ENDBRANCH   4   8
BRANCH   1  16
ATOM     16  O   UNL     1       2.959   3.998  17.392  0.00  0.00    +0.000 OA
BRANCH  16  17
ATOM     17  C   UNL     1       1.595   3.961  17.800  0.00  0.00    +0.000 C 
BRANCH  17  18
ATOM     18  O   UNL     1       1.334   2.812  18.617  0.00  0.00    +0.000 OA
BRANCH  18  19
ATOM     19  C   UNL     1       0.729   3.174  19.857  0.00  0.00    +0.000 C 
BRANCH  19  21
ATOM     20  F   UNL     1       1.616   2.386  21.884  0.00  0.00    +0.000 F 
ATOM     21  C   UNL     1       1.795   3.333  20.925  0.00  0.00    +0.000 C 
ENDBRANCH  19  21
ENDBRANCH  18  19
ENDBRANCH  17  18
ENDBRANCH  16  17
ENDBRANCH   1  16
TORSDOF 7
ENDMDL
MODEL 6
REMARK VINA RESULT:      -6.6      1.726      1.902
REMARK  Name = 
REMARK  7 active torsions:
REMARK  status: ('A' for Active; 'I' for Inactive)
REMARK    1  A    between atoms: C_2  and  C_3
REMARK    2  A    between atoms: C_3  and  O_4
REMARK    3  A    between atoms: O_4  and  C_5
REMARK    4  A    between atoms: C_5  and  O_6
REMARK    5  A    between atoms: O_6  and  N_7
REMARK    6  A    between atoms: C_10  and  C_11
REMARK    7  A    between atoms: C_12  and  C_13
REMARK                            x       y       z     vdW  Elec       q    Type
REMARK                         _______ _______ _______ _____ _____    ______ ____
ROOT
ATOM      1  N   UNL     1       5.432   3.937  19.138  0.00  0.00    +0.000 NA
ATOM      2  C   UNL     1       5.938   4.689  18.196  0.00  0.00    +0.000 C 
ATOM      3  C   UNL     1       6.664   5.918  18.592  0.00  0.00    +0.000 C 
ATOM      4  C   UNL     1       7.218   6.710  17.669  0.00  0.00    +0.000 C 
ATOM      5  C   UNL     1       7.193   6.461  16.190  0.00  0.00    +0.000 C 
ATOM      6  C   UNL     1       6.490   5.208  15.699  0.00  0.00    +0.000 C 
ATOM      7  C   UNL     1       5.800   4.332  16.726  0.00  0.00    +0.000 C 
ENDROOT
BRANCH   4   8
ATOM      8  C   UNL     1       7.957   7.970  18.088  0.00  0.00    +0.000 C 
ATOM      9  C   UNL     1       8.591   9.052  18.446  0.00  0.00    +0.000 C 
BRANCH   9  10
ATOM     10  C   UNL     1       9.282  10.240  18.834  0.00  0.00    +0.000 A 
ATOM     11  C   UNL     1       9.873  11.067  17.891  0.00  0.00    +0.000 A 
ATOM     12  C   UNL     1      10.547  12.199  18.340  0.00  0.00    +0.000 A 
ATOM     13  C   UNL     1      10.600  12.462  19.705  0.00  0.00    +0.000 A 
ATOM     14  C   UNL     1       9.971  11.578  20.569  0.00  0.00    +0.000 A 
ATOM     15  N   UNL     1       9.312  10.470  20.164  0.00  0.00    +0.000 NA
ENDBRANCH   9  10
ENDBRANCH   4   8
BRANCH   1  16
ATOM     16  O   UNL     1       4.692   2.887  18.567  0.00  0.00    +0.000 OA
BRANCH  16  17
ATOM     17  C   UNL     1       3.406   2.791  19.171  0.00  0.00    +0.000 C 
BRANCH  17  18
ATOM     18  O   UNL     1       3.374   3.483  20.426  0.00  0.00    +0.000 OA
BRANCH  18  19
ATOM     19  C   UNL     1       2.096   4.071  20.670  0.00  0.00    +0.000 C 
BRANCH  19  21
ATOM     20  F   UNL     1       1.667   2.165  21.973  0.00  0.00    +0.000 F 
ATOM     21  C   UNL     1       1.098   2.996  21.059  0.00  0.00    +0.000 C 
ENDBRANCH  19  21
ENDBRANCH  18  19
ENDBRANCH  17  18
ENDBRANCH  16  17
ENDBRANCH   1  16
TORSDOF 7
ENDMDL
MODEL 7
REMARK VINA RESULT:      -6.6      5.400      6.908
REMARK  Name = 
REMARK  7 active torsions:
REMARK  status: ('A' for Active; 'I' for Inactive)
REMARK    1  A    between atoms: C_2  and  C_3
REMARK    2  A    between atoms: C_3  and  O_4
REMARK    3  A    between atoms: O_4  and  C_5
REMARK    4  A    between atoms: C_5  and  O_6
REMARK    5  A    between atoms: O_6  and  N_7
REMARK    6  A    between atoms: C_10  and  C_11
REMARK    7  A    between atoms: C_12  and  C_13
REMARK                            x       y       z     vdW  Elec       q    Type
REMARK                         _______ _______ _______ _____ _____    ______ ____
ROOT
ATOM      1  N   UNL     1       2.112   7.457  19.887  0.00  0.00    +0.000 NA
ATOM      2  C   UNL     1       2.561   6.268  19.581  0.00  0.00    +0.000 C 
ATOM      3  C   UNL     1       3.319   6.106  18.319  0.00  0.00    +0.000 C 
ATOM      4  C   UNL     1       3.818   4.916  17.970  0.00  0.00    +0.000 C 
ATOM      5  C   UNL     1       3.696   3.659  18.779  0.00  0.00    +0.000 C 
ATOM      6  C   UNL     1       2.954   3.742  20.102  0.00  0.00    +0.000 C 
ATOM      7  C   UNL     1       2.326   5.068  20.482  0.00  0.00    +0.000 C 
ENDROOT
BRANCH   4   8
ATOM      8  C   UNL     1       4.591   4.762  16.671  0.00  0.00    +0.000 C 
ATOM      9  C   UNL     1       5.253   4.630  15.556  0.00  0.00    +0.000 C 
BRANCH   9  10
ATOM     10  C   UNL     1       5.976   4.492  14.332  0.00  0.00    +0.000 A 
ATOM     11  C   UNL     1       5.565   3.601  13.352  0.00  0.00    +0.000 A 
ATOM     12  C   UNL     1       6.328   3.503  12.192  0.00  0.00    +0.000 A 
ATOM     13  C   UNL     1       7.462   4.297  12.054  0.00  0.00    +0.000 A 
ATOM     14  C   UNL     1       7.786   5.163  13.087  0.00  0.00    +0.000 A 
ATOM     15  N   UNL     1       7.069   5.278  14.227  0.00  0.00    +0.000 NA
ENDBRANCH   9  10
ENDBRANCH   4   8
BRANCH   1  16
ATOM     16  O   UNL     1       1.330   7.389  21.052  0.00  0.00    +0.000 OA
BRANCH  16  17
ATOM     17  C   UNL     1       0.606   8.600  21.244  0.00  0.00    +0.000 C 
BRANCH  17  18
ATOM     18  O   UNL     1       0.857   9.524  20.177  0.00  0.00    +0.000 OA
BRANCH  18  19
ATOM     19  C   UNL     1      -0.348  10.132  19.713  0.00  0.00    +0.000 C 
BRANCH  19  21
ATOM     20  F   UNL     1       0.463   9.271  17.684  0.00  0.00    +0.000 F 
ATOM     21  C   UNL     1      -0.312  10.262  18.201  0.00  0.00    +0.000 C 
ENDBRANCH  19  21
ENDBRANCH  18  19
ENDBRANCH  17  18
ENDBRANCH  16  17
ENDBRANCH   1  16
TORSDOF 7
ENDMDL
MODEL 8
REMARK VINA RESULT:      -6.6      3.654      4.572
REMARK  Name = 
REMARK  7 active torsions:
REMARK  status: ('A' for Active; 'I' for Inactive)
REMARK    1  A    between atoms: C_2  and  C_3
REMARK    2  A    between atoms: C_3  and  O_4
REMARK    3  A    between atoms: O_4  and  C_5
REMARK    4  A    between atoms: C_5  and  O_6
REMARK    5  A    between atoms: O_6  and  N_7
REMARK    6  A    between atoms: C_10  and  C_11
REMARK    7  A    between atoms: C_12  and  C_13
REMARK                            x       y       z     vdW  Elec       q    Type
REMARK                         _______ _______ _______ _____ _____    ______ ____
ROOT
ATOM      1  N   UNL     1       5.641   5.754  15.548  0.00  0.00    +0.000 NA
ATOM      2  C   UNL     1       6.385   5.909  16.612  0.00  0.00    +0.000 C 
ATOM      3  C   UNL     1       7.010   7.231  16.845  0.00  0.00    +0.000 C 
ATOM      4  C   UNL     1       7.762   7.449  17.928  0.00  0.00    +0.000 C 
ATOM      5  C   UNL     1       8.042   6.439  19.002  0.00  0.00    +0.000 C 
ATOM      6  C   UNL     1       7.417   5.062  18.853  0.00  0.00    +0.000 C 
ATOM      7  C   UNL     1       6.615   4.778  17.599  0.00  0.00    +0.000 C 
ENDROOT
BRANCH   4   8
ATOM      8  C   UNL     1       8.402   8.809  18.154  0.00  0.00    +0.000 C 
ATOM      9  C   UNL     1       8.949   9.976  18.349  0.00  0.00    +0.000 C 
BRANCH   9  10
ATOM     10  C   UNL     1       9.544  11.255  18.566  0.00  0.00    +0.000 A 
ATOM     11  C   UNL     1      10.434  11.799  17.652  0.00  0.00    +0.000 A 
ATOM     12  C   UNL     1      10.992  13.042  17.936  0.00  0.00    +0.000 A 
ATOM     13  C   UNL     1      10.637  13.693  19.114  0.00  0.00    +0.000 A 
ATOM     14  C   UNL     1       9.733  13.071  19.961  0.00  0.00    +0.000 A 
ATOM     15  N   UNL     1       9.178  11.864  19.715  0.00  0.00    +0.000 NA
ENDBRANCH   9  10
ENDBRANCH   4   8
BRANCH   1  16
ATOM     16  O   UNL     1       5.231   4.414  15.441  0.00  0.00    +0.000 OA
BRANCH  16  17
ATOM     17  C   UNL     1       6.059   3.705  14.525  0.00  0.00    +0.000 C 
BRANCH  17  18
ATOM     18  O   UNL     1       6.343   4.501  13.367  0.00  0.00    +0.000 OA
BRANCH  18  19
ATOM     19  C   UNL     1       6.724   3.693  12.254  0.00  0.00    +0.000 C 
BRANCH  19  21
ATOM     20  F   UNL     1       4.501   3.605  11.499  0.00  0.00    +0.000 F 
ATOM     21  C   UNL     1       5.559   2.817  11.829  0.00  0.00    +0.000 C 
ENDBRANCH  19  21
ENDBRANCH  18  19
ENDBRANCH  17  18
ENDBRANCH  16  17
ENDBRANCH   1  16
TORSDOF 7
ENDMDL
MODEL 9
REMARK VINA RESULT:      -6.6      1.765      2.064
REMARK  Name = 
REMARK  7 active torsions:
REMARK  status: ('A' for Active; 'I' for Inactive)
REMARK    1  A    between atoms: C_2  and  C_3
REMARK    2  A    between atoms: C_3  and  O_4
REMARK    3  A    between atoms: O_4  and  C_5
REMARK    4  A    between atoms: C_5  and  O_6
REMARK    5  A    between atoms: O_6  and  N_7
REMARK    6  A    between atoms: C_10  and  C_11
REMARK    7  A    between atoms: C_12  and  C_13
REMARK                            x       y       z     vdW  Elec       q    Type
REMARK                         _______ _______ _______ _____ _____    ______ ____
ROOT
ATOM      1  N   UNL     1       5.792   3.957  19.287  0.00  0.00    +0.000 NA
ATOM      2  C   UNL     1       5.996   4.854  18.358  0.00  0.00    +0.000 C 
ATOM      3  C   UNL     1       6.816   6.041  18.695  0.00  0.00    +0.000 C 
ATOM      4  C   UNL     1       7.072   6.976  17.776  0.00  0.00    +0.000 C 
ATOM      5  C   UNL     1       6.602   6.938  16.351  0.00  0.00    +0.000 C 
ATOM      6  C   UNL     1       5.776   5.741  15.914  0.00  0.00    +0.000 C 
ATOM      7  C   UNL     1       5.421   4.703  16.961  0.00  0.00    +0.000 C 
ENDROOT
BRANCH   4   8
ATOM      8  C   UNL     1       7.911   8.191  18.135  0.00  0.00    +0.000 C 
ATOM      9  C   UNL     1       8.631   9.234  18.442  0.00  0.00    +0.000 C 
BRANCH   9  10
ATOM     10  C   UNL     1       9.418  10.378  18.772  0.00  0.00    +0.000 A 
ATOM     11  C   UNL     1      10.046  11.126  17.788  0.00  0.00    +0.000 A 
ATOM     12  C   UNL     1      10.815  12.218  18.181  0.00  0.00    +0.000 A 
ATOM     13  C   UNL     1      10.921  12.522  19.534  0.00  0.00    +0.000 A 
ATOM     14  C   UNL     1      10.248  11.718  20.443  0.00  0.00    +0.000 A 
ATOM     15  N   UNL     1       9.499  10.650  20.092  0.00  0.00    +0.000 NA
ENDBRANCH   9  10
ENDBRANCH   4   8
BRANCH   1  16
ATOM     16  O   UNL     1       4.908   2.971  18.816  0.00  0.00    +0.000 OA
BRANCH  16  17
ATOM     17  C   UNL     1       4.015   2.561  19.847  0.00  0.00    +0.000 C 
BRANCH  17  18
ATOM     18  O   UNL     1       2.937   3.493  19.996  0.00  0.00    +0.000 OA
BRANCH  18  19
ATOM     19  C   UNL     1       2.187   3.628  18.789  0.00  0.00    +0.000 C 
BRANCH  19  21
ATOM     20  F   UNL     1       0.150   2.519  19.155  0.00  0.00    +0.000 F 
ATOM     21  C   UNL     1       1.360   2.378  18.552  0.00  0.00    +0.000 C 
ENDBRANCH  19  21
ENDBRANCH  18  19
ENDBRANCH  17  18
ENDBRANCH  16  17
ENDBRANCH   1  16
TORSDOF 7
ENDMDL
