MODEL 1
REMARK VINA RESULT:      -7.7      0.000      0.000
REMARK  Name = 
REMARK  11 active torsions:
REMARK  status: ('A' for Active; 'I' for Inactive)
REMARK    1  A    between atoms: C_1  and  O_2
REMARK    2  A    between atoms: O_2  and  C_3
REMARK    3  A    between atoms: C_6  and  C_7
REMARK    4  A    between atoms: C_7  and  C_8
REMARK    5  A    between atoms: C_8  and  N_9
REMARK    6  A    between atoms: C_10  and  C_12
REMARK    7  A    between atoms: C_14  and  S_15
REMARK    8  A    between atoms: S_15  and  N_18
REMARK    9  A    between atoms: N_25  and  C_26
REMARK   10  A    between atoms: C_28  and  O_29
REMARK   11  A    between atoms: O_29  and  C_30
REMARK                            x       y       z     vdW  Elec       q    Type
REMARK                         _______ _______ _______ _____ _____    ______ ____
ROOT
ATOM      1  N   UNL     1       7.293   6.668  17.563  0.00  0.00    +0.000 N 
ATOM      2  C   UNL     1       5.917   6.648  17.502  0.00  0.00    +0.000 C 
ATOM      3  O   UNL     1       5.267   7.679  17.372  0.00  0.00    +0.000 OA
ATOM      4  H   UNL     1       7.799   5.797  17.524  0.00  0.00    +0.000 HD
ENDROOT
BRANCH   2   5
ATOM      5  C   UNL     1       5.304   5.328  17.614  0.00  0.00    +0.000 A 
ATOM      6  C   UNL     1       4.977   4.564  18.735  0.00  0.00    +0.000 A 
ATOM      7  C   UNL     1       4.347   3.366  18.299  0.00  0.00    +0.000 A 
ATOM      8  C   UNL     1       4.221   3.454  16.929  0.00  0.00    +0.000 A 
ATOM      9  N   UNL     1       4.959   4.541  16.527  0.00  0.00    +0.000 N 
ATOM     10  C   UNL     1       5.462   4.705  15.175  0.00  0.00    +0.000 C 
BRANCH   7  11
ATOM     11  S   UNL     1       3.922   2.019  19.288  0.00  0.00    +0.000 S 
ATOM     12  O   UNL     1       3.920   0.893  18.369  0.00  0.00    +0.000 OA
ATOM     13  O   UNL     1       4.855   2.070  20.385  0.00  0.00    +0.000 OA
BRANCH  11  14
ATOM     14  N   UNL     1       2.347   2.184  19.902  0.00  0.00    +0.000 NA
ATOM     15  C   UNL     1       1.331   2.803  19.002  0.00  0.00    +0.000 C 
ATOM     16  C   UNL     1       1.472   4.329  18.960  0.00  0.00    +0.000 C 
ATOM     17  O   UNL     1       1.339   4.885  20.276  0.00  0.00    +0.000 OA
ATOM     18  C   UNL     1       2.337   4.361  21.164  0.00  0.00    +0.000 C 
ATOM     19  C   UNL     1       2.272   2.828  21.257  0.00  0.00    +0.000 C 
ENDBRANCH  11  14
ENDBRANCH   7  11
ENDBRANCH   2   5
BRANCH   1  20
ATOM     20  C   UNL     1       8.034   7.917  17.472  0.00  0.00    +0.000 C 
BRANCH  20  21
ATOM     21  C   UNL     1       8.599   8.356  18.826  0.00  0.00    +0.000 C 
BRANCH  21  25
ATOM     22  C   UNL     1       9.271  12.628  18.996  0.00  0.00    +0.000 A 
ATOM     23  C   UNL     1       8.873  12.009  17.798  0.00  0.00    +0.000 A 
ATOM     24  C   UNL     1       8.666  10.630  17.733  0.00  0.00    +0.000 A 
ATOM     25  C   UNL     1       8.903   9.832  18.852  0.00  0.00    +0.000 A 
ATOM     26  C   UNL     1       9.388  10.439  20.017  0.00  0.00    +0.000 A 
ATOM     27  C   UNL     1       9.581  11.828  20.104  0.00  0.00    +0.000 A 
BRANCH  22  29
ATOM     28  C   UNL     1       8.422  14.739  18.333  0.00  0.00    +0.000 C 
ATOM     29  O   UNL     1       9.382  13.991  19.082  0.00  0.00    +0.000 OA
ENDBRANCH  22  29
BRANCH  27  30
ATOM     30  O   UNL     1      10.045  12.196  21.338  0.00  0.00    +0.000 OA
ATOM     31  C   UNL     1       9.127  12.635  22.326  0.00  0.00    +0.000 C 
ENDBRANCH  27  30
ENDBRANCH  21  25
ENDBRANCH  20  21
ENDBRANCH   1  20
TORSDOF 8
ENDMDL
MODEL 2
REMARK VINA RESULT:      -7.5      1.662      2.171
REMARK  Name = 
REMARK  11 active torsions:
REMARK  status: ('A' for Active; 'I' for Inactive)
REMARK    1  A    between atoms: C_1  and  O_2
REMARK    2  A    between atoms: O_2  and  C_3
REMARK    3  A    between atoms: C_6  and  C_7
REMARK    4  A    between atoms: C_7  and  C_8
REMARK    5  A    between atoms: C_8  and  N_9
REMARK    6  A    between atoms: C_10  and  C_12
REMARK    7  A    between atoms: C_14  and  S_15
REMARK    8  A    between atoms: S_15  and  N_18
REMARK    9  A    between atoms: N_25  and  C_26
REMARK   10  A    between atoms: C_28  and  O_29
REMARK   11  A    between atoms: O_29  and  C_30
REMARK                            x       y       z     vdW  Elec       q    Type
REMARK                         _______ _______ _______ _____ _____    ______ ____
ROOT
ATOM      1  N   UNL     1       7.439   7.445  17.366  0.00  0.00    +0.000 N 
ATOM      2  C   UNL     1       7.451   6.368  18.224  0.00  0.00    +0.000 C 
ATOM      3  O   UNL     1       8.293   6.264  19.109  0.00  0.00    +0.000 OA
ATOM      4  H   UNL     1       6.652   7.572  16.748  0.00  0.00    +0.000 HD
ENDROOT
BRANCH   2   5
ATOM      5  C   UNL     1       6.410   5.371  17.995  0.00  0.00    +0.000 A 
ATOM      6  C   UNL     1       5.507   4.773  18.877  0.00  0.00    +0.000 A 
ATOM      7  C   UNL     1       4.663   3.900  18.136  0.00  0.00    +0.000 A 
ATOM      8  C   UNL     1       5.004   4.042  16.808  0.00  0.00    +0.000 A 
ATOM      9  N   UNL     1       6.163   4.779  16.767  0.00  0.00    +0.000 N 
ATOM     10  C   UNL     1       7.081   4.757  15.643  0.00  0.00    +0.000 C 
BRANCH   7  11
ATOM     11  S   UNL     1       3.509   2.799  18.793  0.00  0.00    +0.000 S 
ATOM     12  O   UNL     1       3.418   1.748  17.794  0.00  0.00    +0.000 OA
ATOM     13  O   UNL     1       3.998   2.514  20.118  0.00  0.00    +0.000 OA
BRANCH  11  14
ATOM     14  N   UNL     1       1.978   3.523  18.918  0.00  0.00    +0.000 NA
ATOM     15  C   UNL     1       1.809   4.864  18.289  0.00  0.00    +0.000 C 
ATOM     16  C   UNL     1       2.402   5.974  19.163  0.00  0.00    +0.000 C 
ATOM     17  O   UNL     1       1.787   5.980  20.459  0.00  0.00    +0.000 OA
ATOM     18  C   UNL     1       1.975   4.725  21.129  0.00  0.00    +0.000 C 
ATOM     19  C   UNL     1       1.415   3.550  20.311  0.00  0.00    +0.000 C 
ENDBRANCH  11  14
ENDBRANCH   7  11
ENDBRANCH   2   5
BRANCH   1  20
ATOM     20  C   UNL     1       8.425   8.509  17.476  0.00  0.00    +0.000 C 
BRANCH  20  21
ATOM     21  C   UNL     1       7.807   9.825  17.957  0.00  0.00    +0.000 C 
BRANCH  21  25
ATOM     22  C   UNL     1      10.889  12.824  18.448  0.00  0.00    +0.000 A 
ATOM     23  C   UNL     1      11.080  11.512  18.915  0.00  0.00    +0.000 A 
ATOM     24  C   UNL     1      10.086  10.543  18.770  0.00  0.00    +0.000 A 
ATOM     25  C   UNL     1       8.858  10.878  18.202  0.00  0.00    +0.000 A 
ATOM     26  C   UNL     1       8.636  12.207  17.821  0.00  0.00    +0.000 A 
ATOM     27  C   UNL     1       9.634  13.189  17.940  0.00  0.00    +0.000 A 
BRANCH  22  29
ATOM     28  C   UNL     1      11.954  14.533  19.698  0.00  0.00    +0.000 C 
ATOM     29  O   UNL     1      11.899  13.748  18.505  0.00  0.00    +0.000 OA
ENDBRANCH  22  29
BRANCH  27  30
ATOM     30  O   UNL     1       9.199  14.408  17.493  0.00  0.00    +0.000 OA
ATOM     31  C   UNL     1       8.478  15.256  18.371  0.00  0.00    +0.000 C 
ENDBRANCH  27  30
ENDBRANCH  21  25
ENDBRANCH  20  21
ENDBRANCH   1  20
TORSDOF 8
ENDMDL
MODEL 3
REMARK VINA RESULT:      -7.5      1.693      2.919
REMARK  Name = 
REMARK  11 active torsions:
REMARK  status: ('A' for Active; 'I' for Inactive)
REMARK    1  A    between atoms: C_1  and  O_2
REMARK    2  A    between atoms: O_2  and  C_3
REMARK    3  A    between atoms: C_6  and  C_7
REMARK    4  A    between atoms: C_7  and  C_8
REMARK    5  A    between atoms: C_8  and  N_9
REMARK    6  A    between atoms: C_10  and  C_12
REMARK    7  A    between atoms: C_14  and  S_15
REMARK    8  A    between atoms: S_15  and  N_18
REMARK    9  A    between atoms: N_25  and  C_26
REMARK   10  A    between atoms: C_28  and  O_29
REMARK   11  A    between atoms: O_29  and  C_30
REMARK                            x       y       z     vdW  Elec       q    Type
REMARK                         _______ _______ _______ _____ _____    ______ ____
ROOT
ATOM      1  N   UNL     1       7.190   7.287  18.254  0.00  0.00    +0.000 N 
ATOM      2  C   UNL     1       6.906   6.541  17.132  0.00  0.00    +0.000 C 
ATOM      3  O   UNL     1       7.664   6.521  16.168  0.00  0.00    +0.000 OA
ATOM      4  H   UNL     1       6.622   7.167  19.079  0.00  0.00    +0.000 HD
ENDROOT
BRANCH   2   5
ATOM      5  C   UNL     1       5.650   5.799  17.172  0.00  0.00    +0.000 A 
ATOM      6  C   UNL     1       4.483   6.016  17.907  0.00  0.00    +0.000 A 
ATOM      7  C   UNL     1       3.528   5.029  17.541  0.00  0.00    +0.000 A 
ATOM      8  C   UNL     1       4.091   4.279  16.530  0.00  0.00    +0.000 A 
ATOM      9  N   UNL     1       5.415   4.636  16.456  0.00  0.00    +0.000 N 
ATOM     10  C   UNL     1       6.438   3.786  15.873  0.00  0.00    +0.000 C 
BRANCH   7  11
ATOM     11  S   UNL     1       2.000   4.760  18.295  0.00  0.00    +0.000 S 
ATOM     12  O   UNL     1       1.711   6.017  18.964  0.00  0.00    +0.000 OA
ATOM     13  O   UNL     1       1.154   4.282  17.231  0.00  0.00    +0.000 OA
BRANCH  11  14
ATOM     14  N   UNL     1       2.111   3.557  19.488  0.00  0.00    +0.000 NA
ATOM     15  C   UNL     1       3.337   3.557  20.338  0.00  0.00    +0.000 C 
ATOM     16  C   UNL     1       4.530   2.936  19.604  0.00  0.00    +0.000 C 
ATOM     17  O   UNL     1       4.233   1.590  19.204  0.00  0.00    +0.000 OA
ATOM     18  C   UNL     1       3.092   1.547  18.335  0.00  0.00    +0.000 C 
ATOM     19  C   UNL     1       1.848   2.163  18.993  0.00  0.00    +0.000 C 
ENDBRANCH  11  14
ENDBRANCH   7  11
ENDBRANCH   2   5
BRANCH   1  20
ATOM     20  C   UNL     1       8.406   8.081  18.345  0.00  0.00    +0.000 C 
BRANCH  20  21
ATOM     21  C   UNL     1       8.268   9.434  17.642  0.00  0.00    +0.000 C 
BRANCH  21  25
ATOM     22  C   UNL     1      10.409  12.536  19.769  0.00  0.00    +0.000 A 
ATOM     23  C   UNL     1      10.051  11.338  20.412  0.00  0.00    +0.000 A 
ATOM     24  C   UNL     1       9.350  10.339  19.735  0.00  0.00    +0.000 A 
ATOM     25  C   UNL     1       8.947  10.536  18.416  0.00  0.00    +0.000 A 
ATOM     26  C   UNL     1       9.224  11.766  17.807  0.00  0.00    +0.000 A 
ATOM     27  C   UNL     1       9.947  12.774  18.467  0.00  0.00    +0.000 A 
BRANCH  22  29
ATOM     28  C   UNL     1      10.459  14.501  21.094  0.00  0.00    +0.000 C 
ATOM     29  O   UNL     1      11.178  13.475  20.405  0.00  0.00    +0.000 OA
ENDBRANCH  22  29
BRANCH  27  30
ATOM     30  O   UNL     1      10.111  13.879  17.676  0.00  0.00    +0.000 OA
ATOM     31  C   UNL     1      11.292  14.014  16.902  0.00  0.00    +0.000 C 
ENDBRANCH  27  30
ENDBRANCH  21  25
ENDBRANCH  20  21
ENDBRANCH   1  20
TORSDOF 8
ENDMDL
MODEL 4
REMARK VINA RESULT:      -7.4      1.736      2.533
REMARK  Name = 
REMARK  11 active torsions:
REMARK  status: ('A' for Active; 'I' for Inactive)
REMARK    1  A    between atoms: C_1  and  O_2
REMARK    2  A    between atoms: O_2  and  C_3
REMARK    3  A    between atoms: C_6  and  C_7
REMARK    4  A    between atoms: C_7  and  C_8
REMARK    5  A    between atoms: C_8  and  N_9
REMARK    6  A    between atoms: C_10  and  C_12
REMARK    7  A    between atoms: C_14  and  S_15
REMARK    8  A    between atoms: S_15  and  N_18
REMARK    9  A    between atoms: N_25  and  C_26
REMARK   10  A    between atoms: C_28  and  O_29
REMARK   11  A    between atoms: O_29  and  C_30
REMARK                            x       y       z     vdW  Elec       q    Type
REMARK                         _______ _______ _______ _____ _____    ______ ____
ROOT
ATOM      1  N   UNL     1       7.380   7.674  17.872  0.00  0.00    +0.000 N 
ATOM      2  C   UNL     1       7.281   6.386  18.350  0.00  0.00    +0.000 C 
ATOM      3  O   UNL     1       8.111   5.926  19.126  0.00  0.00    +0.000 OA
ATOM      4  H   UNL     1       6.608   8.067  17.355  0.00  0.00    +0.000 HD
ENDROOT
BRANCH   2   5
ATOM      5  C   UNL     1       6.138   5.621  17.860  0.00  0.00    +0.000 A 
ATOM      6  C   UNL     1       4.878   5.402  18.419  0.00  0.00    +0.000 A 
ATOM      7  C   UNL     1       4.110   4.623  17.511  0.00  0.00    +0.000 A 
ATOM      8  C   UNL     1       4.878   4.450  16.380  0.00  0.00    +0.000 A 
ATOM      9  N   UNL     1       6.143   4.893  16.682  0.00  0.00    +0.000 N 
ATOM     10  C   UNL     1       7.328   4.471  15.957  0.00  0.00    +0.000 C 
BRANCH   7  11
ATOM     11  S   UNL     1       2.557   3.937  17.817  0.00  0.00    +0.000 S 
ATOM     12  O   UNL     1       1.809   5.021  18.432  0.00  0.00    +0.000 OA
ATOM     13  O   UNL     1       2.149   3.391  16.548  0.00  0.00    +0.000 OA
BRANCH  11  14
ATOM     14  N   UNL     1       2.658   2.676  18.950  0.00  0.00    +0.000 NA
ATOM     15  C   UNL     1       1.391   1.968  19.291  0.00  0.00    +0.000 C 
ATOM     16  C   UNL     1       0.541   2.779  20.274  0.00  0.00    +0.000 C 
ATOM     17  O   UNL     1       1.274   3.041  21.479  0.00  0.00    +0.000 OA
ATOM     18  C   UNL     1       2.477   3.775  21.206  0.00  0.00    +0.000 C 
ATOM     19  C   UNL     1       3.387   3.033  20.214  0.00  0.00    +0.000 C 
ENDBRANCH  11  14
ENDBRANCH   7  11
ENDBRANCH   2   5
BRANCH   1  20
ATOM     20  C   UNL     1       8.474   8.546  18.272  0.00  0.00    +0.000 C 
BRANCH  20  21
ATOM     21  C   UNL     1       8.407   9.913  17.587  0.00  0.00    +0.000 C 
BRANCH  21  25
ATOM     22  C   UNL     1      10.295  13.025  19.929  0.00  0.00    +0.000 A 
ATOM     23  C   UNL     1      10.276  11.694  20.382  0.00  0.00    +0.000 A 
ATOM     24  C   UNL     1       9.659  10.687  19.637  0.00  0.00    +0.000 A 
ATOM     25  C   UNL     1       9.001  10.998  18.448  0.00  0.00    +0.000 A 
ATOM     26  C   UNL     1       8.941  12.338  18.046  0.00  0.00    +0.000 A 
ATOM     27  C   UNL     1       9.576  13.360  18.773  0.00  0.00    +0.000 A 
BRANCH  22  29
ATOM     28  C   UNL     1      10.249  14.662  21.642  0.00  0.00    +0.000 C 
ATOM     29  O   UNL     1      10.981  13.992  20.613  0.00  0.00    +0.000 OA
ENDBRANCH  22  29
BRANCH  27  30
ATOM     30  O   UNL     1       9.397  14.583  18.186  0.00  0.00    +0.000 OA
ATOM     31  C   UNL     1       8.083  15.040  17.912  0.00  0.00    +0.000 C 
ENDBRANCH  27  30
ENDBRANCH  21  25
ENDBRANCH  20  21
ENDBRANCH   1  20
TORSDOF 8
ENDMDL
MODEL 5
REMARK VINA RESULT:      -7.4      2.141      3.310
REMARK  Name = 
REMARK  11 active torsions:
REMARK  status: ('A' for Active; 'I' for Inactive)
REMARK    1  A    between atoms: C_1  and  O_2
REMARK    2  A    between atoms: O_2  and  C_3
REMARK    3  A    between atoms: C_6  and  C_7
REMARK    4  A    between atoms: C_7  and  C_8
REMARK    5  A    between atoms: C_8  and  N_9
REMARK    6  A    between atoms: C_10  and  C_12
REMARK    7  A    between atoms: C_14  and  S_15
REMARK    8  A    between atoms: S_15  and  N_18
REMARK    9  A    between atoms: N_25  and  C_26
REMARK   10  A    between atoms: C_28  and  O_29
REMARK   11  A    between atoms: O_29  and  C_30
REMARK                            x       y       z     vdW  Elec       q    Type
REMARK                         _______ _______ _______ _____ _____    ______ ____
ROOT
ATOM      1  N   UNL     1       7.517   8.677  18.083  0.00  0.00    +0.000 N 
ATOM      2  C   UNL     1       7.324   7.452  17.484  0.00  0.00    +0.000 C 
ATOM      3  O   UNL     1       7.978   7.107  16.506  0.00  0.00    +0.000 OA
ATOM      4  H   UNL     1       7.068   8.868  18.966  0.00  0.00    +0.000 HD
ENDROOT
BRANCH   2   5
ATOM      5  C   UNL     1       6.291   6.614  18.086  0.00  0.00    +0.000 A 
ATOM      6  C   UNL     1       4.902   6.637  17.949  0.00  0.00    +0.000 A 
ATOM      7  C   UNL     1       4.355   5.570  18.714  0.00  0.00    +0.000 A 
ATOM      8  C   UNL     1       5.417   4.862  19.234  0.00  0.00    +0.000 A 
ATOM      9  N   UNL     1       6.548   5.606  19.001  0.00  0.00    +0.000 N 
ATOM     10  C   UNL     1       7.770   5.460  19.770  0.00  0.00    +0.000 C 
BRANCH   7  11
ATOM     11  S   UNL     1       2.680   5.285  19.015  0.00  0.00    +0.000 S 
ATOM     12  O   UNL     1       2.656   4.703  20.346  0.00  0.00    +0.000 OA
ATOM     13  O   UNL     1       2.048   6.554  18.755  0.00  0.00    +0.000 OA
BRANCH  11  14
ATOM     14  N   UNL     1       2.054   4.131  17.938  0.00  0.00    +0.000 NA
ATOM     15  C   UNL     1       1.061   3.162  18.485  0.00  0.00    +0.000 C 
ATOM     16  C   UNL     1       1.745   2.045  19.280  0.00  0.00    +0.000 C 
ATOM     17  O   UNL     1       2.686   1.342  18.457  0.00  0.00    +0.000 OA
ATOM     18  C   UNL     1       3.698   2.226  17.954  0.00  0.00    +0.000 C 
ATOM     19  C   UNL     1       3.094   3.387  17.149  0.00  0.00    +0.000 C 
ENDBRANCH  11  14
ENDBRANCH   7  11
ENDBRANCH   2   5
BRANCH   1  20
ATOM     20  C   UNL     1       8.510   9.614  17.581  0.00  0.00    +0.000 C 
BRANCH  20  21
ATOM     21  C   UNL     1       9.286  10.297  18.710  0.00  0.00    +0.000 C 
BRANCH  21  25
ATOM     22  C   UNL     1      10.726  14.126  17.296  0.00  0.00    +0.000 A 
ATOM     23  C   UNL     1      11.506  12.965  17.151  0.00  0.00    +0.000 A 
ATOM     24  C   UNL     1      11.053  11.729  17.615  0.00  0.00    +0.000 A 
ATOM     25  C   UNL     1       9.832  11.635  18.282  0.00  0.00    +0.000 A 
ATOM     26  C   UNL     1       9.100  12.807  18.506  0.00  0.00    +0.000 A 
ATOM     27  C   UNL     1       9.532  14.055  18.027  0.00  0.00    +0.000 A 
BRANCH  22  29
ATOM     28  C   UNL     1      12.040  16.082  17.552  0.00  0.00    +0.000 C 
ATOM     29  O   UNL     1      11.130  15.318  16.757  0.00  0.00    +0.000 OA
ENDBRANCH  22  29
BRANCH  27  30
ATOM     30  O   UNL     1       8.652  15.053  18.351  0.00  0.00    +0.000 OA
ATOM     31  C   UNL     1       7.368  15.071  17.751  0.00  0.00    +0.000 C 
ENDBRANCH  27  30
ENDBRANCH  21  25
ENDBRANCH  20  21
ENDBRANCH   1  20
TORSDOF 8
ENDMDL
MODEL 6
REMARK VINA RESULT:      -7.4      1.519      1.637
REMARK  Name = 
REMARK  11 active torsions:
REMARK  status: ('A' for Active; 'I' for Inactive)
REMARK    1  A    between atoms: C_1  and  O_2
REMARK    2  A    between atoms: O_2  and  C_3
REMARK    3  A    between atoms: C_6  and  C_7
REMARK    4  A    between atoms: C_7  and  C_8
REMARK    5  A    between atoms: C_8  and  N_9
REMARK    6  A    between atoms: C_10  and  C_12
REMARK    7  A    between atoms: C_14  and  S_15
REMARK    8  A    between atoms: S_15  and  N_18
REMARK    9  A    between atoms: N_25  and  C_26
REMARK   10  A    between atoms: C_28  and  O_29
REMARK   11  A    between atoms: O_29  and  C_30
REMARK                            x       y       z     vdW  Elec       q    Type
REMARK                         _______ _______ _______ _____ _____    ______ ____
ROOT
ATOM      1  N   UNL     1       7.389   7.061  18.247  0.00  0.00    +0.000 N 
ATOM      2  C   UNL     1       7.431   5.775  18.739  0.00  0.00    +0.000 C 
ATOM      3  O   UNL     1       8.359   5.387  19.439  0.00  0.00    +0.000 OA
ATOM      4  H   UNL     1       6.547   7.389  17.800  0.00  0.00    +0.000 HD
ENDROOT
BRANCH   2   5
ATOM      5  C   UNL     1       6.309   4.922  18.360  0.00  0.00    +0.000 A 
ATOM      6  C   UNL     1       5.267   4.389  19.122  0.00  0.00    +0.000 A 
ATOM      7  C   UNL     1       4.402   3.662  18.260  0.00  0.00    +0.000 A 
ATOM      8  C   UNL     1       4.877   3.832  16.977  0.00  0.00    +0.000 A 
ATOM      9  N   UNL     1       6.110   4.428  17.081  0.00  0.00    +0.000 N 
ATOM     10  C   UNL     1       7.119   4.357  16.040  0.00  0.00    +0.000 C 
BRANCH   7  11
ATOM     11  S   UNL     1       3.075   2.672  18.745  0.00  0.00    +0.000 S 
ATOM     12  O   UNL     1       2.906   1.743  17.640  0.00  0.00    +0.000 OA
ATOM     13  O   UNL     1       3.442   2.197  20.055  0.00  0.00    +0.000 OA
BRANCH  11  14
ATOM     14  N   UNL     1       1.648   3.583  18.873  0.00  0.00    +0.000 NA
ATOM     15  C   UNL     1       1.554   4.817  18.040  0.00  0.00    +0.000 C 
ATOM     16  C   UNL     1       2.346   5.974  18.659  0.00  0.00    +0.000 C 
ATOM     17  O   UNL     1       1.871   6.261  19.982  0.00  0.00    +0.000 OA
ATOM     18  C   UNL     1       1.997   5.116  20.838  0.00  0.00    +0.000 C 
ATOM     19  C   UNL     1       1.237   3.901  20.283  0.00  0.00    +0.000 C 
ENDBRANCH  11  14
ENDBRANCH   7  11
ENDBRANCH   2   5
BRANCH   1  20
ATOM     20  C   UNL     1       8.447   8.016  18.540  0.00  0.00    +0.000 C 
BRANCH  20  21
ATOM     21  C   UNL     1       8.377   9.254  17.641  0.00  0.00    +0.000 C 
BRANCH  21  25
ATOM     22  C   UNL     1       9.395  12.865  19.799  0.00  0.00    +0.000 A 
ATOM     23  C   UNL     1       9.306  12.865  18.396  0.00  0.00    +0.000 A 
ATOM     24  C   UNL     1       8.989  11.701  17.693  0.00  0.00    +0.000 A 
ATOM     25  C   UNL     1       8.806  10.499  18.374  0.00  0.00    +0.000 A 
ATOM     26  C   UNL     1       8.986  10.482  19.762  0.00  0.00    +0.000 A 
ATOM     27  C   UNL     1       9.284  11.648  20.486  0.00  0.00    +0.000 A 
BRANCH  22  29
ATOM     28  C   UNL     1      10.954  14.519  20.470  0.00  0.00    +0.000 C 
ATOM     29  O   UNL     1       9.613  14.026  20.492  0.00  0.00    +0.000 OA
ENDBRANCH  22  29
BRANCH  27  30
ATOM     30  O   UNL     1       9.400  11.395  21.827  0.00  0.00    +0.000 OA
ATOM     31  C   UNL     1       8.314  11.692  22.689  0.00  0.00    +0.000 C 
ENDBRANCH  27  30
ENDBRANCH  21  25
ENDBRANCH  20  21
ENDBRANCH   1  20
TORSDOF 8
ENDMDL
MODEL 7
REMARK VINA RESULT:      -7.2      2.116      2.884
REMARK  Name = 
REMARK  11 active torsions:
REMARK  status: ('A' for Active; 'I' for Inactive)
REMARK    1  A    between atoms: C_1  and  O_2
REMARK    2  A    between atoms: O_2  and  C_3
REMARK    3  A    between atoms: C_6  and  C_7
REMARK    4  A    between atoms: C_7  and  C_8
REMARK    5  A    between atoms: C_8  and  N_9
REMARK    6  A    between atoms: C_10  and  C_12
REMARK    7  A    between atoms: C_14  and  S_15
REMARK    8  A    between atoms: S_15  and  N_18
REMARK    9  A    between atoms: N_25  and  C_26
REMARK   10  A    between atoms: C_28  and  O_29
REMARK   11  A    between atoms: O_29  and  C_30
REMARK                            x       y       z     vdW  Elec       q    Type
REMARK                         _______ _______ _______ _____ _____    ______ ____
ROOT
ATOM      1  N   UNL     1       7.381   8.633  18.057  0.00  0.00    +0.000 N 
ATOM      2  C   UNL     1       7.482   7.474  17.319  0.00  0.00    +0.000 C 
ATOM      3  O   UNL     1       8.289   7.367  16.402  0.00  0.00    +0.000 OA
ATOM      4  H   UNL     1       6.814   8.636  18.891  0.00  0.00    +0.000 HD
ENDROOT
BRANCH   2   5
ATOM      5  C   UNL     1       6.563   6.406  17.699  0.00  0.00    +0.000 A 
ATOM      6  C   UNL     1       5.268   6.117  17.265  0.00  0.00    +0.000 A 
ATOM      7  C   UNL     1       4.828   4.930  17.913  0.00  0.00    +0.000 A 
ATOM      8  C   UNL     1       5.887   4.465  18.663  0.00  0.00    +0.000 A 
ATOM      9  N   UNL     1       6.841   5.453  18.666  0.00  0.00    +0.000 N 
ATOM     10  C   UNL     1       7.871   5.563  19.684  0.00  0.00    +0.000 C 
BRANCH   7  11
ATOM     11  S   UNL     1       3.238   4.264  17.850  0.00  0.00    +0.000 S 
ATOM     12  O   UNL     1       2.369   5.406  18.080  0.00  0.00    +0.000 OA
ATOM     13  O   UNL     1       3.198   3.548  16.600  0.00  0.00    +0.000 OA
BRANCH  11  14
ATOM     14  N   UNL     1       2.987   3.164  19.120  0.00  0.00    +0.000 NA
ATOM     15  C   UNL     1       2.048   2.034  18.862  0.00  0.00    +0.000 C 
ATOM     16  C   UNL     1       0.586   2.483  18.965  0.00  0.00    +0.000 C 
ATOM     17  O   UNL     1       0.317   3.034  20.262  0.00  0.00    +0.000 OA
ATOM     18  C   UNL     1       1.160   4.164  20.532  0.00  0.00    +0.000 C 
ATOM     19  C   UNL     1       2.650   3.802  20.438  0.00  0.00    +0.000 C 
ENDBRANCH  11  14
ENDBRANCH   7  11
ENDBRANCH   2   5
BRANCH   1  20
ATOM     20  C   UNL     1       8.232   9.780  17.780  0.00  0.00    +0.000 C 
BRANCH  20  21
ATOM     21  C   UNL     1       9.310   9.974  18.850  0.00  0.00    +0.000 C 
BRANCH  21  25
ATOM     22  C   UNL     1      10.959  13.966  18.570  0.00  0.00    +0.000 A 
ATOM     23  C   UNL     1      11.723  12.906  19.092  0.00  0.00    +0.000 A 
ATOM     24  C   UNL     1      11.193  11.619  19.196  0.00  0.00    +0.000 A 
ATOM     25  C   UNL     1       9.871  11.373  18.829  0.00  0.00    +0.000 A 
ATOM     26  C   UNL     1       9.084  12.448  18.397  0.00  0.00    +0.000 A 
ATOM     27  C   UNL     1       9.609  13.745  18.266  0.00  0.00    +0.000 A 
BRANCH  22  29
ATOM     28  C   UNL     1      11.480  16.077  19.514  0.00  0.00    +0.000 C 
ATOM     29  O   UNL     1      11.511  15.205  18.381  0.00  0.00    +0.000 OA
ENDBRANCH  22  29
BRANCH  27  30
ATOM     30  O   UNL     1       8.665  14.629  17.815  0.00  0.00    +0.000 OA
ATOM     31  C   UNL     1       7.297  14.256  17.830  0.00  0.00    +0.000 C 
ENDBRANCH  27  30
ENDBRANCH  21  25
ENDBRANCH  20  21
ENDBRANCH   1  20
TORSDOF 8
ENDMDL
MODEL 8
REMARK VINA RESULT:      -7.2      1.640      2.021
REMARK  Name = 
REMARK  11 active torsions:
REMARK  status: ('A' for Active; 'I' for Inactive)
REMARK    1  A    between atoms: C_1  and  O_2
REMARK    2  A    between atoms: O_2  and  C_3
REMARK    3  A    between atoms: C_6  and  C_7
REMARK    4  A    between atoms: C_7  and  C_8
REMARK    5  A    between atoms: C_8  and  N_9
REMARK    6  A    between atoms: C_10  and  C_12
REMARK    7  A    between atoms: C_14  and  S_15
REMARK    8  A    between atoms: S_15  and  N_18
REMARK    9  A    between atoms: N_25  and  C_26
REMARK   10  A    between atoms: C_28  and  O_29
REMARK   11  A    between atoms: O_29  and  C_30
REMARK                            x       y       z     vdW  Elec       q    Type
REMARK                         _______ _______ _______ _____ _____    ______ ____
ROOT
ATOM      1  N   UNL     1       7.500   8.166  17.377  0.00  0.00    +0.000 N 
ATOM      2  C   UNL     1       7.708   7.035  18.134  0.00  0.00    +0.000 C 
ATOM      3  O   UNL     1       8.665   6.941  18.894  0.00  0.00    +0.000 OA
ATOM      4  H   UNL     1       6.630   8.268  16.875  0.00  0.00    +0.000 HD
ENDROOT
BRANCH   2   5
ATOM      5  C   UNL     1       6.725   5.970  17.956  0.00  0.00    +0.000 A 
ATOM      6  C   UNL     1       5.802   5.421  18.848  0.00  0.00    +0.000 A 
ATOM      7  C   UNL     1       5.039   4.438  18.159  0.00  0.00    +0.000 A 
ATOM      8  C   UNL     1       5.447   4.462  16.843  0.00  0.00    +0.000 A 
ATOM      9  N   UNL     1       6.573   5.246  16.785  0.00  0.00    +0.000 N 
ATOM     10  C   UNL     1       7.553   5.156  15.718  0.00  0.00    +0.000 C 
BRANCH   7  11
ATOM     11  S   UNL     1       3.898   3.354  18.866  0.00  0.00    +0.000 S 
ATOM     12  O   UNL     1       3.313   2.667  17.727  0.00  0.00    +0.000 OA
ATOM     13  O   UNL     1       4.657   2.627  19.852  0.00  0.00    +0.000 OA
BRANCH  11  14
ATOM     14  N   UNL     1       2.653   4.203  19.649  0.00  0.00    +0.000 NA
ATOM     15  C   UNL     1       2.668   4.204  21.141  0.00  0.00    +0.000 C 
ATOM     16  C   UNL     1       2.125   2.888  21.709  0.00  0.00    +0.000 C 
ATOM     17  O   UNL     1       0.786   2.653  21.250  0.00  0.00    +0.000 OA
ATOM     18  C   UNL     1       0.732   2.586  19.818  0.00  0.00    +0.000 C 
ATOM     19  C   UNL     1       1.271   3.868  19.164  0.00  0.00    +0.000 C 
ENDBRANCH  11  14
ENDBRANCH   7  11
ENDBRANCH   2   5
BRANCH   1  20
ATOM     20  C   UNL     1       8.407   9.301  17.449  0.00  0.00    +0.000 C 
BRANCH  20  21
ATOM     21  C   UNL     1       8.759   9.670  18.893  0.00  0.00    +0.000 C 
BRANCH  21  25
ATOM     22  C   UNL     1      11.072  13.326  19.033  0.00  0.00    +0.000 A 
ATOM     23  C   UNL     1      11.106  12.495  17.900  0.00  0.00    +0.000 A 
ATOM     24  C   UNL     1      10.372  11.309  17.852  0.00  0.00    +0.000 A 
ATOM     25  C   UNL     1       9.628  10.901  18.958  0.00  0.00    +0.000 A 
ATOM     26  C   UNL     1       9.668  11.683  20.119  0.00  0.00    +0.000 A 
ATOM     27  C   UNL     1      10.385  12.890  20.175  0.00  0.00    +0.000 A 
BRANCH  22  29
ATOM     28  C   UNL     1      10.950  15.650  18.581  0.00  0.00    +0.000 C 
ATOM     29  O   UNL     1      11.717  14.535  19.042  0.00  0.00    +0.000 OA
ENDBRANCH  22  29
BRANCH  27  30
ATOM     30  O   UNL     1      10.268  13.490  21.400  0.00  0.00    +0.000 OA
ATOM     31  C   UNL     1       9.098  13.277  22.172  0.00  0.00    +0.000 C 
ENDBRANCH  27  30
ENDBRANCH  21  25
ENDBRANCH  20  21
ENDBRANCH   1  20
TORSDOF 8
ENDMDL
MODEL 9
REMARK VINA RESULT:      -7.1      1.818      2.599
REMARK  Name = 
REMARK  11 active torsions:
REMARK  status: ('A' for Active; 'I' for Inactive)
REMARK    1  A    between atoms: C_1  and  O_2
REMARK    2  A    between atoms: O_2  and  C_3
REMARK    3  A    between atoms: C_6  and  C_7
REMARK    4  A    between atoms: C_7  and  C_8
REMARK    5  A    between atoms: C_8  and  N_9
REMARK    6  A    between atoms: C_10  and  C_12
REMARK    7  A    between atoms: C_14  and  S_15
REMARK    8  A    between atoms: S_15  and  N_18
REMARK    9  A    between atoms: N_25  and  C_26
REMARK   10  A    between atoms: C_28  and  O_29
REMARK   11  A    between atoms: O_29  and  C_30
REMARK                            x       y       z     vdW  Elec       q    Type
REMARK                         _______ _______ _______ _____ _____    ______ ____
ROOT
ATOM      1  N   UNL     1       7.427   7.429  18.228  0.00  0.00    +0.000 N 
ATOM      2  C   UNL     1       7.306   6.799  17.009  0.00  0.00    +0.000 C 
ATOM      3  O   UNL     1       8.115   6.988  16.108  0.00  0.00    +0.000 OA
ATOM      4  H   UNL     1       6.833   7.141  18.991  0.00  0.00    +0.000 HD
ENDROOT
BRANCH   2   5
ATOM      5  C   UNL     1       6.154   5.914  16.872  0.00  0.00    +0.000 A 
ATOM      6  C   UNL     1       4.999   5.790  17.646  0.00  0.00    +0.000 A 
ATOM      7  C   UNL     1       4.159   4.808  17.051  0.00  0.00    +0.000 A 
ATOM      8  C   UNL     1       4.771   4.410  15.882  0.00  0.00    +0.000 A 
ATOM      9  N   UNL     1       6.037   4.943  15.890  0.00  0.00    +0.000 N 
ATOM     10  C   UNL     1       7.133   4.403  15.106  0.00  0.00    +0.000 C 
BRANCH   7  11
ATOM     11  S   UNL     1       2.707   4.166  17.725  0.00  0.00    +0.000 S 
ATOM     12  O   UNL     1       1.893   5.340  17.993  0.00  0.00    +0.000 OA
ATOM     13  O   UNL     1       2.276   3.176  16.771  0.00  0.00    +0.000 OA
BRANCH  11  14
ATOM     14  N   UNL     1       3.009   3.401  19.211  0.00  0.00    +0.000 NA
ATOM     15  C   UNL     1       2.324   2.099  19.455  0.00  0.00    +0.000 C 
ATOM     16  C   UNL     1       0.860   2.302  19.860  0.00  0.00    +0.000 C 
ATOM     17  O   UNL     1       0.770   3.112  21.042  0.00  0.00    +0.000 OA
ATOM     18  C   UNL     1       1.367   4.400  20.835  0.00  0.00    +0.000 C 
ATOM     19  C   UNL     1       2.840   4.287  20.412  0.00  0.00    +0.000 C 
ENDBRANCH  11  14
ENDBRANCH   7  11
ENDBRANCH   2   5
BRANCH   1  20
ATOM     20  C   UNL     1       8.525   8.344  18.499  0.00  0.00    +0.000 C 
BRANCH  20  21
ATOM     21  C   UNL     1       8.349   9.687  17.785  0.00  0.00    +0.000 C 
BRANCH  21  25
ATOM     22  C   UNL     1      10.502  12.845  19.817  0.00  0.00    +0.000 A 
ATOM     23  C   UNL     1      10.198  11.641  20.476  0.00  0.00    +0.000 A 
ATOM     24  C   UNL     1       9.494  10.623  19.831  0.00  0.00    +0.000 A 
ATOM     25  C   UNL     1       9.033  10.807  18.529  0.00  0.00    +0.000 A 
ATOM     26  C   UNL     1       9.257  12.041  17.906  0.00  0.00    +0.000 A 
ATOM     27  C   UNL     1       9.982  13.068  18.535  0.00  0.00    +0.000 A 
BRANCH  22  29
ATOM     28  C   UNL     1      10.560  14.880  21.030  0.00  0.00    +0.000 C 
ATOM     29  O   UNL     1      11.274  13.803  20.419  0.00  0.00    +0.000 OA
ENDBRANCH  22  29
BRANCH  27  30
ATOM     30  O   UNL     1      10.088  14.174  17.735  0.00  0.00    +0.000 OA
ATOM     31  C   UNL     1      11.290  14.404  17.019  0.00  0.00    +0.000 C 
ENDBRANCH  27  30
ENDBRANCH  21  25
ENDBRANCH  20  21
ENDBRANCH   1  20
TORSDOF 8
ENDMDL
