MODEL 1
REMARK VINA RESULT:      -9.9      0.000      0.000
REMARK  Name = 
REMARK  6 active torsions:
REMARK  status: ('A' for Active; 'I' for Inactive)
REMARK    1  A    between atoms: N_1  and  C_2
REMARK    2  A    between atoms: N_5  and  C_6
REMARK    3  A    between atoms: C_6  and  C_7
REMARK    4  A    between atoms: N_15  and  C_16
REMARK    5  A    between atoms: N_23  and  C_24
REMARK    6  A    between atoms: C_24  and  C_25
REMARK                            x       y       z     vdW  Elec       q    Type
REMARK                         _______ _______ _______ _____ _____    ______ ____
ROOT
ATOM      1  C   UNL     1       3.874   3.602  17.764  0.00  0.00    +0.000 A 
ATOM      2  C   UNL     1       3.831   2.187  17.539  0.00  0.00    +0.000 A 
ATOM      3  C   UNL     1       2.853   1.660  18.345  0.00  0.00    +0.000 A 
ATOM      4  N   UNL     1       2.308   2.683  19.064  0.00  0.00    +0.000 N 
ATOM      5  N   UNL     1       1.408   2.521  20.043  0.00  0.00    +0.000 NA
ATOM      6  C   UNL     1       1.035   3.632  20.585  0.00  0.00    +0.000 A 
ATOM      7  N   UNL     1       1.414   4.889  20.214  0.00  0.00    +0.000 NA
ATOM      8  C   UNL     1       2.284   5.073  19.261  0.00  0.00    +0.000 A 
ATOM      9  N   UNL     1       2.641   6.345  18.859  0.00  0.00    +0.000 N 
ATOM     10  C   UNL     1       2.845   3.878  18.665  0.00  0.00    +0.000 A 
ATOM     11  H   UNL     1       3.497   6.398  18.306  0.00  0.00    +0.000 HD
ENDROOT
BRANCH   9  12
ATOM     12  C   UNL     1       2.035   7.581  19.180  0.00  0.00    +0.000 A 
ATOM     13  C   UNL     1       1.668   8.543  18.225  0.00  0.00    +0.000 A 
ATOM     14  C   UNL     1       1.031   9.753  18.556  0.00  0.00    +0.000 A 
ATOM     15  C   UNL     1       0.774   9.996  19.908  0.00  0.00    +0.000 A 
ATOM     16  C   UNL     1       1.119   9.073  20.889  0.00  0.00    +0.000 A 
ATOM     17  C   UNL     1       0.703   9.666  22.099  0.00  0.00    +0.000 A 
ATOM     18  N   UNL     1       0.166  10.876  21.928  0.00  0.00    +0.000 NA
ATOM     19  N   UNL     1       0.197  11.051  20.585  0.00  0.00    +0.000 N 
ATOM     20  C   UNL     1       1.748   7.857  20.527  0.00  0.00    +0.000 A 
BRANCH  19  21
ATOM     21  C   UNL     1      -0.285  12.314  20.030  0.00  0.00    +0.000 C 
BRANCH  21  22
ATOM     22  C   UNL     1      -1.752  12.260  19.670  0.00  0.00    +0.000 A 
ATOM     23  C   UNL     1      -2.726  12.812  20.520  0.00  0.00    +0.000 A 
ATOM     24  C   UNL     1      -4.086  12.721  20.211  0.00  0.00    +0.000 A 
ATOM     25  C   UNL     1      -4.491  12.094  19.036  0.00  0.00    +0.000 A 
ATOM     26  C   UNL     1      -3.530  11.591  18.168  0.00  0.00    +0.000 A 
ATOM     27  F   UNL     1      -3.916  11.006  17.026  0.00  0.00    +0.000 F 
ATOM     28  C   UNL     1      -2.172  11.672  18.468  0.00  0.00    +0.000 A 
ENDBRANCH  21  22
ENDBRANCH  19  21
ENDBRANCH   9  12
BRANCH   1  29
ATOM     29  C   UNL     1       4.890   4.484  17.095  0.00  0.00    +0.000 C 
BRANCH  29  33
ATOM     30  C   UNL     1       7.220   5.939  19.358  0.00  0.00    +0.000 C 
ATOM     31  C   UNL     1       7.435   6.491  17.961  0.00  0.00    +0.000 C 
ATOM     32  C   UNL     1       7.211   5.295  17.056  0.00  0.00    +0.000 C 
ATOM     33  N   UNL     1       6.222   4.418  17.721  0.00  0.00    +0.000 NA
ATOM     34  C   UNL     1       6.119   4.890  19.131  0.00  0.00    +0.000 C 
BRANCH  30  35
ATOM     35  N   UNL     1       8.434   5.343  19.921  0.00  0.00    +0.000 NA
ATOM     36  H   UNL     1       9.188   6.030  19.912  0.00  0.00    +0.000 HD
ATOM     37  H   UNL     1       8.745   4.573  19.327  0.00  0.00    +0.000 HD
ENDBRANCH  30  35
ENDBRANCH  29  33
ENDBRANCH   1  29
TORSDOF 6
ENDMDL
MODEL 2
REMARK VINA RESULT:      -9.8      1.073      1.362
REMARK  Name = 
REMARK  6 active torsions:
REMARK  status: ('A' for Active; 'I' for Inactive)
REMARK    1  A    between atoms: N_1  and  C_2
REMARK    2  A    between atoms: N_5  and  C_6
REMARK    3  A    between atoms: C_6  and  C_7
REMARK    4  A    between atoms: N_15  and  C_16
REMARK    5  A    between atoms: N_23  and  C_24
REMARK    6  A    between atoms: C_24  and  C_25
REMARK                            x       y       z     vdW  Elec       q    Type
REMARK                         _______ _______ _______ _____ _____    ______ ____
ROOT
ATOM      1  C   UNL     1       3.802   3.795  17.853  0.00  0.00    +0.000 A 
ATOM      2  C   UNL     1       3.756   2.406  17.502  0.00  0.00    +0.000 A 
ATOM      3  C   UNL     1       2.795   1.806  18.278  0.00  0.00    +0.000 A 
ATOM      4  N   UNL     1       2.264   2.758  19.097  0.00  0.00    +0.000 N 
ATOM      5  N   UNL     1       1.385   2.506  20.075  0.00  0.00    +0.000 NA
ATOM      6  C   UNL     1       1.023   3.563  20.723  0.00  0.00    +0.000 A 
ATOM      7  N   UNL     1       1.392   4.849  20.458  0.00  0.00    +0.000 NA
ATOM      8  C   UNL     1       2.242   5.121  19.508  0.00  0.00    +0.000 A 
ATOM      9  N   UNL     1       2.589   6.425  19.215  0.00  0.00    +0.000 N 
ATOM     10  C   UNL     1       2.791   3.986  18.796  0.00  0.00    +0.000 A 
ATOM     11  H   UNL     1       3.433   6.529  18.652  0.00  0.00    +0.000 HD
ENDROOT
BRANCH   9  12
ATOM     12  C   UNL     1       1.988   7.625  19.658  0.00  0.00    +0.000 A 
ATOM     13  C   UNL     1       1.696   8.710  18.816  0.00  0.00    +0.000 A 
ATOM     14  C   UNL     1       1.064   9.885  19.264  0.00  0.00    +0.000 A 
ATOM     15  C   UNL     1       0.732   9.959  20.620  0.00  0.00    +0.000 A 
ATOM     16  C   UNL     1       1.001   8.910  21.492  0.00  0.00    +0.000 A 
ATOM     17  C   UNL     1       0.526   9.354  22.743  0.00  0.00    +0.000 A 
ATOM     18  N   UNL     1       0.023  10.590  22.699  0.00  0.00    +0.000 NA
ATOM     19  N   UNL     1       0.136  10.934  21.394  0.00  0.00    +0.000 N 
ATOM     20  C   UNL     1       1.628   7.734  21.011  0.00  0.00    +0.000 A 
BRANCH  19  21
ATOM     21  C   UNL     1      -0.289  12.269  20.981  0.00  0.00    +0.000 C 
BRANCH  21  22
ATOM     22  C   UNL     1      -1.740  12.306  20.561  0.00  0.00    +0.000 A 
ATOM     23  C   UNL     1      -2.135  11.872  19.283  0.00  0.00    +0.000 A 
ATOM     24  C   UNL     1      -3.470  11.950  18.876  0.00  0.00    +0.000 A 
ATOM     25  C   UNL     1      -4.434  12.442  19.752  0.00  0.00    +0.000 A 
ATOM     26  C   UNL     1      -4.059  12.825  21.033  0.00  0.00    +0.000 A 
ATOM     27  F   UNL     1      -4.988  13.279  21.884  0.00  0.00    +0.000 F 
ATOM     28  C   UNL     1      -2.730  12.757  21.447  0.00  0.00    +0.000 A 
ENDBRANCH  21  22
ENDBRANCH  19  21
ENDBRANCH   9  12
BRANCH   1  29
ATOM     29  C   UNL     1       4.803   4.736  17.245  0.00  0.00    +0.000 C 
BRANCH  29  33
ATOM     30  C   UNL     1       7.342   5.987  19.401  0.00  0.00    +0.000 C 
ATOM     31  C   UNL     1       7.510   6.564  18.008  0.00  0.00    +0.000 C 
ATOM     32  C   UNL     1       7.163   5.409  17.089  0.00  0.00    +0.000 C 
ATOM     33  N   UNL     1       6.161   4.574  17.790  0.00  0.00    +0.000 NA
ATOM     34  C   UNL     1       6.168   5.012  19.215  0.00  0.00    +0.000 C 
BRANCH  30  35
ATOM     35  N   UNL     1       8.547   5.306  19.878  0.00  0.00    +0.000 NA
ATOM     36  H   UNL     1       8.356   4.858  20.774  0.00  0.00    +0.000 HD
ATOM     37  H   UNL     1       9.282   5.993  20.056  0.00  0.00    +0.000 HD
ENDBRANCH  30  35
ENDBRANCH  29  33
ENDBRANCH   1  29
TORSDOF 6
ENDMDL
MODEL 3
REMARK VINA RESULT:      -9.7      0.978      1.213
REMARK  Name = 
REMARK  6 active torsions:
REMARK  status: ('A' for Active; 'I' for Inactive)
REMARK    1  A    between atoms: N_1  and  C_2
REMARK    2  A    between atoms: N_5  and  C_6
REMARK    3  A    between atoms: C_6  and  C_7
REMARK    4  A    between atoms: N_15  and  C_16
REMARK    5  A    between atoms: N_23  and  C_24
REMARK    6  A    between atoms: C_24  and  C_25
REMARK                            x       y       z     vdW  Elec       q    Type
REMARK                         _______ _______ _______ _____ _____    ______ ____
ROOT
ATOM      1  C   UNL     1       3.578   3.845  17.850  0.00  0.00    +0.000 A 
ATOM      2  C   UNL     1       3.568   2.431  17.613  0.00  0.00    +0.000 A 
ATOM      3  C   UNL     1       2.835   1.841  18.612  0.00  0.00    +0.000 A 
ATOM      4  N   UNL     1       2.411   2.825  19.458  0.00  0.00    +0.000 N 
ATOM      5  N   UNL     1       1.773   2.602  20.613  0.00  0.00    +0.000 NA
ATOM      6  C   UNL     1       1.472   3.685  21.248  0.00  0.00    +0.000 A 
ATOM      7  N   UNL     1       1.680   4.965  20.825  0.00  0.00    +0.000 NA
ATOM      8  C   UNL     1       2.293   5.208  19.701  0.00  0.00    +0.000 A 
ATOM      9  N   UNL     1       2.473   6.501  19.252  0.00  0.00    +0.000 N 
ATOM     10  C   UNL     1       2.771   4.053  18.969  0.00  0.00    +0.000 A 
ATOM     11  H   UNL     1       3.173   6.609  18.518  0.00  0.00    +0.000 HD
ENDROOT
BRANCH   9  12
ATOM     12  C   UNL     1       1.885   7.696  19.728  0.00  0.00    +0.000 A 
ATOM     13  C   UNL     1       1.617   8.811  18.918  0.00  0.00    +0.000 A 
ATOM     14  C   UNL     1       0.998   9.980  19.398  0.00  0.00    +0.000 A 
ATOM     15  C   UNL     1       0.655  10.017  20.753  0.00  0.00    +0.000 A 
ATOM     16  C   UNL     1       0.901   8.936  21.593  0.00  0.00    +0.000 A 
ATOM     17  C   UNL     1       0.421   9.348  22.854  0.00  0.00    +0.000 A 
ATOM     18  N   UNL     1      -0.063  10.592  22.845  0.00  0.00    +0.000 NA
ATOM     19  N   UNL     1       0.066  10.975  21.552  0.00  0.00    +0.000 N 
ATOM     20  C   UNL     1       1.515   7.768  21.081  0.00  0.00    +0.000 A 
BRANCH  19  21
ATOM     21  C   UNL     1      -0.336  12.329  21.178  0.00  0.00    +0.000 C 
BRANCH  21  22
ATOM     22  C   UNL     1      -1.796  12.410  20.799  0.00  0.00    +0.000 A 
ATOM     23  C   UNL     1      -2.765  12.810  21.736  0.00  0.00    +0.000 A 
ATOM     24  C   UNL     1      -4.122  12.839  21.402  0.00  0.00    +0.000 A 
ATOM     25  C   UNL     1      -4.527  12.491  20.116  0.00  0.00    +0.000 A 
ATOM     26  C   UNL     1      -3.570  12.144  19.171  0.00  0.00    +0.000 A 
ATOM     27  F   UNL     1      -3.956  11.829  17.928  0.00  0.00    +0.000 F 
ATOM     28  C   UNL     1      -2.215  12.106  19.495  0.00  0.00    +0.000 A 
ENDBRANCH  21  22
ENDBRANCH  19  21
ENDBRANCH   9  12
BRANCH   1  29
ATOM     29  C   UNL     1       4.358   4.791  16.982  0.00  0.00    +0.000 C 
BRANCH  29  33
ATOM     30  C   UNL     1       7.469   6.507  17.197  0.00  0.00    +0.000 C 
ATOM     31  C   UNL     1       7.570   5.157  17.881  0.00  0.00    +0.000 C 
ATOM     32  C   UNL     1       6.227   4.993  18.567  0.00  0.00    +0.000 C 
ATOM     33  N   UNL     1       5.223   5.706  17.747  0.00  0.00    +0.000 NA
ATOM     34  C   UNL     1       5.986   6.563  16.795  0.00  0.00    +0.000 C 
BRANCH  30  35
ATOM     35  N   UNL     1       7.837   7.615  18.081  0.00  0.00    +0.000 NA
ATOM     36  H   UNL     1       8.827   7.831  17.966  0.00  0.00    +0.000 HD
ATOM     37  H   UNL     1       7.721   7.330  19.055  0.00  0.00    +0.000 HD
ENDBRANCH  30  35
ENDBRANCH  29  33
ENDBRANCH   1  29
TORSDOF 6
ENDMDL
MODEL 4
REMARK VINA RESULT:      -9.6      1.206      1.854
REMARK  Name = 
REMARK  6 active torsions:
REMARK  status: ('A' for Active; 'I' for Inactive)
REMARK    1  A    between atoms: N_1  and  C_2
REMARK    2  A    between atoms: N_5  and  C_6
REMARK    3  A    between atoms: C_6  and  C_7
REMARK    4  A    between atoms: N_15  and  C_16
REMARK    5  A    between atoms: N_23  and  C_24
REMARK    6  A    between atoms: C_24  and  C_25
REMARK                            x       y       z     vdW  Elec       q    Type
REMARK                         _______ _______ _______ _____ _____    ______ ____
ROOT
ATOM      1  C   UNL     1       4.577   4.127  19.347  0.00  0.00    +0.000 A 
ATOM      2  C   UNL     1       4.796   2.741  19.054  0.00  0.00    +0.000 A 
ATOM      3  C   UNL     1       3.604   2.081  19.217  0.00  0.00    +0.000 A 
ATOM      4  N   UNL     1       2.670   2.994  19.613  0.00  0.00    +0.000 N 
ATOM      5  N   UNL     1       1.422   2.684  19.984  0.00  0.00    +0.000 NA
ATOM      6  C   UNL     1       0.717   3.712  20.321  0.00  0.00    +0.000 A 
ATOM      7  N   UNL     1       1.102   5.019  20.265  0.00  0.00    +0.000 NA
ATOM      8  C   UNL     1       2.310   5.348  19.901  0.00  0.00    +0.000 A 
ATOM      9  N   UNL     1       2.691   6.672  19.810  0.00  0.00    +0.000 N 
ATOM     10  C   UNL     1       3.212   4.253  19.611  0.00  0.00    +0.000 A 
ATOM     11  H   UNL     1       3.699   6.829  19.775  0.00  0.00    +0.000 HD
ENDROOT
BRANCH   9  12
ATOM     12  C   UNL     1       1.885   7.833  19.844  0.00  0.00    +0.000 A 
ATOM     13  C   UNL     1       1.659   8.661  18.732  0.00  0.00    +0.000 A 
ATOM     14  C   UNL     1       0.824   9.792  18.772  0.00  0.00    +0.000 A 
ATOM     15  C   UNL     1       0.211  10.097  19.991  0.00  0.00    +0.000 A 
ATOM     16  C   UNL     1       0.404   9.306  21.118  0.00  0.00    +0.000 A 
ATOM     17  C   UNL     1      -0.367   9.924  22.124  0.00  0.00    +0.000 A 
ATOM     18  N   UNL     1      -0.980  11.032  21.702  0.00  0.00    +0.000 NA
ATOM     19  N   UNL     1      -0.635  11.109  20.395  0.00  0.00    +0.000 N 
ATOM     20  C   UNL     1       1.240   8.165  21.047  0.00  0.00    +0.000 A 
BRANCH  19  21
ATOM     21  C   UNL     1      -1.106  12.248  19.611  0.00  0.00    +0.000 C 
BRANCH  21  22
ATOM     22  C   UNL     1      -2.211  11.868  18.653  0.00  0.00    +0.000 A 
ATOM     23  C   UNL     1      -3.557  11.881  19.058  0.00  0.00    +0.000 A 
ATOM     24  C   UNL     1      -4.576  11.484  18.188  0.00  0.00    +0.000 A 
ATOM     25  C   UNL     1      -4.264  11.089  16.890  0.00  0.00    +0.000 A 
ATOM     26  C   UNL     1      -2.942  11.122  16.467  0.00  0.00    +0.000 A 
ATOM     27  F   UNL     1      -2.642  10.762  15.212  0.00  0.00    +0.000 F 
ATOM     28  C   UNL     1      -1.917  11.511  17.328  0.00  0.00    +0.000 A 
ENDBRANCH  21  22
ENDBRANCH  19  21
ENDBRANCH   9  12
BRANCH   1  29
ATOM     29  C   UNL     1       5.697   5.129  19.340  0.00  0.00    +0.000 C 
BRANCH  29  33
ATOM     30  C   UNL     1       5.635   4.801  15.797  0.00  0.00    +0.000 C 
ATOM     31  C   UNL     1       7.020   4.477  16.327  0.00  0.00    +0.000 C 
ATOM     32  C   UNL     1       7.226   5.479  17.447  0.00  0.00    +0.000 C 
ATOM     33  N   UNL     1       5.897   5.770  18.029  0.00  0.00    +0.000 NA
ATOM     34  C   UNL     1       4.889   5.236  17.069  0.00  0.00    +0.000 C 
BRANCH  30  35
ATOM     35  N   UNL     1       5.653   5.860  14.786  0.00  0.00    +0.000 NA
ATOM     36  H   UNL     1       4.714   6.240  14.670  0.00  0.00    +0.000 HD
ATOM     37  H   UNL     1       5.913   5.466  13.881  0.00  0.00    +0.000 HD
ENDBRANCH  30  35
ENDBRANCH  29  33
ENDBRANCH   1  29
TORSDOF 6
ENDMDL
MODEL 5
REMARK VINA RESULT:      -9.6      1.861      2.294
REMARK  Name = 
REMARK  6 active torsions:
REMARK  status: ('A' for Active; 'I' for Inactive)
REMARK    1  A    between atoms: N_1  and  C_2
REMARK    2  A    between atoms: N_5  and  C_6
REMARK    3  A    between atoms: C_6  and  C_7
REMARK    4  A    between atoms: N_15  and  C_16
REMARK    5  A    between atoms: N_23  and  C_24
REMARK    6  A    between atoms: C_24  and  C_25
REMARK                            x       y       z     vdW  Elec       q    Type
REMARK                         _______ _______ _______ _____ _____    ______ ____
ROOT
ATOM      1  C   UNL     1       3.762   3.963  17.837  0.00  0.00    +0.000 A 
ATOM      2  C   UNL     1       3.718   2.591  17.425  0.00  0.00    +0.000 A 
ATOM      3  C   UNL     1       2.739   1.962  18.154  0.00  0.00    +0.000 A 
ATOM      4  N   UNL     1       2.195   2.881  19.003  0.00  0.00    +0.000 N 
ATOM      5  N   UNL     1       1.295   2.591  19.951  0.00  0.00    +0.000 NA
ATOM      6  C   UNL     1       0.923   3.620  20.637  0.00  0.00    +0.000 A 
ATOM      7  N   UNL     1       1.303   4.915  20.436  0.00  0.00    +0.000 NA
ATOM      8  C   UNL     1       2.173   5.224  19.516  0.00  0.00    +0.000 A 
ATOM      9  N   UNL     1       2.532   6.537  19.287  0.00  0.00    +0.000 N 
ATOM     10  C   UNL     1       2.733   4.118  18.767  0.00  0.00    +0.000 A 
ATOM     11  H   UNL     1       3.388   6.662  18.746  0.00  0.00    +0.000 HD
ENDROOT
BRANCH   9  12
ATOM     12  C   UNL     1       1.926   7.720  19.770  0.00  0.00    +0.000 A 
ATOM     13  C   UNL     1       1.626   8.830  18.963  0.00  0.00    +0.000 A 
ATOM     14  C   UNL     1       0.990   9.986  19.450  0.00  0.00    +0.000 A 
ATOM     15  C   UNL     1       0.662  10.017  20.809  0.00  0.00    +0.000 A 
ATOM     16  C   UNL     1       0.940   8.942  21.646  0.00  0.00    +0.000 A 
ATOM     17  C   UNL     1       0.467   9.344  22.912  0.00  0.00    +0.000 A 
ATOM     18  N   UNL     1      -0.042  10.578  22.909  0.00  0.00    +0.000 NA
ATOM     19  N   UNL     1       0.065  10.964  21.615  0.00  0.00    +0.000 N 
ATOM     20  C   UNL     1       1.570   7.785  21.127  0.00  0.00    +0.000 A 
BRANCH  19  21
ATOM     21  C   UNL     1      -0.368  12.309  21.245  0.00  0.00    +0.000 C 
BRANCH  21  22
ATOM     22  C   UNL     1      -1.285  12.922  22.279  0.00  0.00    +0.000 A 
ATOM     23  C   UNL     1      -0.874  14.025  23.047  0.00  0.00    +0.000 A 
ATOM     24  C   UNL     1      -1.702  14.563  24.036  0.00  0.00    +0.000 A 
ATOM     25  C   UNL     1      -2.964  14.018  24.256  0.00  0.00    +0.000 A 
ATOM     26  C   UNL     1      -3.396  12.960  23.466  0.00  0.00    +0.000 A 
ATOM     27  F   UNL     1      -4.618  12.449  23.662  0.00  0.00    +0.000 F 
ATOM     28  C   UNL     1      -2.576  12.413  22.480  0.00  0.00    +0.000 A 
ENDBRANCH  21  22
ENDBRANCH  19  21
ENDBRANCH   9  12
BRANCH   1  29
ATOM     29  C   UNL     1       4.778   4.925  17.290  0.00  0.00    +0.000 C 
BRANCH  29  33
ATOM     30  C   UNL     1       7.387   6.002  19.458  0.00  0.00    +0.000 C 
ATOM     31  C   UNL     1       7.559   6.626  18.086  0.00  0.00    +0.000 C 
ATOM     32  C   UNL     1       7.159   5.520  17.128  0.00  0.00    +0.000 C 
ATOM     33  N   UNL     1       6.137   4.694  17.810  0.00  0.00    +0.000 NA
ATOM     34  C   UNL     1       6.177   5.076  19.250  0.00  0.00    +0.000 C 
BRANCH  30  35
ATOM     35  N   UNL     1       8.574   5.260  19.891  0.00  0.00    +0.000 NA
ATOM     36  H   UNL     1       9.130   5.840  20.519  0.00  0.00    +0.000 HD
ATOM     37  H   UNL     1       9.169   5.065  19.085  0.00  0.00    +0.000 HD
ENDBRANCH  30  35
ENDBRANCH  29  33
ENDBRANCH   1  29
TORSDOF 6
ENDMDL
MODEL 6
REMARK VINA RESULT:      -9.6      1.566      1.955
REMARK  Name = 
REMARK  6 active torsions:
REMARK  status: ('A' for Active; 'I' for Inactive)
REMARK    1  A    between atoms: N_1  and  C_2
REMARK    2  A    between atoms: N_5  and  C_6
REMARK    3  A    between atoms: C_6  and  C_7
REMARK    4  A    between atoms: N_15  and  C_16
REMARK    5  A    between atoms: N_23  and  C_24
REMARK    6  A    between atoms: C_24  and  C_25
REMARK                            x       y       z     vdW  Elec       q    Type
REMARK                         _______ _______ _______ _____ _____    ______ ____
ROOT
ATOM      1  C   UNL     1       3.548   3.763  17.833  0.00  0.00    +0.000 A 
ATOM      2  C   UNL     1       3.535   2.347  17.611  0.00  0.00    +0.000 A 
ATOM      3  C   UNL     1       2.821   1.766  18.629  0.00  0.00    +0.000 A 
ATOM      4  N   UNL     1       2.411   2.758  19.472  0.00  0.00    +0.000 N 
ATOM      5  N   UNL     1       1.794   2.546  20.641  0.00  0.00    +0.000 NA
ATOM      6  C   UNL     1       1.502   3.635  21.270  0.00  0.00    +0.000 A 
ATOM      7  N   UNL     1       1.701   4.911  20.830  0.00  0.00    +0.000 NA
ATOM      8  C   UNL     1       2.295   5.143  19.693  0.00  0.00    +0.000 A 
ATOM      9  N   UNL     1       2.465   6.432  19.228  0.00  0.00    +0.000 N 
ATOM     10  C   UNL     1       2.760   3.981  18.964  0.00  0.00    +0.000 A 
ATOM     11  H   UNL     1       3.152   6.533  18.481  0.00  0.00    +0.000 HD
ENDROOT
BRANCH   9  12
ATOM     12  C   UNL     1       1.884   7.631  19.702  0.00  0.00    +0.000 A 
ATOM     13  C   UNL     1       1.579   8.729  18.882  0.00  0.00    +0.000 A 
ATOM     14  C   UNL     1       0.967   9.902  19.362  0.00  0.00    +0.000 A 
ATOM     15  C   UNL     1       0.671   9.961  20.726  0.00  0.00    +0.000 A 
ATOM     16  C   UNL     1       0.954   8.898  21.577  0.00  0.00    +0.000 A 
ATOM     17  C   UNL     1       0.514   9.329  22.846  0.00  0.00    +0.000 A 
ATOM     18  N   UNL     1       0.020  10.569  22.831  0.00  0.00    +0.000 NA
ATOM     19  N   UNL     1       0.102  10.930  21.528  0.00  0.00    +0.000 N 
ATOM     20  C   UNL     1       1.559   7.725  21.065  0.00  0.00    +0.000 A 
BRANCH  19  21
ATOM     21  C   UNL     1      -0.323  12.273  21.143  0.00  0.00    +0.000 C 
BRANCH  21  22
ATOM     22  C   UNL     1      -1.827  12.426  21.158  0.00  0.00    +0.000 A 
ATOM     23  C   UNL     1      -2.562  12.462  19.961  0.00  0.00    +0.000 A 
ATOM     24  C   UNL     1      -3.947  12.651  19.971  0.00  0.00    +0.000 A 
ATOM     25  C   UNL     1      -4.620  12.785  21.183  0.00  0.00    +0.000 A 
ATOM     26  C   UNL     1      -3.905  12.699  22.371  0.00  0.00    +0.000 A 
ATOM     27  F   UNL     1      -4.554  12.806  23.538  0.00  0.00    +0.000 F 
ATOM     28  C   UNL     1      -2.524  12.516  22.372  0.00  0.00    +0.000 A 
ENDBRANCH  21  22
ENDBRANCH  19  21
ENDBRANCH   9  12
BRANCH   1  29
ATOM     29  C   UNL     1       4.312   4.701  16.942  0.00  0.00    +0.000 C 
BRANCH  29  33
ATOM     30  C   UNL     1       7.392   6.471  17.140  0.00  0.00    +0.000 C 
ATOM     31  C   UNL     1       7.502   5.150  17.879  0.00  0.00    +0.000 C 
ATOM     32  C   UNL     1       6.150   4.993  18.549  0.00  0.00    +0.000 C 
ATOM     33  N   UNL     1       5.150   5.658  17.685  0.00  0.00    +0.000 NA
ATOM     34  C   UNL     1       5.916   6.489  16.713  0.00  0.00    +0.000 C 
BRANCH  30  35
ATOM     35  N   UNL     1       7.729   7.618  17.986  0.00  0.00    +0.000 NA
ATOM     36  H   UNL     1       7.702   7.341  18.967  0.00  0.00    +0.000 HD
ATOM     37  H   UNL     1       7.020   8.344  17.878  0.00  0.00    +0.000 HD
ENDBRANCH  30  35
ENDBRANCH  29  33
ENDBRANCH   1  29
TORSDOF 6
ENDMDL
MODEL 7
REMARK VINA RESULT:      -9.6      2.299      3.263
REMARK  Name = 
REMARK  6 active torsions:
REMARK  status: ('A' for Active; 'I' for Inactive)
REMARK    1  A    between atoms: N_1  and  C_2
REMARK    2  A    between atoms: N_5  and  C_6
REMARK    3  A    between atoms: C_6  and  C_7
REMARK    4  A    between atoms: N_15  and  C_16
REMARK    5  A    between atoms: N_23  and  C_24
REMARK    6  A    between atoms: C_24  and  C_25
REMARK                            x       y       z     vdW  Elec       q    Type
REMARK                         _______ _______ _______ _____ _____    ______ ____
ROOT
ATOM      1  C   UNL     1       3.514   3.289  17.803  0.00  0.00    +0.000 A 
ATOM      2  C   UNL     1       3.409   1.860  17.803  0.00  0.00    +0.000 A 
ATOM      3  C   UNL     1       2.690   1.488  18.912  0.00  0.00    +0.000 A 
ATOM      4  N   UNL     1       2.365   2.621  19.598  0.00  0.00    +0.000 N 
ATOM      5  N   UNL     1       1.769   2.631  20.797  0.00  0.00    +0.000 NA
ATOM      6  C   UNL     1       1.562   3.820  21.256  0.00  0.00    +0.000 A 
ATOM      7  N   UNL     1       1.824   4.998  20.620  0.00  0.00    +0.000 NA
ATOM      8  C   UNL     1       2.398   5.015  19.450  0.00  0.00    +0.000 A 
ATOM      9  N   UNL     1       2.632   6.204  18.789  0.00  0.00    +0.000 N 
ATOM     10  C   UNL     1       2.773   3.728  18.901  0.00  0.00    +0.000 A 
ATOM     11  H   UNL     1       3.303   6.146  18.022  0.00  0.00    +0.000 HD
ENDROOT
BRANCH   9  12
ATOM     12  C   UNL     1       2.139   7.496  19.082  0.00  0.00    +0.000 A 
ATOM     13  C   UNL     1       1.980   8.509  18.123  0.00  0.00    +0.000 A 
ATOM     14  C   UNL     1       1.453   9.778  18.423  0.00  0.00    +0.000 A 
ATOM     15  C   UNL     1       1.089  10.026  19.750  0.00  0.00    +0.000 A 
ATOM     16  C   UNL     1       1.227   9.054  20.734  0.00  0.00    +0.000 A 
ATOM     17  C   UNL     1       0.760   9.670  21.913  0.00  0.00    +0.000 A 
ATOM     18  N   UNL     1       0.382  10.937  21.723  0.00  0.00    +0.000 NA
ATOM     19  N   UNL     1       0.568  11.129  20.395  0.00  0.00    +0.000 N 
ATOM     20  C   UNL     1       1.750   7.781  20.401  0.00  0.00    +0.000 A 
BRANCH  19  21
ATOM     21  C   UNL     1       0.289  12.447  19.831  0.00  0.00    +0.000 C 
BRANCH  21  22
ATOM     22  C   UNL     1       1.539  13.282  19.675  0.00  0.00    +0.000 A 
ATOM     23  C   UNL     1       2.408  13.492  20.760  0.00  0.00    +0.000 A 
ATOM     24  C   UNL     1       3.539  14.303  20.631  0.00  0.00    +0.000 A 
ATOM     25  C   UNL     1       3.829  14.898  19.406  0.00  0.00    +0.000 A 
ATOM     26  C   UNL     1       3.001  14.655  18.318  0.00  0.00    +0.000 A 
ATOM     27  F   UNL     1       3.291  15.210  17.133  0.00  0.00    +0.000 F 
ATOM     28  C   UNL     1       1.868  13.852  18.437  0.00  0.00    +0.000 A 
ENDBRANCH  21  22
ENDBRANCH  19  21
ENDBRANCH   9  12
BRANCH   1  29
ATOM     29  C   UNL     1       4.307   4.029  16.763  0.00  0.00    +0.000 C 
BRANCH  29  33
ATOM     30  C   UNL     1       7.237   6.039  16.566  0.00  0.00    +0.000 C 
ATOM     31  C   UNL     1       7.470   4.868  17.503  0.00  0.00    +0.000 C 
ATOM     32  C   UNL     1       6.151   4.718  18.237  0.00  0.00    +0.000 C 
ATOM     33  N   UNL     1       5.080   5.156  17.313  0.00  0.00    +0.000 NA
ATOM     34  C   UNL     1       5.754   5.874  16.194  0.00  0.00    +0.000 C 
BRANCH  30  35
ATOM     35  N   UNL     1       7.498   7.331  17.205  0.00  0.00    +0.000 NA
ATOM     36  H   UNL     1       6.887   8.042  16.804  0.00  0.00    +0.000 HD
ATOM     37  H   UNL     1       8.453   7.629  16.999  0.00  0.00    +0.000 HD
ENDBRANCH  30  35
ENDBRANCH  29  33
ENDBRANCH   1  29
TORSDOF 6
ENDMDL
MODEL 8
REMARK VINA RESULT:      -9.6      1.208      1.617
REMARK  Name = 
REMARK  6 active torsions:
REMARK  status: ('A' for Active; 'I' for Inactive)
REMARK    1  A    between atoms: N_1  and  C_2
REMARK    2  A    between atoms: N_5  and  C_6
REMARK    3  A    between atoms: C_6  and  C_7
REMARK    4  A    between atoms: N_15  and  C_16
REMARK    5  A    between atoms: N_23  and  C_24
REMARK    6  A    between atoms: C_24  and  C_25
REMARK                            x       y       z     vdW  Elec       q    Type
REMARK                         _______ _______ _______ _____ _____    ______ ____
ROOT
ATOM      1  C   UNL     1       3.613   3.211  17.839  0.00  0.00    +0.000 A 
ATOM      2  C   UNL     1       3.591   1.778  17.850  0.00  0.00    +0.000 A 
ATOM      3  C   UNL     1       2.931   1.374  18.984  0.00  0.00    +0.000 A 
ATOM      4  N   UNL     1       2.564   2.492  19.675  0.00  0.00    +0.000 N 
ATOM      5  N   UNL     1       2.008   2.477  20.893  0.00  0.00    +0.000 NA
ATOM      6  C   UNL     1       1.749   3.655  21.352  0.00  0.00    +0.000 A 
ATOM      7  N   UNL     1       1.923   4.841  20.701  0.00  0.00    +0.000 NA
ATOM      8  C   UNL     1       2.456   4.882  19.512  0.00  0.00    +0.000 A 
ATOM      9  N   UNL     1       2.600   6.078  18.837  0.00  0.00    +0.000 N 
ATOM     10  C   UNL     1       2.885   3.615  18.959  0.00  0.00    +0.000 A 
ATOM     11  H   UNL     1       3.248   6.052  18.049  0.00  0.00    +0.000 HD
ENDROOT
BRANCH   9  12
ATOM     12  C   UNL     1       2.044   7.342  19.140  0.00  0.00    +0.000 A 
ATOM     13  C   UNL     1       1.654   8.277  18.168  0.00  0.00    +0.000 A 
ATOM     14  C   UNL     1       1.067   9.517  18.484  0.00  0.00    +0.000 A 
ATOM     15  C   UNL     1       0.886   9.817  19.837  0.00  0.00    +0.000 A 
ATOM     16  C   UNL     1       1.257   8.921  20.835  0.00  0.00    +0.000 A 
ATOM     17  C   UNL     1       0.920   9.571  22.041  0.00  0.00    +0.000 A 
ATOM     18  N   UNL     1       0.407  10.789  21.849  0.00  0.00    +0.000 NA
ATOM     19  N   UNL     1       0.373  10.912  20.501  0.00  0.00    +0.000 N 
ATOM     20  C   UNL     1       1.834   7.676  20.488  0.00  0.00    +0.000 A 
BRANCH  19  21
ATOM     21  C   UNL     1      -0.104  12.166  19.923  0.00  0.00    +0.000 C 
BRANCH  21  22
ATOM     22  C   UNL     1      -1.573  12.114  19.571  0.00  0.00    +0.000 A 
ATOM     23  C   UNL     1      -2.010  11.512  18.378  0.00  0.00    +0.000 A 
ATOM     24  C   UNL     1      -3.363  11.506  18.028  0.00  0.00    +0.000 A 
ATOM     25  C   UNL     1      -4.302  12.082  18.879  0.00  0.00    +0.000 A 
ATOM     26  C   UNL     1      -3.883  12.634  20.083  0.00  0.00    +0.000 A 
ATOM     27  F   UNL     1      -4.787  13.170  20.912  0.00  0.00    +0.000 F 
ATOM     28  C   UNL     1      -2.535  12.651  20.439  0.00  0.00    +0.000 A 
ENDBRANCH  21  22
ENDBRANCH  19  21
ENDBRANCH   9  12
BRANCH   1  29
ATOM     29  C   UNL     1       4.328   3.987  16.770  0.00  0.00    +0.000 C 
BRANCH  29  33
ATOM     30  C   UNL     1       7.183   6.088  16.451  0.00  0.00    +0.000 C 
ATOM     31  C   UNL     1       7.498   4.916  17.361  0.00  0.00    +0.000 C 
ATOM     32  C   UNL     1       6.222   4.718  18.157  0.00  0.00    +0.000 C 
ATOM     33  N   UNL     1       5.094   5.131  17.293  0.00  0.00    +0.000 NA
ATOM     34  C   UNL     1       5.689   5.881  16.150  0.00  0.00    +0.000 C 
BRANCH  30  35
ATOM     35  N   UNL     1       7.436   7.381  17.091  0.00  0.00    +0.000 NA
ATOM     36  H   UNL     1       8.202   7.289  17.758  0.00  0.00    +0.000 HD
ATOM     37  H   UNL     1       6.619   7.660  17.635  0.00  0.00    +0.000 HD
ENDBRANCH  30  35
ENDBRANCH  29  33
ENDBRANCH   1  29
TORSDOF 6
ENDMDL
MODEL 9
REMARK VINA RESULT:      -9.5      2.239      3.154
REMARK  Name = 
REMARK  6 active torsions:
REMARK  status: ('A' for Active; 'I' for Inactive)
REMARK    1  A    between atoms: N_1  and  C_2
REMARK    2  A    between atoms: N_5  and  C_6
REMARK    3  A    between atoms: C_6  and  C_7
REMARK    4  A    between atoms: N_15  and  C_16
REMARK    5  A    between atoms: N_23  and  C_24
REMARK    6  A    between atoms: C_24  and  C_25
REMARK                            x       y       z     vdW  Elec       q    Type
REMARK                         _______ _______ _______ _____ _____    ______ ____
ROOT
ATOM      1  C   UNL     1       3.935   3.406  17.980  0.00  0.00    +0.000 A 
ATOM      2  C   UNL     1       3.839   1.979  17.890  0.00  0.00    +0.000 A 
ATOM      3  C   UNL     1       2.796   1.574  18.685  0.00  0.00    +0.000 A 
ATOM      4  N   UNL     1       2.261   2.684  19.271  0.00  0.00    +0.000 N 
ATOM      5  N   UNL     1       1.304   2.655  20.207  0.00  0.00    +0.000 NA
ATOM      6  C   UNL     1       0.955   3.828  20.618  0.00  0.00    +0.000 A 
ATOM      7  N   UNL     1       1.410   5.026  20.150  0.00  0.00    +0.000 NA
ATOM      8  C   UNL     1       2.336   5.081  19.235  0.00  0.00    +0.000 A 
ATOM      9  N   UNL     1       2.772   6.291  18.734  0.00  0.00    +0.000 N 
ATOM     10  C   UNL     1       2.873   3.811  18.790  0.00  0.00    +0.000 A 
ATOM     11  H   UNL     1       3.658   6.255  18.229  0.00  0.00    +0.000 HD
ENDROOT
BRANCH   9  12
ATOM     12  C   UNL     1       2.207   7.577  18.900  0.00  0.00    +0.000 A 
ATOM     13  C   UNL     1       2.000   8.481  17.846  0.00  0.00    +0.000 A 
ATOM     14  C   UNL     1       1.402   9.743  18.020  0.00  0.00    +0.000 A 
ATOM     15  C   UNL     1       1.016  10.099  19.316  0.00  0.00    +0.000 A 
ATOM     16  C   UNL     1       1.200   9.235  20.390  0.00  0.00    +0.000 A 
ATOM     17  C   UNL     1       0.692   9.937  21.503  0.00  0.00    +0.000 A 
ATOM     18  N   UNL     1       0.247  11.156  21.190  0.00  0.00    +0.000 NA
ATOM     19  N   UNL     1       0.431  11.229  19.850  0.00  0.00    +0.000 N 
ATOM     20  C   UNL     1       1.793   7.966  20.184  0.00  0.00    +0.000 A 
BRANCH  19  21
ATOM     21  C   UNL     1       0.084  12.468  19.159  0.00  0.00    +0.000 C 
BRANCH  21  22
ATOM     22  C   UNL     1       1.220  13.465  19.164  0.00  0.00    +0.000 A 
ATOM     23  C   UNL     1       2.305  13.330  18.280  0.00  0.00    +0.000 A 
ATOM     24  C   UNL     1       3.379  14.223  18.315  0.00  0.00    +0.000 A 
ATOM     25  C   UNL     1       3.373  15.280  19.221  0.00  0.00    +0.000 A 
ATOM     26  C   UNL     1       2.281  15.449  20.063  0.00  0.00    +0.000 A 
ATOM     27  F   UNL     1       2.263  16.477  20.921  0.00  0.00    +0.000 F 
ATOM     28  C   UNL     1       1.207  14.561  20.040  0.00  0.00    +0.000 A 
ENDBRANCH  21  22
ENDBRANCH  19  21
ENDBRANCH   9  12
BRANCH   1  29
ATOM     29  C   UNL     1       5.023   4.176  17.288  0.00  0.00    +0.000 C 
BRANCH  29  33
ATOM     30  C   UNL     1       7.313   5.951  19.355  0.00  0.00    +0.000 C 
ATOM     31  C   UNL     1       7.666   6.153  17.893  0.00  0.00    +0.000 C 
ATOM     32  C   UNL     1       7.402   4.799  17.263  0.00  0.00    +0.000 C 
ATOM     33  N   UNL     1       6.301   4.166  18.022  0.00  0.00    +0.000 NA
ATOM     34  C   UNL     1       6.145   4.954  19.278  0.00  0.00    +0.000 C 
BRANCH  30  35
ATOM     35  N   UNL     1       8.433   5.420  20.136  0.00  0.00    +0.000 NA
ATOM     36  H   UNL     1       9.289   5.917  19.890  0.00  0.00    +0.000 HD
ATOM     37  H   UNL     1       8.592   4.443  19.887  0.00  0.00    +0.000 HD
ENDBRANCH  30  35
ENDBRANCH  29  33
ENDBRANCH   1  29
TORSDOF 6
ENDMDL
