MODEL 1
REMARK VINA RESULT:      -6.4      0.000      0.000
REMARK  Name = 
REMARK  14 active torsions:
REMARK  status: ('A' for Active; 'I' for Inactive)
REMARK    1  A    between atoms: C_2  and  C_3
REMARK    2  A    between atoms: C_3  and  C_4
REMARK    3  A    between atoms: C_7  and  O_8
REMARK    4  A    between atoms: O_8  and  C_9
REMARK    5  A    between atoms: C_9  and  C_10
REMARK    6  A    between atoms: C_10  and  C_11
REMARK    7  A    between atoms: C_11  and  C_12
REMARK    8  A    between atoms: C_12  and  N_13
REMARK    9  A    between atoms: N_13  and  C_14
REMARK   10  A    between atoms: C_14  and  C_15
REMARK   11  A    between atoms: C_14  and  C_16
REMARK   12  A    between atoms: C_16  and  C_17
REMARK   13  A    between atoms: C_18  and  O_19
REMARK   14  A    between atoms: O_19  and  C_20
REMARK                            x       y       z     vdW  Elec       q    Type
REMARK                         _______ _______ _______ _____ _____    ______ ____
ROOT
ATOM      1  C   UNL     1       6.279   4.435  14.531  0.00  0.00    +0.000 A 
ATOM      2  C   UNL     1       5.698   3.464  15.343  0.00  0.00    +0.000 A 
ATOM      3  C   UNL     1       5.439   3.773  16.675  0.00  0.00    +0.000 A 
ATOM      4  C   UNL     1       5.805   5.004  17.219  0.00  0.00    +0.000 A 
ATOM      5  C   UNL     1       6.271   6.013  16.383  0.00  0.00    +0.000 A 
ATOM      6  C   UNL     1       6.491   5.718  15.035  0.00  0.00    +0.000 A 
ENDROOT
BRANCH   5   7
ATOM      7  O   UNL     1       6.623   7.304  16.677  0.00  0.00    +0.000 OA
ATOM      8  C   UNL     1       7.708   7.526  17.562  0.00  0.00    +0.000 C 
ENDBRANCH   5   7
BRANCH   1   9
ATOM      9  C   UNL     1       6.693   4.131  13.117  0.00  0.00    +0.000 C 
BRANCH   9  11
ATOM     10  C   UNL     1       5.613   2.284  11.659  0.00  0.00    +0.000 C 
ATOM     11  C   UNL     1       5.606   3.453  12.317  0.00  0.00    +0.000 C 
ENDBRANCH   9  11
ENDBRANCH   1   9
BRANCH   4  12
ATOM     12  O   UNL     1       5.747   5.193  18.577  0.00  0.00    +0.000 OA
BRANCH  12  13
ATOM     13  C   UNL     1       4.398   5.108  19.047  0.00  0.00    +0.000 C 
BRANCH  13  14
ATOM     14  C   UNL     1       3.581   6.233  18.466  0.00  0.00    +0.000 C 
BRANCH  14  15
ATOM     15  C   UNL     1       2.169   5.724  18.201  0.00  0.00    +0.000 C 
BRANCH  15  16
ATOM     16  C   UNL     1       2.251   4.295  17.708  0.00  0.00    +0.000 C 
BRANCH  16  17
ATOM     17  N   UNL     1       1.000   3.601  17.977  0.00  0.00    +0.000 NA
ATOM     18  H   UNL     1       0.660   3.165  17.118  0.00  0.00    +0.000 HD
BRANCH  17  19
ATOM     19  C   UNL     1       1.165   2.574  19.016  0.00  0.00    +0.000 C 
ATOM     20  C   UNL     1       2.568   1.954  18.968  0.00  0.00    +0.000 C 
BRANCH  19  21
ATOM     21  C   UNL     1       0.878   3.239  20.373  0.00  0.00    +0.000 C 
ATOM     22  C   UNL     1       1.646   2.600  21.520  0.00  0.00    +0.000 C 
ENDBRANCH  19  21
ENDBRANCH  17  19
ENDBRANCH  16  17
ENDBRANCH  15  16
ENDBRANCH  14  15
ENDBRANCH  13  14
ENDBRANCH  12  13
ENDBRANCH   4  12
TORSDOF 11
ENDMDL
MODEL 2
REMARK VINA RESULT:      -6.3      1.990      6.307
REMARK  Name = 
REMARK  14 active torsions:
REMARK  status: ('A' for Active; 'I' for Inactive)
REMARK    1  A    between atoms: C_2  and  C_3
REMARK    2  A    between atoms: C_3  and  C_4
REMARK    3  A    between atoms: C_7  and  O_8
REMARK    4  A    between atoms: O_8  and  C_9
REMARK    5  A    between atoms: C_9  and  C_10
REMARK    6  A    between atoms: C_10  and  C_11
REMARK    7  A    between atoms: C_11  and  C_12
REMARK    8  A    between atoms: C_12  and  N_13
REMARK    9  A    between atoms: N_13  and  C_14
REMARK   10  A    between atoms: C_14  and  C_15
REMARK   11  A    between atoms: C_14  and  C_16
REMARK   12  A    between atoms: C_16  and  C_17
REMARK   13  A    between atoms: C_18  and  O_19
REMARK   14  A    between atoms: O_19  and  C_20
REMARK                            x       y       z     vdW  Elec       q    Type
REMARK                         _______ _______ _______ _____ _____    ______ ____
ROOT
ATOM      1  C   UNL     1       2.846   4.099  18.383  0.00  0.00    +0.000 A 
ATOM      2  C   UNL     1       4.017   3.490  18.830  0.00  0.00    +0.000 A 
ATOM      3  C   UNL     1       5.188   4.241  18.868  0.00  0.00    +0.000 A 
ATOM      4  C   UNL     1       5.222   5.558  18.412  0.00  0.00    +0.000 A 
ATOM      5  C   UNL     1       4.034   6.201  18.083  0.00  0.00    +0.000 A 
ATOM      6  C   UNL     1       2.849   5.461  18.086  0.00  0.00    +0.000 A 
ENDROOT
BRANCH   5   7
ATOM      7  O   UNL     1       3.817   7.492  17.681  0.00  0.00    +0.000 OA
ATOM      8  C   UNL     1       2.602   8.122  18.048  0.00  0.00    +0.000 C 
ENDBRANCH   5   7
BRANCH   1   9
ATOM      9  C   UNL     1       1.573   3.317  18.205  0.00  0.00    +0.000 C 
BRANCH   9  11
ATOM     10  C   UNL     1       1.038   3.555  20.727  0.00  0.00    +0.000 C 
ATOM     11  C   UNL     1       0.884   3.006  19.512  0.00  0.00    +0.000 C 
ENDBRANCH   9  11
ENDBRANCH   1   9
BRANCH   4  12
ATOM     12  O   UNL     1       6.428   6.192  18.250  0.00  0.00    +0.000 OA
BRANCH  12  13
ATOM     13  C   UNL     1       6.669   6.483  16.870  0.00  0.00    +0.000 C 
BRANCH  13  14
ATOM     14  C   UNL     1       7.038   5.220  16.136  0.00  0.00    +0.000 C 
BRANCH  14  15
ATOM     15  C   UNL     1       5.997   4.965  15.050  0.00  0.00    +0.000 C 
BRANCH  15  16
ATOM     16  C   UNL     1       6.705   4.497  13.796  0.00  0.00    +0.000 C 
BRANCH  16  17
ATOM     17  N   UNL     1       6.196   3.195  13.392  0.00  0.00    +0.000 NA
ATOM     18  H   UNL     1       5.329   2.997  13.894  0.00  0.00    +0.000 HD
BRANCH  17  19
ATOM     19  C   UNL     1       5.949   3.138  11.944  0.00  0.00    +0.000 C 
ATOM     20  C   UNL     1       6.052   1.700  11.417  0.00  0.00    +0.000 C 
BRANCH  19  21
ATOM     21  C   UNL     1       4.559   3.744  11.688  0.00  0.00    +0.000 C 
ATOM     22  C   UNL     1       3.639   2.812  10.916  0.00  0.00    +0.000 C 
ENDBRANCH  19  21
ENDBRANCH  17  19
ENDBRANCH  16  17
ENDBRANCH  15  16
ENDBRANCH  14  15
ENDBRANCH  13  14
ENDBRANCH  12  13
ENDBRANCH   4  12
TORSDOF 11
ENDMDL
MODEL 3
REMARK VINA RESULT:      -6.2      1.800      4.491
REMARK  Name = 
REMARK  14 active torsions:
REMARK  status: ('A' for Active; 'I' for Inactive)
REMARK    1  A    between atoms: C_2  and  C_3
REMARK    2  A    between atoms: C_3  and  C_4
REMARK    3  A    between atoms: C_7  and  O_8
REMARK    4  A    between atoms: O_8  and  C_9
REMARK    5  A    between atoms: C_9  and  C_10
REMARK    6  A    between atoms: C_10  and  C_11
REMARK    7  A    between atoms: C_11  and  C_12
REMARK    8  A    between atoms: C_12  and  N_13
REMARK    9  A    between atoms: N_13  and  C_14
REMARK   10  A    between atoms: C_14  and  C_15
REMARK   11  A    between atoms: C_14  and  C_16
REMARK   12  A    between atoms: C_16  and  C_17
REMARK   13  A    between atoms: C_18  and  O_19
REMARK   14  A    between atoms: O_19  and  C_20
REMARK                            x       y       z     vdW  Elec       q    Type
REMARK                         _______ _______ _______ _____ _____    ______ ____
ROOT
ATOM      1  C   UNL     1       7.784   7.686  17.731  0.00  0.00    +0.000 A 
ATOM      2  C   UNL     1       8.019   6.821  18.798  0.00  0.00    +0.000 A 
ATOM      3  C   UNL     1       7.564   5.510  18.709  0.00  0.00    +0.000 A 
ATOM      4  C   UNL     1       6.828   5.069  17.608  0.00  0.00    +0.000 A 
ATOM      5  C   UNL     1       6.700   5.893  16.496  0.00  0.00    +0.000 A 
ATOM      6  C   UNL     1       7.195   7.197  16.566  0.00  0.00    +0.000 A 
ENDROOT
BRANCH   5   7
ATOM      7  O   UNL     1       6.089   5.654  15.293  0.00  0.00    +0.000 OA
ATOM      8  C   UNL     1       6.744   4.817  14.354  0.00  0.00    +0.000 C 
ENDBRANCH   5   7
BRANCH   1   9
ATOM      9  C   UNL     1       8.144   9.145  17.809  0.00  0.00    +0.000 C 
BRANCH   9  11
ATOM     10  C   UNL     1       9.493  10.652  19.424  0.00  0.00    +0.000 C 
ATOM     11  C   UNL     1       9.029   9.472  18.989  0.00  0.00    +0.000 C 
ENDBRANCH   9  11
ENDBRANCH   1   9
BRANCH   4  12
ATOM     12  O   UNL     1       6.201   3.850  17.652  0.00  0.00    +0.000 OA
BRANCH  12  13
ATOM     13  C   UNL     1       4.971   3.934  18.377  0.00  0.00    +0.000 C 
BRANCH  13  14
ATOM     14  C   UNL     1       3.838   4.241  17.432  0.00  0.00    +0.000 C 
BRANCH  14  15
ATOM     15  C   UNL     1       3.095   5.470  17.944  0.00  0.00    +0.000 C 
BRANCH  15  16
ATOM     16  C   UNL     1       3.165   5.487  19.456  0.00  0.00    +0.000 C 
BRANCH  16  17
ATOM     17  N   UNL     1       1.842   5.724  20.015  0.00  0.00    +0.000 NA
ATOM     18  H   UNL     1       1.207   6.018  19.272  0.00  0.00    +0.000 HD
BRANCH  17  19
ATOM     19  C   UNL     1       1.309   4.520  20.669  0.00  0.00    +0.000 C 
ATOM     20  C   UNL     1       0.870   3.473  19.636  0.00  0.00    +0.000 C 
BRANCH  19  21
ATOM     21  C   UNL     1       2.404   3.979  21.604  0.00  0.00    +0.000 C 
ATOM     22  C   UNL     1       2.524   2.464  21.561  0.00  0.00    +0.000 C 
ENDBRANCH  19  21
ENDBRANCH  17  19
ENDBRANCH  16  17
ENDBRANCH  15  16
ENDBRANCH  14  15
ENDBRANCH  13  14
ENDBRANCH  12  13
ENDBRANCH   4  12
TORSDOF 11
ENDMDL
MODEL 4
REMARK VINA RESULT:      -6.1      1.607      2.328
REMARK  Name = 
REMARK  14 active torsions:
REMARK  status: ('A' for Active; 'I' for Inactive)
REMARK    1  A    between atoms: C_2  and  C_3
REMARK    2  A    between atoms: C_3  and  C_4
REMARK    3  A    between atoms: C_7  and  O_8
REMARK    4  A    between atoms: O_8  and  C_9
REMARK    5  A    between atoms: C_9  and  C_10
REMARK    6  A    between atoms: C_10  and  C_11
REMARK    7  A    between atoms: C_11  and  C_12
REMARK    8  A    between atoms: C_12  and  N_13
REMARK    9  A    between atoms: N_13  and  C_14
REMARK   10  A    between atoms: C_14  and  C_15
REMARK   11  A    between atoms: C_14  and  C_16
REMARK   12  A    between atoms: C_16  and  C_17
REMARK   13  A    between atoms: C_18  and  O_19
REMARK   14  A    between atoms: O_19  and  C_20
REMARK                            x       y       z     vdW  Elec       q    Type
REMARK                         _______ _______ _______ _____ _____    ______ ____
ROOT
ATOM      1  C   UNL     1       5.967   4.670  15.841  0.00  0.00    +0.000 A 
ATOM      2  C   UNL     1       4.888   5.527  15.640  0.00  0.00    +0.000 A 
ATOM      3  C   UNL     1       4.344   6.187  16.737  0.00  0.00    +0.000 A 
ATOM      4  C   UNL     1       4.814   5.957  18.030  0.00  0.00    +0.000 A 
ATOM      5  C   UNL     1       5.965   5.199  18.216  0.00  0.00    +0.000 A 
ATOM      6  C   UNL     1       6.540   4.571  17.109  0.00  0.00    +0.000 A 
ENDROOT
BRANCH   5   7
ATOM      7  O   UNL     1       6.641   4.899  19.369  0.00  0.00    +0.000 OA
ATOM      8  C   UNL     1       7.801   5.648  19.690  0.00  0.00    +0.000 C 
ENDBRANCH   5   7
BRANCH   1   9
ATOM      9  C   UNL     1       6.528   3.837  14.721  0.00  0.00    +0.000 C 
BRANCH   9  11
ATOM     10  C   UNL     1       5.652   3.279  12.350  0.00  0.00    +0.000 C 
ATOM     11  C   UNL     1       5.848   4.094  13.397  0.00  0.00    +0.000 C 
ENDBRANCH   9  11
ENDBRANCH   1   9
BRANCH   4  12
ATOM     12  O   UNL     1       4.114   6.442  19.106  0.00  0.00    +0.000 OA
BRANCH  12  13
ATOM     13  C   UNL     1       3.500   5.376  19.836  0.00  0.00    +0.000 C 
BRANCH  13  14
ATOM     14  C   UNL     1       2.082   5.747  20.189  0.00  0.00    +0.000 C 
BRANCH  14  15
ATOM     15  C   UNL     1       1.328   4.478  20.573  0.00  0.00    +0.000 C 
BRANCH  15  16
ATOM     16  C   UNL     1       1.140   3.629  19.333  0.00  0.00    +0.000 C 
BRANCH  16  17
ATOM     17  N   UNL     1       1.884   2.384  19.463  0.00  0.00    +0.000 NA
ATOM     18  H   UNL     1       1.238   1.623  19.678  0.00  0.00    +0.000 HD
BRANCH  17  19
ATOM     19  C   UNL     1       2.626   2.068  18.234  0.00  0.00    +0.000 C 
ATOM     20  C   UNL     1       2.391   3.132  17.153  0.00  0.00    +0.000 C 
BRANCH  19  21
ATOM     21  C   UNL     1       4.112   1.949  18.608  0.00  0.00    +0.000 C 
ATOM     22  C   UNL     1       4.350   1.980  20.110  0.00  0.00    +0.000 C 
ENDBRANCH  19  21
ENDBRANCH  17  19
ENDBRANCH  16  17
ENDBRANCH  15  16
ENDBRANCH  14  15
ENDBRANCH  13  14
ENDBRANCH  12  13
ENDBRANCH   4  12
TORSDOF 11
ENDMDL
MODEL 5
REMARK VINA RESULT:      -6.1      1.901      4.168
REMARK  Name = 
REMARK  14 active torsions:
REMARK  status: ('A' for Active; 'I' for Inactive)
REMARK    1  A    between atoms: C_2  and  C_3
REMARK    2  A    between atoms: C_3  and  C_4
REMARK    3  A    between atoms: C_7  and  O_8
REMARK    4  A    between atoms: O_8  and  C_9
REMARK    5  A    between atoms: C_9  and  C_10
REMARK    6  A    between atoms: C_10  and  C_11
REMARK    7  A    between atoms: C_11  and  C_12
REMARK    8  A    between atoms: C_12  and  N_13
REMARK    9  A    between atoms: N_13  and  C_14
REMARK   10  A    between atoms: C_14  and  C_15
REMARK   11  A    between atoms: C_14  and  C_16
REMARK   12  A    between atoms: C_16  and  C_17
REMARK   13  A    between atoms: C_18  and  O_19
REMARK   14  A    between atoms: O_19  and  C_20
REMARK                            x       y       z     vdW  Elec       q    Type
REMARK                         _______ _______ _______ _____ _____    ______ ____
ROOT
ATOM      1  C   UNL     1       7.014   5.386  18.458  0.00  0.00    +0.000 A 
ATOM      2  C   UNL     1       5.772   5.280  19.081  0.00  0.00    +0.000 A 
ATOM      3  C   UNL     1       4.731   4.661  18.397  0.00  0.00    +0.000 A 
ATOM      4  C   UNL     1       4.891   4.206  17.088  0.00  0.00    +0.000 A 
ATOM      5  C   UNL     1       6.157   4.201  16.514  0.00  0.00    +0.000 A 
ATOM      6  C   UNL     1       7.214   4.783  17.217  0.00  0.00    +0.000 A 
ENDROOT
BRANCH   5   7
ATOM      7  O   UNL     1       6.562   3.747  15.286  0.00  0.00    +0.000 OA
ATOM      8  C   UNL     1       6.794   4.693  14.256  0.00  0.00    +0.000 C 
ENDBRANCH   5   7
BRANCH   1   9
ATOM      9  C   UNL     1       8.148   6.146  19.091  0.00  0.00    +0.000 C 
BRANCH   9  11
ATOM     10  C   UNL     1       7.614   8.180  17.582  0.00  0.00    +0.000 C 
ATOM     11  C   UNL     1       8.285   7.553  18.559  0.00  0.00    +0.000 C 
ENDBRANCH   9  11
ENDBRANCH   1   9
BRANCH   4  12
ATOM     12  O   UNL     1       3.793   3.811  16.366  0.00  0.00    +0.000 OA
BRANCH  12  13
ATOM     13  C   UNL     1       2.720   3.433  17.233  0.00  0.00    +0.000 C 
BRANCH  13  14
ATOM     14  C   UNL     1       2.855   1.980  17.611  0.00  0.00    +0.000 C 
BRANCH  14  15
ATOM     15  C   UNL     1       1.956   1.704  18.812  0.00  0.00    +0.000 C 
BRANCH  15  16
ATOM     16  C   UNL     1       0.902   2.788  18.891  0.00  0.00    +0.000 C 
BRANCH  16  17
ATOM     17  N   UNL     1       0.448   2.944  20.266  0.00  0.00    +0.000 NA
ATOM     18  H   UNL     1       0.628   2.082  20.783  0.00  0.00    +0.000 HD
BRANCH  17  19
ATOM     19  C   UNL     1       1.124   4.067  20.932  0.00  0.00    +0.000 C 
ATOM     20  C   UNL     1       2.407   3.607  21.637  0.00  0.00    +0.000 C 
BRANCH  19  21
ATOM     21  C   UNL     1       1.408   5.136  19.863  0.00  0.00    +0.000 C 
ATOM     22  C   UNL     1       2.094   6.370  20.427  0.00  0.00    +0.000 C 
ENDBRANCH  19  21
ENDBRANCH  17  19
ENDBRANCH  16  17
ENDBRANCH  15  16
ENDBRANCH  14  15
ENDBRANCH  13  14
ENDBRANCH  12  13
ENDBRANCH   4  12
TORSDOF 11
ENDMDL
MODEL 6
REMARK VINA RESULT:      -6.1      1.465      3.091
REMARK  Name = 
REMARK  14 active torsions:
REMARK  status: ('A' for Active; 'I' for Inactive)
REMARK    1  A    between atoms: C_2  and  C_3
REMARK    2  A    between atoms: C_3  and  C_4
REMARK    3  A    between atoms: C_7  and  O_8
REMARK    4  A    between atoms: O_8  and  C_9
REMARK    5  A    between atoms: C_9  and  C_10
REMARK    6  A    between atoms: C_10  and  C_11
REMARK    7  A    between atoms: C_11  and  C_12
REMARK    8  A    between atoms: C_12  and  N_13
REMARK    9  A    between atoms: N_13  and  C_14
REMARK   10  A    between atoms: C_14  and  C_15
REMARK   11  A    between atoms: C_14  and  C_16
REMARK   12  A    between atoms: C_16  and  C_17
REMARK   13  A    between atoms: C_18  and  O_19
REMARK   14  A    between atoms: O_19  and  C_20
REMARK                            x       y       z     vdW  Elec       q    Type
REMARK                         _______ _______ _______ _____ _____    ______ ____
ROOT
ATOM      1  C   UNL     1       5.488   4.717  16.122  0.00  0.00    +0.000 A 
ATOM      2  C   UNL     1       4.601   3.671  16.370  0.00  0.00    +0.000 A 
ATOM      3  C   UNL     1       4.386   3.274  17.685  0.00  0.00    +0.000 A 
ATOM      4  C   UNL     1       5.082   3.858  18.744  0.00  0.00    +0.000 A 
ATOM      5  C   UNL     1       5.871   4.978  18.511  0.00  0.00    +0.000 A 
ATOM      6  C   UNL     1       6.054   5.406  17.194  0.00  0.00    +0.000 A 
ENDROOT
BRANCH   5   7
ATOM      7  O   UNL     1       6.584   5.748  19.391  0.00  0.00    +0.000 OA
ATOM      8  C   UNL     1       7.998   5.650  19.387  0.00  0.00    +0.000 C 
ENDBRANCH   5   7
BRANCH   1   9
ATOM      9  C   UNL     1       5.856   5.119  14.720  0.00  0.00    +0.000 C 
BRANCH   9  11
ATOM     10  C   UNL     1       5.784   3.474  12.723  0.00  0.00    +0.000 C 
ATOM     11  C   UNL     1       6.294   3.951  13.868  0.00  0.00    +0.000 C 
ENDBRANCH   9  11
ENDBRANCH   1   9
BRANCH   4  12
ATOM     12  O   UNL     1       5.019   3.294  19.994  0.00  0.00    +0.000 OA
BRANCH  12  13
ATOM     13  C   UNL     1       4.056   2.237  20.029  0.00  0.00    +0.000 C 
BRANCH  13  14
ATOM     14  C   UNL     1       2.939   2.592  20.977  0.00  0.00    +0.000 C 
BRANCH  14  15
ATOM     15  C   UNL     1       1.610   2.440  20.244  0.00  0.00    +0.000 C 
BRANCH  15  16
ATOM     16  C   UNL     1       0.963   3.804  20.122  0.00  0.00    +0.000 C 
BRANCH  16  17
ATOM     17  N   UNL     1       1.449   4.483  18.931  0.00  0.00    +0.000 NA
ATOM     18  H   UNL     1       0.732   4.451  18.204  0.00  0.00    +0.000 HD
BRANCH  17  19
ATOM     19  C   UNL     1       1.800   5.883  19.213  0.00  0.00    +0.000 C 
ATOM     20  C   UNL     1       2.633   6.000  20.497  0.00  0.00    +0.000 C 
BRANCH  19  21
ATOM     21  C   UNL     1       2.553   6.427  17.988  0.00  0.00    +0.000 C 
ATOM     22  C   UNL     1       2.663   7.944  17.985  0.00  0.00    +0.000 C 
ENDBRANCH  19  21
ENDBRANCH  17  19
ENDBRANCH  16  17
ENDBRANCH  15  16
ENDBRANCH  14  15
ENDBRANCH  13  14
ENDBRANCH  12  13
ENDBRANCH   4  12
TORSDOF 11
ENDMDL
MODEL 7
REMARK VINA RESULT:      -6.0      1.537      2.187
REMARK  Name = 
REMARK  14 active torsions:
REMARK  status: ('A' for Active; 'I' for Inactive)
REMARK    1  A    between atoms: C_2  and  C_3
REMARK    2  A    between atoms: C_3  and  C_4
REMARK    3  A    between atoms: C_7  and  O_8
REMARK    4  A    between atoms: O_8  and  C_9
REMARK    5  A    between atoms: C_9  and  C_10
REMARK    6  A    between atoms: C_10  and  C_11
REMARK    7  A    between atoms: C_11  and  C_12
REMARK    8  A    between atoms: C_12  and  N_13
REMARK    9  A    between atoms: N_13  and  C_14
REMARK   10  A    between atoms: C_14  and  C_15
REMARK   11  A    between atoms: C_14  and  C_16
REMARK   12  A    between atoms: C_16  and  C_17
REMARK   13  A    between atoms: C_18  and  O_19
REMARK   14  A    between atoms: O_19  and  C_20
REMARK                            x       y       z     vdW  Elec       q    Type
REMARK                         _______ _______ _______ _____ _____    ______ ____
ROOT
ATOM      1  C   UNL     1       6.371   4.750  14.678  0.00  0.00    +0.000 A 
ATOM      2  C   UNL     1       5.396   5.741  14.588  0.00  0.00    +0.000 A 
ATOM      3  C   UNL     1       4.927   6.327  15.760  0.00  0.00    +0.000 A 
ATOM      4  C   UNL     1       5.367   5.899  17.012  0.00  0.00    +0.000 A 
ATOM      5  C   UNL     1       6.424   5.000  17.098  0.00  0.00    +0.000 A 
ATOM      6  C   UNL     1       6.926   4.443  15.920  0.00  0.00    +0.000 A 
ENDROOT
BRANCH   5   7
ATOM      7  O   UNL     1       7.059   4.496  18.202  0.00  0.00    +0.000 OA
ATOM      8  C   UNL     1       7.835   5.374  18.999  0.00  0.00    +0.000 C 
ENDBRANCH   5   7
BRANCH   1   9
ATOM      9  C   UNL     1       6.836   3.993  13.464  0.00  0.00    +0.000 C 
BRANCH   9  11
ATOM     10  C   UNL     1       4.892   3.467  11.838  0.00  0.00    +0.000 C 
ATOM     11  C   UNL     1       5.744   3.166  12.830  0.00  0.00    +0.000 C 
ENDBRANCH   9  11
ENDBRANCH   1   9
BRANCH   4  12
ATOM     12  O   UNL     1       4.723   6.332  18.144  0.00  0.00    +0.000 OA
BRANCH  12  13
ATOM     13  C   UNL     1       3.740   7.321  17.826  0.00  0.00    +0.000 C 
BRANCH  13  14
ATOM     14  C   UNL     1       2.528   7.140  18.702  0.00  0.00    +0.000 C 
BRANCH  14  15
ATOM     15  C   UNL     1       2.108   5.674  18.657  0.00  0.00    +0.000 C 
BRANCH  15  16
ATOM     16  C   UNL     1       2.344   5.057  20.020  0.00  0.00    +0.000 C 
BRANCH  16  17
ATOM     17  N   UNL     1       3.365   4.023  19.929  0.00  0.00    +0.000 NA
ATOM     18  H   UNL     1       4.101   4.211  20.612  0.00  0.00    +0.000 HD
BRANCH  17  19
ATOM     19  C   UNL     1       2.801   2.687  20.170  0.00  0.00    +0.000 C 
ATOM     20  C   UNL     1       1.463   2.773  20.916  0.00  0.00    +0.000 C 
BRANCH  19  21
ATOM     21  C   UNL     1       2.654   1.994  18.805  0.00  0.00    +0.000 C 
ATOM     22  C   UNL     1       3.700   2.443  17.796  0.00  0.00    +0.000 C 
ENDBRANCH  19  21
ENDBRANCH  17  19
ENDBRANCH  16  17
ENDBRANCH  15  16
ENDBRANCH  14  15
ENDBRANCH  13  14
ENDBRANCH  12  13
ENDBRANCH   4  12
TORSDOF 11
ENDMDL
MODEL 8
REMARK VINA RESULT:      -6.0      2.615      7.222
REMARK  Name = 
REMARK  14 active torsions:
REMARK  status: ('A' for Active; 'I' for Inactive)
REMARK    1  A    between atoms: C_2  and  C_3
REMARK    2  A    between atoms: C_3  and  C_4
REMARK    3  A    between atoms: C_7  and  O_8
REMARK    4  A    between atoms: O_8  and  C_9
REMARK    5  A    between atoms: C_9  and  C_10
REMARK    6  A    between atoms: C_10  and  C_11
REMARK    7  A    between atoms: C_11  and  C_12
REMARK    8  A    between atoms: C_12  and  N_13
REMARK    9  A    between atoms: N_13  and  C_14
REMARK   10  A    between atoms: C_14  and  C_15
REMARK   11  A    between atoms: C_14  and  C_16
REMARK   12  A    between atoms: C_16  and  C_17
REMARK   13  A    between atoms: C_18  and  O_19
REMARK   14  A    between atoms: O_19  and  C_20
REMARK                            x       y       z     vdW  Elec       q    Type
REMARK                         _______ _______ _______ _____ _____    ______ ____
ROOT
ATOM      1  C   UNL     1       2.399   6.679  19.665  0.00  0.00    +0.000 A 
ATOM      2  C   UNL     1       2.400   7.607  18.626  0.00  0.00    +0.000 A 
ATOM      3  C   UNL     1       3.390   7.520  17.653  0.00  0.00    +0.000 A 
ATOM      4  C   UNL     1       4.408   6.570  17.734  0.00  0.00    +0.000 A 
ATOM      5  C   UNL     1       4.337   5.571  18.699  0.00  0.00    +0.000 A 
ATOM      6  C   UNL     1       3.318   5.631  19.652  0.00  0.00    +0.000 A 
ENDROOT
BRANCH   5   7
ATOM      7  O   UNL     1       5.173   4.509  18.925  0.00  0.00    +0.000 OA
ATOM      8  C   UNL     1       4.622   3.314  19.452  0.00  0.00    +0.000 C 
ENDBRANCH   5   7
BRANCH   1   9
ATOM      9  C   UNL     1       1.430   6.786  20.811  0.00  0.00    +0.000 C 
BRANCH   9  11
ATOM     10  C   UNL     1       0.013   8.901  21.277  0.00  0.00    +0.000 C 
ATOM     11  C   UNL     1       1.163   8.213  21.227  0.00  0.00    +0.000 C 
ENDBRANCH   9  11
ENDBRANCH   1   9
BRANCH   4  12
ATOM     12  O   UNL     1       5.489   6.655  16.893  0.00  0.00    +0.000 OA
BRANCH  12  13
ATOM     13  C   UNL     1       5.380   5.711  15.824  0.00  0.00    +0.000 C 
BRANCH  13  14
ATOM     14  C   UNL     1       6.630   4.872  15.751  0.00  0.00    +0.000 C 
BRANCH  14  15
ATOM     15  C   UNL     1       6.326   3.614  14.944  0.00  0.00    +0.000 C 
BRANCH  15  16
ATOM     16  C   UNL     1       5.755   4.022  13.602  0.00  0.00    +0.000 C 
BRANCH  16  17
ATOM     17  N   UNL     1       6.576   3.485  12.526  0.00  0.00    +0.000 NA
ATOM     18  H   UNL     1       7.210   2.778  12.902  0.00  0.00    +0.000 HD
BRANCH  17  19
ATOM     19  C   UNL     1       5.751   2.891  11.464  0.00  0.00    +0.000 C 
ATOM     20  C   UNL     1       5.981   1.377  11.360  0.00  0.00    +0.000 C 
BRANCH  19  21
ATOM     21  C   UNL     1       4.284   3.229  11.774  0.00  0.00    +0.000 C 
ATOM     22  C   UNL     1       3.481   3.582  10.532  0.00  0.00    +0.000 C 
ENDBRANCH  19  21
ENDBRANCH  17  19
ENDBRANCH  16  17
ENDBRANCH  15  16
ENDBRANCH  14  15
ENDBRANCH  13  14
ENDBRANCH  12  13
ENDBRANCH   4  12
TORSDOF 11
ENDMDL
MODEL 9
REMARK VINA RESULT:      -6.0      1.697      4.591
REMARK  Name = 
REMARK  14 active torsions:
REMARK  status: ('A' for Active; 'I' for Inactive)
REMARK    1  A    between atoms: C_2  and  C_3
REMARK    2  A    between atoms: C_3  and  C_4
REMARK    3  A    between atoms: C_7  and  O_8
REMARK    4  A    between atoms: O_8  and  C_9
REMARK    5  A    between atoms: C_9  and  C_10
REMARK    6  A    between atoms: C_10  and  C_11
REMARK    7  A    between atoms: C_11  and  C_12
REMARK    8  A    between atoms: C_12  and  N_13
REMARK    9  A    between atoms: N_13  and  C_14
REMARK   10  A    between atoms: C_14  and  C_15
REMARK   11  A    between atoms: C_14  and  C_16
REMARK   12  A    between atoms: C_16  and  C_17
REMARK   13  A    between atoms: C_18  and  O_19
REMARK   14  A    between atoms: O_19  and  C_20
REMARK                            x       y       z     vdW  Elec       q    Type
REMARK                         _______ _______ _______ _____ _____    ______ ____
ROOT
ATOM      1  C   UNL     1       7.990   8.038  17.975  0.00  0.00    +0.000 A 
ATOM      2  C   UNL     1       8.317   7.224  19.058  0.00  0.00    +0.000 A 
ATOM      3  C   UNL     1       7.969   5.878  19.012  0.00  0.00    +0.000 A 
ATOM      4  C   UNL     1       7.250   5.350  17.940  0.00  0.00    +0.000 A 
ATOM      5  C   UNL     1       7.031   6.130  16.810  0.00  0.00    +0.000 A 
ATOM      6  C   UNL     1       7.419   7.472  16.836  0.00  0.00    +0.000 A 
ENDROOT
BRANCH   5   7
ATOM      7  O   UNL     1       6.418   5.810  15.627  0.00  0.00    +0.000 OA
ATOM      8  C   UNL     1       7.017   4.831  14.795  0.00  0.00    +0.000 C 
ENDBRANCH   5   7
BRANCH   1   9
ATOM      9  C   UNL     1       8.231   9.523  18.009  0.00  0.00    +0.000 C 
BRANCH   9  11
ATOM     10  C   UNL     1       9.324  10.664  20.059  0.00  0.00    +0.000 C 
ATOM     11  C   UNL     1       9.348   9.918  18.944  0.00  0.00    +0.000 C 
ENDBRANCH   9  11
ENDBRANCH   1   9
BRANCH   4  12
ATOM     12  O   UNL     1       6.726   4.085  18.028  0.00  0.00    +0.000 OA
BRANCH  12  13
ATOM     13  C   UNL     1       5.298   4.117  17.953  0.00  0.00    +0.000 C 
BRANCH  13  14
ATOM     14  C   UNL     1       4.725   4.546  19.279  0.00  0.00    +0.000 C 
BRANCH  14  15
ATOM     15  C   UNL     1       3.932   5.833  19.075  0.00  0.00    +0.000 C 
BRANCH  15  16
ATOM     16  C   UNL     1       2.526   5.475  18.642  0.00  0.00    +0.000 C 
BRANCH  16  17
ATOM     17  N   UNL     1       2.346   4.031  18.672  0.00  0.00    +0.000 NA
ATOM     18  H   UNL     1       3.111   3.603  19.196  0.00  0.00    +0.000 HD
BRANCH  17  19
ATOM     19  C   UNL     1       1.062   3.660  19.285  0.00  0.00    +0.000 C 
ATOM     20  C   UNL     1       0.701   2.199  18.981  0.00  0.00    +0.000 C 
BRANCH  19  21
ATOM     21  C   UNL     1       1.180   3.919  20.797  0.00  0.00    +0.000 C 
ATOM     22  C   UNL     1       2.004   2.862  21.516  0.00  0.00    +0.000 C 
ENDBRANCH  19  21
ENDBRANCH  17  19
ENDBRANCH  16  17
ENDBRANCH  15  16
ENDBRANCH  14  15
ENDBRANCH  13  14
ENDBRANCH  12  13
ENDBRANCH   4  12
TORSDOF 11
ENDMDL
