MODEL 1
REMARK VINA RESULT:      -7.6      0.000      0.000
REMARK  Name = 
REMARK  9 active torsions:
REMARK  status: ('A' for Active; 'I' for Inactive)
REMARK    1  A    between atoms: C_1  and  C_2
REMARK    2  A    between atoms: C_2  and  C_3
REMARK    3  A    between atoms: C_3  and  C_4
REMARK    4  A    between atoms: C_3  and  C_5
REMARK    5  A    between atoms: C_7  and  C_8
REMARK    6  A    between atoms: N_10  and  C_11
REMARK    7  A    between atoms: C_11  and  C_12
REMARK    8  A    between atoms: C_12  and  N_13
REMARK    9  A    between atoms: C_17  and  C_18
REMARK                            x       y       z     vdW  Elec       q    Type
REMARK                         _______ _______ _______ _____ _____    ______ ____
ROOT
ATOM      1  C   UNL     1       6.571   5.316  15.769  0.00  0.00    +0.000 C 
ATOM      2  O   UNL     1       7.500   5.993  16.199  0.00  0.00    +0.000 OA
ATOM      3  N   UNL     1       5.472   5.018  16.550  0.00  0.00    +0.000 N 
ATOM      4  H   UNL     1       4.765   4.398  16.168  0.00  0.00    +0.000 HD
ENDROOT
BRANCH   1   7
ATOM      5  C   UNL     1       6.145   3.801  12.494  0.00  0.00    +0.000 A 
ATOM      6  C   UNL     1       5.658   3.926  13.814  0.00  0.00    +0.000 A 
ATOM      7  C   UNL     1       6.530   4.794  14.428  0.00  0.00    +0.000 A 
ATOM      8  O   UNL     1       7.487   5.160  13.529  0.00  0.00    +0.000 OA
ATOM      9  N   UNL     1       7.248   4.541  12.316  0.00  0.00    +0.000 NA
BRANCH   5  10
ATOM     10  C   UNL     1       5.575   2.968  11.382  0.00  0.00    +0.000 C 
ATOM     11  C   UNL     1       6.088   1.525  11.461  0.00  0.00    +0.000 C 
BRANCH  10  13
ATOM     12  C   UNL     1       3.465   3.860  10.236  0.00  0.00    +0.000 C 
ATOM     13  C   UNL     1       4.035   2.986  11.349  0.00  0.00    +0.000 C 
ENDBRANCH  10  13
ENDBRANCH   5  10
ENDBRANCH   1   7
BRANCH   3  14
ATOM     14  C   UNL     1       5.388   5.437  17.937  0.00  0.00    +0.000 C 
BRANCH  14  15
ATOM     15  C   UNL     1       4.708   4.396  18.829  0.00  0.00    +0.000 C 
BRANCH  15  16
ATOM     16  N   UNL     1       3.404   4.020  18.338  0.00  0.00    +0.000 N 
ATOM     17  C   UNL     1       2.401   4.876  18.005  0.00  0.00    +0.000 A 
ATOM     18  N   UNL     1       1.353   4.190  17.618  0.00  0.00    +0.000 NA
ATOM     19  N   UNL     1       1.671   2.855  17.711  0.00  0.00    +0.000 NA
ATOM     20  C   UNL     1       2.908   2.754  18.153  0.00  0.00    +0.000 A 
ATOM     21  C   UNL     1       3.654   1.502  18.410  0.00  0.00    +0.000 C 
ENDBRANCH  15  16
ENDBRANCH  14  15
ENDBRANCH   3  14
TORSDOF 6
ENDMDL
MODEL 2
REMARK VINA RESULT:      -7.6      1.326      1.837
REMARK  Name = 
REMARK  9 active torsions:
REMARK  status: ('A' for Active; 'I' for Inactive)
REMARK    1  A    between atoms: C_1  and  C_2
REMARK    2  A    between atoms: C_2  and  C_3
REMARK    3  A    between atoms: C_3  and  C_4
REMARK    4  A    between atoms: C_3  and  C_5
REMARK    5  A    between atoms: C_7  and  C_8
REMARK    6  A    between atoms: N_10  and  C_11
REMARK    7  A    between atoms: C_11  and  C_12
REMARK    8  A    between atoms: C_12  and  N_13
REMARK    9  A    between atoms: C_17  and  C_18
REMARK                            x       y       z     vdW  Elec       q    Type
REMARK                         _______ _______ _______ _____ _____    ______ ____
ROOT
ATOM      1  C   UNL     1       6.687   4.669  17.149  0.00  0.00    +0.000 C 
ATOM      2  O   UNL     1       7.544   4.143  17.853  0.00  0.00    +0.000 OA
ATOM      3  N   UNL     1       5.632   5.371  17.697  0.00  0.00    +0.000 N 
ATOM      4  H   UNL     1       4.915   5.727  17.072  0.00  0.00    +0.000 HD
ENDROOT
BRANCH   1   7
ATOM      5  C   UNL     1       6.457   4.282  13.543  0.00  0.00    +0.000 A 
ATOM      6  C   UNL     1       5.970   3.891  14.810  0.00  0.00    +0.000 A 
ATOM      7  C   UNL     1       6.711   4.621  15.709  0.00  0.00    +0.000 A 
ATOM      8  O   UNL     1       7.595   5.396  15.020  0.00  0.00    +0.000 OA
ATOM      9  N   UNL     1       7.437   5.188  13.662  0.00  0.00    +0.000 NA
BRANCH   5  10
ATOM     10  C   UNL     1       6.005   3.794  12.197  0.00  0.00    +0.000 C 
ATOM     11  C   UNL     1       6.879   2.629  11.715  0.00  0.00    +0.000 C 
BRANCH  10  13
ATOM     12  C   UNL     1       4.008   3.044  10.779  0.00  0.00    +0.000 C 
ATOM     13  C   UNL     1       4.518   3.389  12.174  0.00  0.00    +0.000 C 
ENDBRANCH  10  13
ENDBRANCH   5  10
ENDBRANCH   1   7
BRANCH   3  14
ATOM     14  C   UNL     1       5.447   5.470  19.133  0.00  0.00    +0.000 C 
BRANCH  14  15
ATOM     15  C   UNL     1       4.037   5.077  19.576  0.00  0.00    +0.000 C 
BRANCH  15  16
ATOM     16  N   UNL     1       3.659   3.765  19.106  0.00  0.00    +0.000 N 
ATOM     17  C   UNL     1       4.331   2.607  19.349  0.00  0.00    +0.000 A 
ATOM     18  N   UNL     1       3.716   1.614  18.754  0.00  0.00    +0.000 NA
ATOM     19  N   UNL     1       2.625   2.132  18.097  0.00  0.00    +0.000 NA
ATOM     20  C   UNL     1       2.596   3.433  18.305  0.00  0.00    +0.000 A 
ATOM     21  C   UNL     1       1.597   4.389  17.777  0.00  0.00    +0.000 C 
ENDBRANCH  15  16
ENDBRANCH  14  15
ENDBRANCH   3  14
TORSDOF 6
ENDMDL
MODEL 3
REMARK VINA RESULT:      -7.5      1.723      2.428
REMARK  Name = 
REMARK  9 active torsions:
REMARK  status: ('A' for Active; 'I' for Inactive)
REMARK    1  A    between atoms: C_1  and  C_2
REMARK    2  A    between atoms: C_2  and  C_3
REMARK    3  A    between atoms: C_3  and  C_4
REMARK    4  A    between atoms: C_3  and  C_5
REMARK    5  A    between atoms: C_7  and  C_8
REMARK    6  A    between atoms: N_10  and  C_11
REMARK    7  A    between atoms: C_11  and  C_12
REMARK    8  A    between atoms: C_12  and  N_13
REMARK    9  A    between atoms: C_17  and  C_18
REMARK                            x       y       z     vdW  Elec       q    Type
REMARK                         _______ _______ _______ _____ _____    ______ ____
ROOT
ATOM      1  C   UNL     1       6.522   4.327  17.530  0.00  0.00    +0.000 C 
ATOM      2  O   UNL     1       7.451   4.441  18.324  0.00  0.00    +0.000 OA
ATOM      3  N   UNL     1       5.239   4.046  17.953  0.00  0.00    +0.000 N 
ATOM      4  H   UNL     1       4.523   3.894  17.250  0.00  0.00    +0.000 HD
ENDROOT
BRANCH   1   7
ATOM      5  C   UNL     1       6.648   4.453  13.901  0.00  0.00    +0.000 A 
ATOM      6  C   UNL     1       6.088   3.845  15.046  0.00  0.00    +0.000 A 
ATOM      7  C   UNL     1       6.677   4.492  16.107  0.00  0.00    +0.000 A 
ATOM      8  O   UNL     1       7.544   5.425  15.624  0.00  0.00    +0.000 OA
ATOM      9  N   UNL     1       7.526   5.405  14.241  0.00  0.00    +0.000 NA
BRANCH   5  10
ATOM     10  C   UNL     1       6.362   4.133  12.461  0.00  0.00    +0.000 C 
ATOM     11  C   UNL     1       7.491   4.639  11.554  0.00  0.00    +0.000 C 
BRANCH  10  13
ATOM     12  C   UNL     1       7.066   2.022  11.194  0.00  0.00    +0.000 C 
ATOM     13  C   UNL     1       6.115   2.632  12.219  0.00  0.00    +0.000 C 
ENDBRANCH  10  13
ENDBRANCH   5  10
ENDBRANCH   1   7
BRANCH   3  14
ATOM     14  C   UNL     1       4.933   3.809  19.352  0.00  0.00    +0.000 C 
BRANCH  14  15
ATOM     15  C   UNL     1       4.253   2.459  19.589  0.00  0.00    +0.000 C 
BRANCH  15  16
ATOM     16  N   UNL     1       2.826   2.520  19.380  0.00  0.00    +0.000 N 
ATOM     17  C   UNL     1       2.183   2.290  18.203  0.00  0.00    +0.000 A 
ATOM     18  N   UNL     1       0.893   2.451  18.372  0.00  0.00    +0.000 NA
ATOM     19  N   UNL     1       0.686   2.804  19.685  0.00  0.00    +0.000 NA
ATOM     20  C   UNL     1       1.856   2.853  20.290  0.00  0.00    +0.000 A 
ATOM     21  C   UNL     1       2.102   3.201  21.707  0.00  0.00    +0.000 C 
ENDBRANCH  15  16
ENDBRANCH  14  15
ENDBRANCH   3  14
TORSDOF 6
ENDMDL
MODEL 4
REMARK VINA RESULT:      -7.5      1.758      1.983
REMARK  Name = 
REMARK  9 active torsions:
REMARK  status: ('A' for Active; 'I' for Inactive)
REMARK    1  A    between atoms: C_1  and  C_2
REMARK    2  A    between atoms: C_2  and  C_3
REMARK    3  A    between atoms: C_3  and  C_4
REMARK    4  A    between atoms: C_3  and  C_5
REMARK    5  A    between atoms: C_7  and  C_8
REMARK    6  A    between atoms: N_10  and  C_11
REMARK    7  A    between atoms: C_11  and  C_12
REMARK    8  A    between atoms: C_12  and  N_13
REMARK    9  A    between atoms: C_17  and  C_18
REMARK                            x       y       z     vdW  Elec       q    Type
REMARK                         _______ _______ _______ _____ _____    ______ ____
ROOT
ATOM      1  C   UNL     1       6.462   4.601  17.280  0.00  0.00    +0.000 C 
ATOM      2  O   UNL     1       7.348   4.258  18.056  0.00  0.00    +0.000 OA
ATOM      3  N   UNL     1       5.242   5.062  17.733  0.00  0.00    +0.000 N 
ATOM      4  H   UNL     1       4.521   5.267  17.048  0.00  0.00    +0.000 HD
ENDROOT
BRANCH   1   7
ATOM      5  C   UNL     1       6.548   4.279  13.662  0.00  0.00    +0.000 A 
ATOM      6  C   UNL     1       5.935   3.885  14.872  0.00  0.00    +0.000 A 
ATOM      7  C   UNL     1       6.615   4.575  15.848  0.00  0.00    +0.000 A 
ATOM      8  O   UNL     1       7.583   5.330  15.256  0.00  0.00    +0.000 OA
ATOM      9  N   UNL     1       7.543   5.148  13.885  0.00  0.00    +0.000 NA
BRANCH   5  10
ATOM     10  C   UNL     1       6.204   3.827  12.271  0.00  0.00    +0.000 C 
ATOM     11  C   UNL     1       7.353   3.015  11.660  0.00  0.00    +0.000 C 
BRANCH  10  13
ATOM     12  C   UNL     1       3.999   3.416  11.035  0.00  0.00    +0.000 C 
ATOM     13  C   UNL     1       4.891   3.024  12.209  0.00  0.00    +0.000 C 
ENDBRANCH  10  13
ENDBRANCH   5  10
ENDBRANCH   1   7
BRANCH   3  14
ATOM     14  C   UNL     1       4.922   5.104  19.148  0.00  0.00    +0.000 C 
BRANCH  14  15
ATOM     15  C   UNL     1       3.500   5.598  19.418  0.00  0.00    +0.000 C 
BRANCH  15  16
ATOM     16  N   UNL     1       2.643   4.553  19.925  0.00  0.00    +0.000 N 
ATOM     17  C   UNL     1       2.342   4.334  21.233  0.00  0.00    +0.000 A 
ATOM     18  N   UNL     1       1.553   3.291  21.331  0.00  0.00    +0.000 NA
ATOM     19  N   UNL     1       1.341   2.809  20.060  0.00  0.00    +0.000 NA
ATOM     20  C   UNL     1       2.007   3.568  19.213  0.00  0.00    +0.000 A 
ATOM     21  C   UNL     1       2.068   3.405  17.743  0.00  0.00    +0.000 C 
ENDBRANCH  15  16
ENDBRANCH  14  15
ENDBRANCH   3  14
TORSDOF 6
ENDMDL
MODEL 5
REMARK VINA RESULT:      -7.5      0.950      1.573
REMARK  Name = 
REMARK  9 active torsions:
REMARK  status: ('A' for Active; 'I' for Inactive)
REMARK    1  A    between atoms: C_1  and  C_2
REMARK    2  A    between atoms: C_2  and  C_3
REMARK    3  A    between atoms: C_3  and  C_4
REMARK    4  A    between atoms: C_3  and  C_5
REMARK    5  A    between atoms: C_7  and  C_8
REMARK    6  A    between atoms: N_10  and  C_11
REMARK    7  A    between atoms: C_11  and  C_12
REMARK    8  A    between atoms: C_12  and  N_13
REMARK    9  A    between atoms: C_17  and  C_18
REMARK                            x       y       z     vdW  Elec       q    Type
REMARK                         _______ _______ _______ _____ _____    ______ ____
ROOT
ATOM      1  C   UNL     1       6.955   5.233  16.074  0.00  0.00    +0.000 C 
ATOM      2  O   UNL     1       7.502   6.285  16.387  0.00  0.00    +0.000 OA
ATOM      3  N   UNL     1       6.406   4.393  17.022  0.00  0.00    +0.000 N 
ATOM      4  H   UNL     1       6.027   3.503  16.715  0.00  0.00    +0.000 HD
ENDROOT
BRANCH   1   7
ATOM      5  C   UNL     1       6.270   3.952  12.743  0.00  0.00    +0.000 A 
ATOM      6  C   UNL     1       5.835   4.061  14.083  0.00  0.00    +0.000 A 
ATOM      7  C   UNL     1       6.818   4.790  14.710  0.00  0.00    +0.000 A 
ATOM      8  O   UNL     1       7.787   5.092  13.800  0.00  0.00    +0.000 OA
ATOM      9  N   UNL     1       7.445   4.570  12.566  0.00  0.00    +0.000 NA
BRANCH   5  10
ATOM     10  C   UNL     1       5.578   3.251  11.610  0.00  0.00    +0.000 C 
ATOM     11  C   UNL     1       5.946   1.762  11.582  0.00  0.00    +0.000 C 
BRANCH  10  13
ATOM     12  C   UNL     1       3.402   3.367  10.263  0.00  0.00    +0.000 C 
ATOM     13  C   UNL     1       4.047   3.421  11.645  0.00  0.00    +0.000 C 
ENDBRANCH  10  13
ENDBRANCH   5  10
ENDBRANCH   1   7
BRANCH   3  14
ATOM     14  C   UNL     1       6.504   4.680  18.442  0.00  0.00    +0.000 C 
BRANCH  14  15
ATOM     15  C   UNL     1       5.177   5.144  19.044  0.00  0.00    +0.000 C 
BRANCH  15  16
ATOM     16  N   UNL     1       4.188   4.093  19.069  0.00  0.00    +0.000 N 
ATOM     17  C   UNL     1       4.388   2.820  19.505  0.00  0.00    +0.000 A 
ATOM     18  N   UNL     1       3.281   2.132  19.365  0.00  0.00    +0.000 NA
ATOM     19  N   UNL     1       2.337   2.968  18.814  0.00  0.00    +0.000 NA
ATOM     20  C   UNL     1       2.890   4.149  18.629  0.00  0.00    +0.000 A 
ATOM     21  C   UNL     1       2.238   5.346  18.051  0.00  0.00    +0.000 C 
ENDBRANCH  15  16
ENDBRANCH  14  15
ENDBRANCH   3  14
TORSDOF 6
ENDMDL
MODEL 6
REMARK VINA RESULT:      -7.5      0.975      1.073
REMARK  Name = 
REMARK  9 active torsions:
REMARK  status: ('A' for Active; 'I' for Inactive)
REMARK    1  A    between atoms: C_1  and  C_2
REMARK    2  A    between atoms: C_2  and  C_3
REMARK    3  A    between atoms: C_3  and  C_4
REMARK    4  A    between atoms: C_3  and  C_5
REMARK    5  A    between atoms: C_7  and  C_8
REMARK    6  A    between atoms: N_10  and  C_11
REMARK    7  A    between atoms: C_11  and  C_12
REMARK    8  A    between atoms: C_12  and  N_13
REMARK    9  A    between atoms: C_17  and  C_18
REMARK                            x       y       z     vdW  Elec       q    Type
REMARK                         _______ _______ _______ _____ _____    ______ ____
ROOT
ATOM      1  C   UNL     1       6.915   5.109  16.494  0.00  0.00    +0.000 C 
ATOM      2  O   UNL     1       7.564   6.024  16.992  0.00  0.00    +0.000 OA
ATOM      3  N   UNL     1       6.127   4.278  17.264  0.00  0.00    +0.000 N 
ATOM      4  H   UNL     1       5.667   3.495  16.811  0.00  0.00    +0.000 HD
ENDROOT
BRANCH   1   7
ATOM      5  C   UNL     1       6.590   4.153  13.004  0.00  0.00    +0.000 A 
ATOM      6  C   UNL     1       6.135   3.972  14.328  0.00  0.00    +0.000 A 
ATOM      7  C   UNL     1       6.901   4.832  15.080  0.00  0.00    +0.000 A 
ATOM      8  O   UNL     1       7.768   5.481  14.254  0.00  0.00    +0.000 OA
ATOM      9  N   UNL     1       7.574   5.059  12.951  0.00  0.00    +0.000 NA
BRANCH   5  10
ATOM     10  C   UNL     1       6.101   3.458  11.765  0.00  0.00    +0.000 C 
ATOM     11  C   UNL     1       6.961   2.227  11.452  0.00  0.00    +0.000 C 
BRANCH  10  13
ATOM     12  C   UNL     1       3.790   3.570  10.666  0.00  0.00    +0.000 C 
ATOM     13  C   UNL     1       4.614   3.064  11.846  0.00  0.00    +0.000 C 
ENDBRANCH  10  13
ENDBRANCH   5  10
ENDBRANCH   1   7
BRANCH   3  14
ATOM     14  C   UNL     1       6.073   4.405  18.709  0.00  0.00    +0.000 C 
BRANCH  14  15
ATOM     15  C   UNL     1       4.801   3.804  19.309  0.00  0.00    +0.000 C 
BRANCH  15  16
ATOM     16  N   UNL     1       3.603   4.356  18.721  0.00  0.00    +0.000 N 
ATOM     17  C   UNL     1       3.222   5.661  18.766  0.00  0.00    +0.000 A 
ATOM     18  N   UNL     1       2.075   5.801  18.148  0.00  0.00    +0.000 NA
ATOM     19  N   UNL     1       1.689   4.560  17.697  0.00  0.00    +0.000 NA
ATOM     20  C   UNL     1       2.610   3.687  18.052  0.00  0.00    +0.000 A 
ATOM     21  C   UNL     1       2.597   2.232  17.781  0.00  0.00    +0.000 C 
ENDBRANCH  15  16
ENDBRANCH  14  15
ENDBRANCH   3  14
TORSDOF 6
ENDMDL
MODEL 7
REMARK VINA RESULT:      -7.5      1.750      1.828
REMARK  Name = 
REMARK  9 active torsions:
REMARK  status: ('A' for Active; 'I' for Inactive)
REMARK    1  A    between atoms: C_1  and  C_2
REMARK    2  A    between atoms: C_2  and  C_3
REMARK    3  A    between atoms: C_3  and  C_4
REMARK    4  A    between atoms: C_3  and  C_5
REMARK    5  A    between atoms: C_7  and  C_8
REMARK    6  A    between atoms: N_10  and  C_11
REMARK    7  A    between atoms: C_11  and  C_12
REMARK    8  A    between atoms: C_12  and  N_13
REMARK    9  A    between atoms: C_17  and  C_18
REMARK                            x       y       z     vdW  Elec       q    Type
REMARK                         _______ _______ _______ _____ _____    ______ ____
ROOT
ATOM      1  C   UNL     1       7.029   4.689  16.721  0.00  0.00    +0.000 C 
ATOM      2  O   UNL     1       8.010   4.366  17.383  0.00  0.00    +0.000 OA
ATOM      3  N   UNL     1       5.893   5.202  17.316  0.00  0.00    +0.000 N 
ATOM      4  H   UNL     1       5.085   5.388  16.730  0.00  0.00    +0.000 HD
ENDROOT
BRANCH   1   7
ATOM      5  C   UNL     1       6.621   4.142  13.153  0.00  0.00    +0.000 A 
ATOM      6  C   UNL     1       6.227   3.779  14.459  0.00  0.00    +0.000 A 
ATOM      7  C   UNL     1       6.975   4.583  15.286  0.00  0.00    +0.000 A 
ATOM      8  O   UNL     1       7.775   5.376  14.518  0.00  0.00    +0.000 OA
ATOM      9  N   UNL     1       7.554   5.103  13.180  0.00  0.00    +0.000 NA
BRANCH   5  10
ATOM     10  C   UNL     1       6.122   3.575  11.854  0.00  0.00    +0.000 C 
ATOM     11  C   UNL     1       7.019   2.425  11.380  0.00  0.00    +0.000 C 
BRANCH  10  13
ATOM     12  C   UNL     1       3.836   3.512  10.702  0.00  0.00    +0.000 C 
ATOM     13  C   UNL     1       4.654   3.113  11.926  0.00  0.00    +0.000 C 
ENDBRANCH  10  13
ENDBRANCH   5  10
ENDBRANCH   1   7
BRANCH   3  14
ATOM     14  C   UNL     1       5.779   5.327  18.758  0.00  0.00    +0.000 C 
BRANCH  14  15
ATOM     15  C   UNL     1       4.847   4.281  19.370  0.00  0.00    +0.000 C 
BRANCH  15  16
ATOM     16  N   UNL     1       3.585   4.845  19.787  0.00  0.00    +0.000 N 
ATOM     17  C   UNL     1       3.141   6.100  19.505  0.00  0.00    +0.000 A 
ATOM     18  N   UNL     1       1.967   6.282  20.057  0.00  0.00    +0.000 NA
ATOM     19  N   UNL     1       1.638   5.126  20.727  0.00  0.00    +0.000 NA
ATOM     20  C   UNL     1       2.621   4.262  20.569  0.00  0.00    +0.000 A 
ATOM     21  C   UNL     1       2.690   2.893  21.127  0.00  0.00    +0.000 C 
ENDBRANCH  15  16
ENDBRANCH  14  15
ENDBRANCH   3  14
TORSDOF 6
ENDMDL
MODEL 8
REMARK VINA RESULT:      -7.3      1.697      2.356
REMARK  Name = 
REMARK  9 active torsions:
REMARK  status: ('A' for Active; 'I' for Inactive)
REMARK    1  A    between atoms: C_1  and  C_2
REMARK    2  A    between atoms: C_2  and  C_3
REMARK    3  A    between atoms: C_3  and  C_4
REMARK    4  A    between atoms: C_3  and  C_5
REMARK    5  A    between atoms: C_7  and  C_8
REMARK    6  A    between atoms: N_10  and  C_11
REMARK    7  A    between atoms: C_11  and  C_12
REMARK    8  A    between atoms: C_12  and  N_13
REMARK    9  A    between atoms: C_17  and  C_18
REMARK                            x       y       z     vdW  Elec       q    Type
REMARK                         _______ _______ _______ _____ _____    ______ ____
ROOT
ATOM      1  C   UNL     1       5.995   5.585  17.141  0.00  0.00    +0.000 C 
ATOM      2  O   UNL     1       6.484   6.626  17.568  0.00  0.00    +0.000 OA
ATOM      3  N   UNL     1       5.171   4.799  17.922  0.00  0.00    +0.000 N 
ATOM      4  H   UNL     1       4.849   3.914  17.542  0.00  0.00    +0.000 HD
ENDROOT
BRANCH   1   7
ATOM      5  C   UNL     1       6.256   4.111  13.830  0.00  0.00    +0.000 A 
ATOM      6  C   UNL     1       5.598   4.107  15.080  0.00  0.00    +0.000 A 
ATOM      7  C   UNL     1       6.214   5.102  15.802  0.00  0.00    +0.000 A 
ATOM      8  O   UNL     1       7.188   5.663  15.031  0.00  0.00    +0.000 OA
ATOM      9  N   UNL     1       7.216   5.045  13.794  0.00  0.00    +0.000 NA
BRANCH   5  10
ATOM     10  C   UNL     1       5.988   3.220  12.651  0.00  0.00    +0.000 C 
ATOM     11  C   UNL     1       4.704   3.643  11.927  0.00  0.00    +0.000 C 
BRANCH  10  13
ATOM     12  C   UNL     1       7.322   1.812  10.979  0.00  0.00    +0.000 C 
ATOM     13  C   UNL     1       7.167   3.168  11.660  0.00  0.00    +0.000 C 
ENDBRANCH  10  13
ENDBRANCH   5  10
ENDBRANCH   1   7
BRANCH   3  14
ATOM     14  C   UNL     1       4.892   5.131  19.308  0.00  0.00    +0.000 C 
BRANCH  14  15
ATOM     15  C   UNL     1       3.514   5.765  19.498  0.00  0.00    +0.000 C 
BRANCH  15  16
ATOM     16  N   UNL     1       2.513   4.798  19.883  0.00  0.00    +0.000 N 
ATOM     17  C   UNL     1       2.268   4.365  21.149  0.00  0.00    +0.000 A 
ATOM     18  N   UNL     1       1.307   3.475  21.127  0.00  0.00    +0.000 NA
ATOM     19  N   UNL     1       0.920   3.312  19.818  0.00  0.00    +0.000 NA
ATOM     20  C   UNL     1       1.655   4.106  19.067  0.00  0.00    +0.000 A 
ATOM     21  C   UNL     1       1.581   4.246  17.595  0.00  0.00    +0.000 C 
ENDBRANCH  15  16
ENDBRANCH  14  15
ENDBRANCH   3  14
TORSDOF 6
ENDMDL
MODEL 9
REMARK VINA RESULT:      -7.2      0.874      1.533
REMARK  Name = 
REMARK  9 active torsions:
REMARK  status: ('A' for Active; 'I' for Inactive)
REMARK    1  A    between atoms: C_1  and  C_2
REMARK    2  A    between atoms: C_2  and  C_3
REMARK    3  A    between atoms: C_3  and  C_4
REMARK    4  A    between atoms: C_3  and  C_5
REMARK    5  A    between atoms: C_7  and  C_8
REMARK    6  A    between atoms: N_10  and  C_11
REMARK    7  A    between atoms: C_11  and  C_12
REMARK    8  A    between atoms: C_12  and  N_13
REMARK    9  A    between atoms: C_17  and  C_18
REMARK                            x       y       z     vdW  Elec       q    Type
REMARK                         _______ _______ _______ _____ _____    ______ ____
ROOT
ATOM      1  C   UNL     1       6.102   5.306  16.504  0.00  0.00    +0.000 C 
ATOM      2  O   UNL     1       6.071   6.483  16.850  0.00  0.00    +0.000 OA
ATOM      3  N   UNL     1       5.934   4.280  17.413  0.00  0.00    +0.000 N 
ATOM      4  H   UNL     1       6.038   3.325  17.085  0.00  0.00    +0.000 HD
ENDROOT
BRANCH   1   7
ATOM      5  C   UNL     1       6.241   4.079  13.086  0.00  0.00    +0.000 A 
ATOM      6  C   UNL     1       5.508   4.146  14.292  0.00  0.00    +0.000 A 
ATOM      7  C   UNL     1       6.296   4.890  15.139  0.00  0.00    +0.000 A 
ATOM      8  O   UNL     1       7.436   5.241  14.479  0.00  0.00    +0.000 OA
ATOM      9  N   UNL     1       7.404   4.736  13.192  0.00  0.00    +0.000 NA
BRANCH   5  10
ATOM     10  C   UNL     1       5.851   3.383  11.814  0.00  0.00    +0.000 C 
ATOM     11  C   UNL     1       6.655   2.089  11.630  0.00  0.00    +0.000 C 
BRANCH  10  13
ATOM     12  C   UNL     1       3.690   3.630  10.462  0.00  0.00    +0.000 C 
ATOM     13  C   UNL     1       4.340   3.088  11.731  0.00  0.00    +0.000 C 
ENDBRANCH  10  13
ENDBRANCH   5  10
ENDBRANCH   1   7
BRANCH   3  14
ATOM     14  C   UNL     1       5.773   4.539  18.832  0.00  0.00    +0.000 C 
BRANCH  14  15
ATOM     15  C   UNL     1       4.685   3.676  19.472  0.00  0.00    +0.000 C 
BRANCH  15  16
ATOM     16  N   UNL     1       3.558   3.472  18.593  0.00  0.00    +0.000 N 
ATOM     17  C   UNL     1       3.268   2.325  17.921  0.00  0.00    +0.000 A 
ATOM     18  N   UNL     1       2.186   2.502  17.203  0.00  0.00    +0.000 NA
ATOM     19  N   UNL     1       1.762   3.796  17.399  0.00  0.00    +0.000 NA
ATOM     20  C   UNL     1       2.597   4.383  18.233  0.00  0.00    +0.000 A 
ATOM     21  C   UNL     1       2.526   5.781  18.714  0.00  0.00    +0.000 C 
ENDBRANCH  15  16
ENDBRANCH  14  15
ENDBRANCH   3  14
TORSDOF 6
ENDMDL
