MODEL 1
REMARK VINA RESULT:      -7.7      0.000      0.000
REMARK  Name = 
REMARK  2 active torsions:
REMARK  status: ('A' for Active; 'I' for Inactive)
REMARK    1  A    between atoms: C_3  and  N_4
REMARK    2  A    between atoms: C_11  and  C_12
REMARK                            x       y       z     vdW  Elec       q    Type
REMARK                         _______ _______ _______ _____ _____    ______ ____
ROOT
ATOM      1  C   UNL     1       2.583   6.953  18.945  0.00  0.00    +0.000 A 
ATOM      2  C   UNL     1       3.494   7.203  17.921  0.00  0.00    +0.000 A 
ATOM      3  N   UNL     1       3.898   5.962  17.505  0.00  0.00    +0.000 N 
ATOM      4  C   UNL     1       4.740   5.410  16.552  0.00  0.00    +0.000 A 
ATOM      5  C   UNL     1       4.713   4.063  16.596  0.00  0.00    +0.000 A 
ATOM      6  S   UNL     1       3.640   3.422  17.845  0.00  0.00    +0.000 S 
ATOM      7  C   UNL     1       3.240   5.054  18.279  0.00  0.00    +0.000 A 
ATOM      8  N   UNL     1       2.447   5.587  19.162  0.00  0.00    +0.000 NA
ATOM      9  C   UNL     1       5.488   3.166  15.685  0.00  0.00    +0.000 C 
ATOM     10  C   UNL     1       6.108   3.943  14.516  0.00  0.00    +0.000 C 
ATOM     11  C   UNL     1       6.669   5.298  14.961  0.00  0.00    +0.000 C 
ATOM     12  C   UNL     1       5.588   6.190  15.603  0.00  0.00    +0.000 C 
ENDROOT
BRANCH   1  18
ATOM     13  C   UNL     1       1.417   9.115  19.096  0.00  0.00    +0.000 A 
ATOM     14  C   UNL     1       0.715  10.108  19.797  0.00  0.00    +0.000 A 
ATOM     15  C   UNL     1       0.362   9.962  21.144  0.00  0.00    +0.000 A 
ATOM     16  C   UNL     1       0.727   8.741  21.739  0.00  0.00    +0.000 A 
ATOM     17  C   UNL     1       1.435   7.738  21.044  0.00  0.00    +0.000 A 
ATOM     18  C   UNL     1       1.803   7.920  19.711  0.00  0.00    +0.000 A 
BRANCH  15  19
ATOM     19  N   UNL     1      -0.275  10.962  21.842  0.00  0.00    +0.000 N 
ATOM     20  C   UNL     1      -1.085  10.752  23.038  0.00  0.00    +0.000 C 
ATOM     21  C   UNL     1      -1.992  11.976  23.063  0.00  0.00    +0.000 C 
ATOM     22  C   UNL     1      -1.102  13.083  22.523  0.00  0.00    +0.000 C 
ATOM     23  C   UNL     1      -0.176  12.385  21.523  0.00  0.00    +0.000 C 
ENDBRANCH  15  19
ENDBRANCH   1  18
TORSDOF 2
ENDMDL
MODEL 2
REMARK VINA RESULT:      -7.6      1.307      2.193
REMARK  Name = 
REMARK  2 active torsions:
REMARK  status: ('A' for Active; 'I' for Inactive)
REMARK    1  A    between atoms: C_3  and  N_4
REMARK    2  A    between atoms: C_11  and  C_12
REMARK                            x       y       z     vdW  Elec       q    Type
REMARK                         _______ _______ _______ _____ _____    ______ ____
ROOT
ATOM      1  C   UNL     1       1.485   7.863  20.383  0.00  0.00    +0.000 A 
ATOM      2  C   UNL     1       2.274   7.959  19.238  0.00  0.00    +0.000 A 
ATOM      3  N   UNL     1       2.755   6.692  19.041  0.00  0.00    +0.000 N 
ATOM      4  C   UNL     1       3.558   6.016  18.135  0.00  0.00    +0.000 A 
ATOM      5  C   UNL     1       3.664   4.710  18.453  0.00  0.00    +0.000 A 
ATOM      6  S   UNL     1       2.771   4.268  19.914  0.00  0.00    +0.000 S 
ATOM      7  C   UNL     1       2.258   5.920  20.048  0.00  0.00    +0.000 A 
ATOM      8  N   UNL     1       1.499   6.567  20.885  0.00  0.00    +0.000 NA
ATOM      9  C   UNL     1       4.437   3.702  17.665  0.00  0.00    +0.000 C 
ATOM     10  C   UNL     1       4.874   4.259  16.304  0.00  0.00    +0.000 C 
ATOM     11  C   UNL     1       5.340   5.715  16.404  0.00  0.00    +0.000 C 
ATOM     12  C   UNL     1       4.241   6.639  16.963  0.00  0.00    +0.000 C 
ENDROOT
BRANCH   1  18
ATOM     13  C   UNL     1       0.265   9.996  20.245  0.00  0.00    +0.000 A 
ATOM     14  C   UNL     1      -0.456  11.060  20.809  0.00  0.00    +0.000 A 
ATOM     15  C   UNL     1      -0.792  11.096  22.168  0.00  0.00    +0.000 A 
ATOM     16  C   UNL     1      -0.391   9.979  22.922  0.00  0.00    +0.000 A 
ATOM     17  C   UNL     1       0.336   8.906  22.366  0.00  0.00    +0.000 A 
ATOM     18  C   UNL     1       0.687   8.909  21.016  0.00  0.00    +0.000 A 
BRANCH  15  19
ATOM     19  N   UNL     1      -1.448  12.168  22.727  0.00  0.00    +0.000 N 
ATOM     20  C   UNL     1      -0.940  13.535  22.742  0.00  0.00    +0.000 C 
ATOM     21  C   UNL     1      -1.678  14.168  23.916  0.00  0.00    +0.000 C 
ATOM     22  C   UNL     1      -3.046  13.508  23.866  0.00  0.00    +0.000 C 
ATOM     23  C   UNL     1      -2.779  12.100  23.327  0.00  0.00    +0.000 C 
ENDBRANCH  15  19
ENDBRANCH   1  18
TORSDOF 2
ENDMDL
MODEL 3
REMARK VINA RESULT:      -7.6      0.730      1.232
REMARK  Name = 
REMARK  2 active torsions:
REMARK  status: ('A' for Active; 'I' for Inactive)
REMARK    1  A    between atoms: C_3  and  N_4
REMARK    2  A    between atoms: C_11  and  C_12
REMARK                            x       y       z     vdW  Elec       q    Type
REMARK                         _______ _______ _______ _____ _____    ______ ____
ROOT
ATOM      1  C   UNL     1       2.436   7.448  19.040  0.00  0.00    +0.000 A 
ATOM      2  C   UNL     1       3.217   7.562  17.892  0.00  0.00    +0.000 A 
ATOM      3  N   UNL     1       3.732   6.309  17.696  0.00  0.00    +0.000 N 
ATOM      4  C   UNL     1       4.550   5.653  16.789  0.00  0.00    +0.000 A 
ATOM      5  C   UNL     1       4.693   4.352  17.110  0.00  0.00    +0.000 A 
ATOM      6  S   UNL     1       3.820   3.889  18.576  0.00  0.00    +0.000 S 
ATOM      7  C   UNL     1       3.261   5.527  18.707  0.00  0.00    +0.000 A 
ATOM      8  N   UNL     1       2.488   6.154  19.546  0.00  0.00    +0.000 NA
ATOM      9  C   UNL     1       5.491   3.363  16.322  0.00  0.00    +0.000 C 
ATOM     10  C   UNL     1       5.906   3.928  14.957  0.00  0.00    +0.000 C 
ATOM     11  C   UNL     1       6.332   5.397  15.050  0.00  0.00    +0.000 C 
ATOM     12  C   UNL     1       5.210   6.291  15.612  0.00  0.00    +0.000 C 
ENDROOT
BRANCH   1  18
ATOM     13  C   UNL     1       1.251   8.315  21.016  0.00  0.00    +0.000 A 
ATOM     14  C   UNL     1       0.414   9.237  21.664  0.00  0.00    +0.000 A 
ATOM     15  C   UNL     1      -0.105  10.361  21.010  0.00  0.00    +0.000 A 
ATOM     16  C   UNL     1       0.294  10.524  19.671  0.00  0.00    +0.000 A 
ATOM     17  C   UNL     1       1.133   9.602  19.010  0.00  0.00    +0.000 A 
ATOM     18  C   UNL     1       1.612   8.473  19.674  0.00  0.00    +0.000 A 
BRANCH  15  19
ATOM     19  N   UNL     1      -0.971  11.230  21.633  0.00  0.00    +0.000 N 
ATOM     20  C   UNL     1      -1.237  11.250  23.067  0.00  0.00    +0.000 C 
ATOM     21  C   UNL     1      -2.605  11.915  23.159  0.00  0.00    +0.000 C 
ATOM     22  C   UNL     1      -2.572  12.939  22.036  0.00  0.00    +0.000 C 
ATOM     23  C   UNL     1      -1.697  12.301  20.953  0.00  0.00    +0.000 C 
ENDBRANCH  15  19
ENDBRANCH   1  18
TORSDOF 2
ENDMDL
MODEL 4
REMARK VINA RESULT:      -7.6      2.266      9.115
REMARK  Name = 
REMARK  2 active torsions:
REMARK  status: ('A' for Active; 'I' for Inactive)
REMARK    1  A    between atoms: C_3  and  N_4
REMARK    2  A    between atoms: C_11  and  C_12
REMARK                            x       y       z     vdW  Elec       q    Type
REMARK                         _______ _______ _______ _____ _____    ______ ____
ROOT
ATOM      1  C   UNL     1       1.417   8.569  19.899  0.00  0.00    +0.000 A 
ATOM      2  C   UNL     1       0.673   9.690  19.537  0.00  0.00    +0.000 A 
ATOM      3  N   UNL     1       0.064  10.091  20.696  0.00  0.00    +0.000 N 
ATOM      4  C   UNL     1      -0.783  11.101  21.128  0.00  0.00    +0.000 A 
ATOM      5  C   UNL     1      -1.036  10.997  22.448  0.00  0.00    +0.000 A 
ATOM      6  S   UNL     1      -0.234   9.618  23.211  0.00  0.00    +0.000 S 
ATOM      7  C   UNL     1       0.449   9.217  21.667  0.00  0.00    +0.000 A 
ATOM      8  N   UNL     1       1.251   8.281  21.248  0.00  0.00    +0.000 NA
ATOM      9  C   UNL     1      -1.891  11.942  23.228  0.00  0.00    +0.000 C 
ATOM     10  C   UNL     1      -2.230  13.201  22.419  0.00  0.00    +0.000 C 
ATOM     11  C   UNL     1      -2.541  12.873  20.954  0.00  0.00    +0.000 C 
ATOM     12  C   UNL     1      -1.364  12.164  20.257  0.00  0.00    +0.000 C 
ENDROOT
BRANCH   1  18
ATOM     13  C   UNL     1       2.676   6.494  19.494  0.00  0.00    +0.000 A 
ATOM     14  C   UNL     1       3.573   5.701  18.760  0.00  0.00    +0.000 A 
ATOM     15  C   UNL     1       4.143   6.138  17.558  0.00  0.00    +0.000 A 
ATOM     16  C   UNL     1       3.733   7.409  17.117  0.00  0.00    +0.000 A 
ATOM     17  C   UNL     1       2.835   8.215  17.848  0.00  0.00    +0.000 A 
ATOM     18  C   UNL     1       2.305   7.770  19.060  0.00  0.00    +0.000 A 
BRANCH  15  19
ATOM     19  N   UNL     1       5.064   5.380  16.872  0.00  0.00    +0.000 N 
ATOM     20  C   UNL     1       6.463   5.750  16.678  0.00  0.00    +0.000 C 
ATOM     21  C   UNL     1       6.864   4.958  15.440  0.00  0.00    +0.000 C 
ATOM     22  C   UNL     1       6.084   3.663  15.585  0.00  0.00    +0.000 C 
ATOM     23  C   UNL     1       4.789   4.066  16.296  0.00  0.00    +0.000 C 
ENDBRANCH  15  19
ENDBRANCH   1  18
TORSDOF 2
ENDMDL
MODEL 5
REMARK VINA RESULT:      -7.6      2.267      9.058
REMARK  Name = 
REMARK  2 active torsions:
REMARK  status: ('A' for Active; 'I' for Inactive)
REMARK    1  A    between atoms: C_3  and  N_4
REMARK    2  A    between atoms: C_11  and  C_12
REMARK                            x       y       z     vdW  Elec       q    Type
REMARK                         _______ _______ _______ _____ _____    ______ ____
ROOT
ATOM      1  C   UNL     1       1.425   8.515  19.976  0.00  0.00    +0.000 A 
ATOM      2  C   UNL     1       0.689   9.624  19.566  0.00  0.00    +0.000 A 
ATOM      3  N   UNL     1       0.056  10.060  20.700  0.00  0.00    +0.000 N 
ATOM      4  C   UNL     1      -0.799  11.081  21.084  0.00  0.00    +0.000 A 
ATOM      5  C   UNL     1      -1.080  11.016  22.400  0.00  0.00    +0.000 A 
ATOM      6  S   UNL     1      -0.295   9.661  23.220  0.00  0.00    +0.000 S 
ATOM      7  C   UNL     1       0.421   9.215  21.704  0.00  0.00    +0.000 A 
ATOM      8  N   UNL     1       1.231   8.267  21.330  0.00  0.00    +0.000 NA
ATOM      9  C   UNL     1      -1.951  11.985  23.134  0.00  0.00    +0.000 C 
ATOM     10  C   UNL     1      -2.273  13.219  22.280  0.00  0.00    +0.000 C 
ATOM     11  C   UNL     1      -2.553  12.848  20.820  0.00  0.00    +0.000 C 
ATOM     12  C   UNL     1      -1.362  12.118  20.169  0.00  0.00    +0.000 C 
ENDROOT
BRANCH   1  18
ATOM     13  C   UNL     1       2.846   8.213  17.990  0.00  0.00    +0.000 A 
ATOM     14  C   UNL     1       3.676   7.449  17.153  0.00  0.00    +0.000 A 
ATOM     15  C   UNL     1       4.033   6.130  17.459  0.00  0.00    +0.000 A 
ATOM     16  C   UNL     1       3.534   5.632  18.676  0.00  0.00    +0.000 A 
ATOM     17  C   UNL     1       2.698   6.390  19.523  0.00  0.00    +0.000 A 
ATOM     18  C   UNL     1       2.330   7.691  19.180  0.00  0.00    +0.000 A 
BRANCH  15  19
ATOM     19  N   UNL     1       4.799   5.367  16.608  0.00  0.00    +0.000 N 
ATOM     20  C   UNL     1       5.408   5.858  15.376  0.00  0.00    +0.000 C 
ATOM     21  C   UNL     1       5.610   4.588  14.558  0.00  0.00    +0.000 C 
ATOM     22  C   UNL     1       5.951   3.545  15.609  0.00  0.00    +0.000 C 
ATOM     23  C   UNL     1       5.166   3.974  16.853  0.00  0.00    +0.000 C 
ENDBRANCH  15  19
ENDBRANCH   1  18
TORSDOF 2
ENDMDL
MODEL 6
REMARK VINA RESULT:      -7.5      0.844      1.227
REMARK  Name = 
REMARK  2 active torsions:
REMARK  status: ('A' for Active; 'I' for Inactive)
REMARK    1  A    between atoms: C_3  and  N_4
REMARK    2  A    between atoms: C_11  and  C_12
REMARK                            x       y       z     vdW  Elec       q    Type
REMARK                         _______ _______ _______ _____ _____    ______ ____
ROOT
ATOM      1  C   UNL     1       2.191   7.473  19.515  0.00  0.00    +0.000 A 
ATOM      2  C   UNL     1       3.000   7.640  18.392  0.00  0.00    +0.000 A 
ATOM      3  N   UNL     1       3.472   6.385  18.116  0.00  0.00    +0.000 N 
ATOM      4  C   UNL     1       4.285   5.765  17.178  0.00  0.00    +0.000 A 
ATOM      5  C   UNL     1       4.373   4.440  17.407  0.00  0.00    +0.000 A 
ATOM      6  S   UNL     1       3.452   3.907  18.819  0.00  0.00    +0.000 S 
ATOM      7  C   UNL     1       2.952   5.551  19.058  0.00  0.00    +0.000 A 
ATOM      8  N   UNL     1       2.185   6.146  19.926  0.00  0.00    +0.000 NA
ATOM      9  C   UNL     1       5.150   3.480  16.563  0.00  0.00    +0.000 C 
ATOM     10  C   UNL     1       5.614   4.126  15.251  0.00  0.00    +0.000 C 
ATOM     11  C   UNL     1       6.092   5.567  15.459  0.00  0.00    +0.000 C 
ATOM     12  C   UNL     1       4.992   6.461  16.063  0.00  0.00    +0.000 C 
ENDROOT
BRANCH   1  18
ATOM     13  C   UNL     1       0.887   9.561  19.474  0.00  0.00    +0.000 A 
ATOM     14  C   UNL     1       0.161  10.591  20.093  0.00  0.00    +0.000 A 
ATOM     15  C   UNL     1      -0.100  10.597  21.468  0.00  0.00    +0.000 A 
ATOM     16  C   UNL     1       0.384   9.488  22.184  0.00  0.00    +0.000 A 
ATOM     17  C   UNL     1       1.118   8.449  21.573  0.00  0.00    +0.000 A 
ATOM     18  C   UNL     1       1.392   8.481  20.206  0.00  0.00    +0.000 A 
BRANCH  15  19
ATOM     19  N   UNL     1      -0.762  11.637  22.079  0.00  0.00    +0.000 N 
ATOM     20  C   UNL     1      -0.567  13.047  21.757  0.00  0.00    +0.000 C 
ATOM     21  C   UNL     1      -1.029  13.760  23.022  0.00  0.00    +0.000 C 
ATOM     22  C   UNL     1      -2.180  12.896  23.510  0.00  0.00    +0.000 C 
ATOM     23  C   UNL     1      -1.804  11.473  23.090  0.00  0.00    +0.000 C 
ENDBRANCH  15  19
ENDBRANCH   1  18
TORSDOF 2
ENDMDL
MODEL 7
REMARK VINA RESULT:      -7.5      1.501      2.714
REMARK  Name = 
REMARK  2 active torsions:
REMARK  status: ('A' for Active; 'I' for Inactive)
REMARK    1  A    between atoms: C_3  and  N_4
REMARK    2  A    between atoms: C_11  and  C_12
REMARK                            x       y       z     vdW  Elec       q    Type
REMARK                         _______ _______ _______ _____ _____    ______ ____
ROOT
ATOM      1  C   UNL     1       1.384   7.944  20.643  0.00  0.00    +0.000 A 
ATOM      2  C   UNL     1       2.195   7.897  19.511  0.00  0.00    +0.000 A 
ATOM      3  N   UNL     1       2.539   6.578  19.385  0.00  0.00    +0.000 N 
ATOM      4  C   UNL     1       3.277   5.775  18.528  0.00  0.00    +0.000 A 
ATOM      5  C   UNL     1       3.236   4.483  18.910  0.00  0.00    +0.000 A 
ATOM      6  S   UNL     1       2.280   4.213  20.372  0.00  0.00    +0.000 S 
ATOM      7  C   UNL     1       1.947   5.915  20.417  0.00  0.00    +0.000 A 
ATOM      8  N   UNL     1       1.250   6.681  21.207  0.00  0.00    +0.000 NA
ATOM      9  C   UNL     1       3.906   3.360  18.187  0.00  0.00    +0.000 C 
ATOM     10  C   UNL     1       4.420   3.798  16.809  0.00  0.00    +0.000 C 
ATOM     11  C   UNL     1       5.041   5.199  16.849  0.00  0.00    +0.000 C 
ATOM     12  C   UNL     1       4.040   6.262  17.341  0.00  0.00    +0.000 C 
ENDROOT
BRANCH   1  18
ATOM     13  C   UNL     1       0.141   8.995  22.489  0.00  0.00    +0.000 A 
ATOM     14  C   UNL     1      -0.583  10.052  23.064  0.00  0.00    +0.000 A 
ATOM     15  C   UNL     1      -0.789  11.265  22.395  0.00  0.00    +0.000 A 
ATOM     16  C   UNL     1      -0.196  11.367  21.124  0.00  0.00    +0.000 A 
ATOM     17  C   UNL     1       0.530  10.310  20.536  0.00  0.00    +0.000 A 
ATOM     18  C   UNL     1       0.695   9.100  21.210  0.00  0.00    +0.000 A 
BRANCH  15  19
ATOM     19  N   UNL     1      -1.547  12.276  22.940  0.00  0.00    +0.000 N 
ATOM     20  C   UNL     1      -1.136  13.675  23.010  0.00  0.00    +0.000 C 
ATOM     21  C   UNL     1      -1.977  14.227  24.154  0.00  0.00    +0.000 C 
ATOM     22  C   UNL     1      -3.292  13.477  24.016  0.00  0.00    +0.000 C 
ATOM     23  C   UNL     1      -2.900  12.104  23.465  0.00  0.00    +0.000 C 
ENDBRANCH  15  19
ENDBRANCH   1  18
TORSDOF 2
ENDMDL
MODEL 8
REMARK VINA RESULT:      -7.4      2.219      3.599
REMARK  Name = 
REMARK  2 active torsions:
REMARK  status: ('A' for Active; 'I' for Inactive)
REMARK    1  A    between atoms: C_3  and  N_4
REMARK    2  A    between atoms: C_11  and  C_12
REMARK                            x       y       z     vdW  Elec       q    Type
REMARK                         _______ _______ _______ _____ _____    ______ ____
ROOT
ATOM      1  C   UNL     1       1.219   8.257  20.607  0.00  0.00    +0.000 A 
ATOM      2  C   UNL     1       1.320   6.945  21.066  0.00  0.00    +0.000 A 
ATOM      3  N   UNL     1       2.115   6.316  20.146  0.00  0.00    +0.000 N 
ATOM      4  C   UNL     1       2.661   5.059  19.934  0.00  0.00    +0.000 A 
ATOM      5  C   UNL     1       3.417   5.036  18.818  0.00  0.00    +0.000 A 
ATOM      6  S   UNL     1       3.469   6.587  17.972  0.00  0.00    +0.000 S 
ATOM      7  C   UNL     1       2.437   7.244  19.203  0.00  0.00    +0.000 A 
ATOM      8  N   UNL     1       1.924   8.420  19.421  0.00  0.00    +0.000 NA
ATOM      9  C   UNL     1       4.166   3.841  18.322  0.00  0.00    +0.000 C 
ATOM     10  C   UNL     1       4.200   2.718  19.367  0.00  0.00    +0.000 C 
ATOM     11  C   UNL     1       2.859   2.569  20.092  0.00  0.00    +0.000 C 
ATOM     12  C   UNL     1       2.438   3.868  20.806  0.00  0.00    +0.000 C 
ENDROOT
BRANCH   1  18
ATOM     13  C   UNL     1      -0.090   9.184  22.474  0.00  0.00    +0.000 A 
ATOM     14  C   UNL     1      -0.817  10.209  23.101  0.00  0.00    +0.000 A 
ATOM     15  C   UNL     1      -0.963  11.478  22.528  0.00  0.00    +0.000 A 
ATOM     16  C   UNL     1      -0.306  11.669  21.299  0.00  0.00    +0.000 A 
ATOM     17  C   UNL     1       0.425  10.646  20.659  0.00  0.00    +0.000 A 
ATOM     18  C   UNL     1       0.529   9.380  21.236  0.00  0.00    +0.000 A 
BRANCH  15  19
ATOM     19  N   UNL     1      -1.724  12.460  23.119  0.00  0.00    +0.000 N 
ATOM     20  C   UNL     1      -3.095  12.279  23.584  0.00  0.00    +0.000 C 
ATOM     21  C   UNL     1      -3.651  13.698  23.589  0.00  0.00    +0.000 C 
ATOM     22  C   UNL     1      -2.456  14.541  24.001  0.00  0.00    +0.000 C 
ATOM     23  C   UNL     1      -1.243  13.806  23.424  0.00  0.00    +0.000 C 
ENDBRANCH  15  19
ENDBRANCH   1  18
TORSDOF 2
ENDMDL
MODEL 9
REMARK VINA RESULT:      -7.2      2.159      3.479
REMARK  Name = 
REMARK  2 active torsions:
REMARK  status: ('A' for Active; 'I' for Inactive)
REMARK    1  A    between atoms: C_3  and  N_4
REMARK    2  A    between atoms: C_11  and  C_12
REMARK                            x       y       z     vdW  Elec       q    Type
REMARK                         _______ _______ _______ _____ _____    ______ ____
ROOT
ATOM      1  C   UNL     1       1.131   8.181  20.576  0.00  0.00    +0.000 A 
ATOM      2  C   UNL     1       1.288   6.867  21.012  0.00  0.00    +0.000 A 
ATOM      3  N   UNL     1       2.122   6.293  20.090  0.00  0.00    +0.000 N 
ATOM      4  C   UNL     1       2.730   5.068  19.860  0.00  0.00    +0.000 A 
ATOM      5  C   UNL     1       3.498   5.102  18.753  0.00  0.00    +0.000 A 
ATOM      6  S   UNL     1       3.485   6.670  17.936  0.00  0.00    +0.000 S 
ATOM      7  C   UNL     1       2.410   7.253  19.167  0.00  0.00    +0.000 A 
ATOM      8  N   UNL     1       1.839   8.400  19.401  0.00  0.00    +0.000 NA
ATOM      9  C   UNL     1       4.307   3.953  18.243  0.00  0.00    +0.000 C 
ATOM     10  C   UNL     1       4.384   2.813  19.267  0.00  0.00    +0.000 C 
ATOM     11  C   UNL     1       3.043   2.587  19.974  0.00  0.00    +0.000 C 
ATOM     12  C   UNL     1       2.554   3.851  20.707  0.00  0.00    +0.000 C 
ENDROOT
BRANCH   1  18
ATOM     13  C   UNL     1       0.129  10.427  20.495  0.00  0.00    +0.000 A 
ATOM     14  C   UNL     1      -0.536  11.519  21.075  0.00  0.00    +0.000 A 
ATOM     15  C   UNL     1      -0.982  11.502  22.402  0.00  0.00    +0.000 A 
ATOM     16  C   UNL     1      -0.751  10.305  23.105  0.00  0.00    +0.000 A 
ATOM     17  C   UNL     1      -0.081   9.203  22.532  0.00  0.00    +0.000 A 
ATOM     18  C   UNL     1       0.382   9.258  21.217  0.00  0.00    +0.000 A 
BRANCH  15  19
ATOM     19  N   UNL     1      -1.581  12.595  22.983  0.00  0.00    +0.000 N 
ATOM     20  C   UNL     1      -0.962  13.910  23.110  0.00  0.00    +0.000 C 
ATOM     21  C   UNL     1      -1.720  14.541  24.272  0.00  0.00    +0.000 C 
ATOM     22  C   UNL     1      -3.133  14.006  24.100  0.00  0.00    +0.000 C 
ATOM     23  C   UNL     1      -2.950  12.611  23.496  0.00  0.00    +0.000 C 
ENDBRANCH  15  19
ENDBRANCH   1  18
TORSDOF 2
ENDMDL
