MODEL 1
REMARK VINA RESULT:      -7.9      0.000      0.000
REMARK  Name = 
REMARK  4 active torsions:
REMARK  status: ('A' for Active; 'I' for Inactive)
REMARK    1  A    between atoms: C_1  and  S_2
REMARK    2  A    between atoms: S_2  and  C_5
REMARK    3  A    between atoms: C_16  and  N_17
REMARK    4  A    between atoms: N_17  and  C_18
REMARK                            x       y       z     vdW  Elec       q    Type
REMARK                         _______ _______ _______ _____ _____    ______ ____
ROOT
ATOM      1  C   UNL     1       2.206   4.893  19.818  0.00  0.00    +0.000 A 
ATOM      2  N   UNL     1       1.558   5.736  20.681  0.00  0.00    +0.000 NA
ATOM      3  C   UNL     1       1.484   7.029  20.309  0.00  0.00    +0.000 A 
ATOM      4  C   UNL     1       0.967   7.984  21.181  0.00  0.00    +0.000 A 
ATOM      5  C   UNL     1       0.909   9.336  20.822  0.00  0.00    +0.000 A 
ATOM      6 CL   UNL     1       0.312  10.458  21.990  0.00  0.00    +0.000 Cl
ATOM      7  C   UNL     1       1.353   9.735  19.563  0.00  0.00    +0.000 A 
ATOM      8 CL   UNL     1       1.308  11.379  19.037  0.00  0.00    +0.000 Cl
ATOM      9  C   UNL     1       1.884   8.785  18.692  0.00  0.00    +0.000 A 
ATOM     10  C   UNL     1       1.991   7.449  19.059  0.00  0.00    +0.000 A 
ATOM     11  N   UNL     1       2.612   6.588  18.224  0.00  0.00    +0.000 NA
ATOM     12  C   UNL     1       2.799   5.310  18.623  0.00  0.00    +0.000 A 
ENDROOT
BRANCH   1  14
ATOM     13  C   UNL     1       1.852   2.030  19.811  0.00  0.00    +0.000 C 
ATOM     14  S   UNL     1       2.731   3.360  20.579  0.00  0.00    +0.000 S 
ATOM     15  O   UNL     1       2.358   3.370  21.983  0.00  0.00    +0.000 OA
ATOM     16  O   UNL     1       4.130   3.193  20.205  0.00  0.00    +0.000 OA
ENDBRANCH   1  14
BRANCH  12  17
ATOM     17  N   UNL     1       3.556   4.477  17.785  0.00  0.00    +0.000 N 
ATOM     18  H   UNL     1       4.061   3.802  18.374  0.00  0.00    +0.000 HD
BRANCH  17  19
ATOM     19  C   UNL     1       4.571   5.114  16.909  0.00  0.00    +0.000 C 
ATOM     20  C   UNL     1       4.828   4.306  15.625  0.00  0.00    +0.000 C 
ATOM     21  C   UNL     1       6.298   3.962  15.486  0.00  0.00    +0.000 C 
ATOM     22  S   UNL     1       7.204   5.013  16.583  0.00  0.00    +0.000 S 
ATOM     23  O   UNL     1       7.695   6.138  15.810  0.00  0.00    +0.000 OA
ATOM     24  O   UNL     1       8.094   4.195  17.381  0.00  0.00    +0.000 OA
ATOM     25  C   UNL     1       5.854   5.578  17.587  0.00  0.00    +0.000 C 
ENDBRANCH  17  19
ENDBRANCH  12  17
TORSDOF 3
ENDMDL
MODEL 2
REMARK VINA RESULT:      -7.9      0.868      1.002
REMARK  Name = 
REMARK  4 active torsions:
REMARK  status: ('A' for Active; 'I' for Inactive)
REMARK    1  A    between atoms: C_1  and  S_2
REMARK    2  A    between atoms: S_2  and  C_5
REMARK    3  A    between atoms: C_16  and  N_17
REMARK    4  A    between atoms: N_17  and  C_18
REMARK                            x       y       z     vdW  Elec       q    Type
REMARK                         _______ _______ _______ _____ _____    ______ ____
ROOT
ATOM      1  C   UNL     1       2.232   4.687  19.532  0.00  0.00    +0.000 A 
ATOM      2  N   UNL     1       1.640   5.373  20.558  0.00  0.00    +0.000 NA
ATOM      3  C   UNL     1       1.496   6.702  20.384  0.00  0.00    +0.000 A 
ATOM      4  C   UNL     1       1.031   7.502  21.424  0.00  0.00    +0.000 A 
ATOM      5  C   UNL     1       0.902   8.888  21.269  0.00  0.00    +0.000 A 
ATOM      6 CL   UNL     1       0.379   9.809  22.632  0.00  0.00    +0.000 Cl
ATOM      7  C   UNL     1       1.220   9.478  20.047  0.00  0.00    +0.000 A 
ATOM      8 CL   UNL     1       1.080  11.176  19.768  0.00  0.00    +0.000 Cl
ATOM      9  C   UNL     1       1.698   8.682  19.008  0.00  0.00    +0.000 A 
ATOM     10  C   UNL     1       1.876   7.314  19.168  0.00  0.00    +0.000 A 
ATOM     11  N   UNL     1       2.445   6.605  18.169  0.00  0.00    +0.000 NA
ATOM     12  C   UNL     1       2.704   5.292  18.364  0.00  0.00    +0.000 A 
ENDROOT
BRANCH   1  14
ATOM     13  C   UNL     1       2.365   2.774  21.687  0.00  0.00    +0.000 C 
ATOM     14  S   UNL     1       2.867   3.086  20.019  0.00  0.00    +0.000 S 
ATOM     15  O   UNL     1       4.319   3.122  20.005  0.00  0.00    +0.000 OA
ATOM     16  O   UNL     1       2.161   2.114  19.193  0.00  0.00    +0.000 OA
ENDBRANCH   1  14
BRANCH  12  17
ATOM     17  N   UNL     1       3.406   4.617  17.354  0.00  0.00    +0.000 N 
ATOM     18  H   UNL     1       3.743   3.725  17.739  0.00  0.00    +0.000 HD
BRANCH  17  19
ATOM     19  C   UNL     1       4.587   5.294  16.761  0.00  0.00    +0.000 C 
ATOM     20  C   UNL     1       5.176   4.512  15.573  0.00  0.00    +0.000 C 
ATOM     21  C   UNL     1       6.644   4.209  15.798  0.00  0.00    +0.000 C 
ATOM     22  S   UNL     1       7.221   5.266  17.093  0.00  0.00    +0.000 S 
ATOM     23  O   UNL     1       7.854   6.416  16.475  0.00  0.00    +0.000 OA
ATOM     24  O   UNL     1       7.911   4.459  18.079  0.00  0.00    +0.000 OA
ATOM     25  C   UNL     1       5.650   5.780  17.738  0.00  0.00    +0.000 C 
ENDBRANCH  17  19
ENDBRANCH  12  17
TORSDOF 3
ENDMDL
MODEL 3
REMARK VINA RESULT:      -7.7      1.136      1.166
REMARK  Name = 
REMARK  4 active torsions:
REMARK  status: ('A' for Active; 'I' for Inactive)
REMARK    1  A    between atoms: C_1  and  S_2
REMARK    2  A    between atoms: S_2  and  C_5
REMARK    3  A    between atoms: C_16  and  N_17
REMARK    4  A    between atoms: N_17  and  C_18
REMARK                            x       y       z     vdW  Elec       q    Type
REMARK                         _______ _______ _______ _____ _____    ______ ____
ROOT
ATOM      1  C   UNL     1       2.797   4.562  19.299  0.00  0.00    +0.000 A 
ATOM      2  N   UNL     1       2.209   5.204  20.356  0.00  0.00    +0.000 NA
ATOM      3  C   UNL     1       1.896   6.501  20.167  0.00  0.00    +0.000 A 
ATOM      4  C   UNL     1       1.423   7.273  21.225  0.00  0.00    +0.000 A 
ATOM      5  C   UNL     1       1.120   8.629  21.054  0.00  0.00    +0.000 A 
ATOM      6 CL   UNL     1       0.600   9.523  22.436  0.00  0.00    +0.000 Cl
ATOM      7  C   UNL     1       1.269   9.215  19.799  0.00  0.00    +0.000 A 
ATOM      8 CL   UNL     1       0.908  10.877  19.498  0.00  0.00    +0.000 Cl
ATOM      9  C   UNL     1       1.755   8.450  18.740  0.00  0.00    +0.000 A 
ATOM     10  C   UNL     1       2.105   7.117  18.913  0.00  0.00    +0.000 A 
ATOM     11  N   UNL     1       2.674   6.450  17.885  0.00  0.00    +0.000 NA
ATOM     12  C   UNL     1       3.100   5.183  18.085  0.00  0.00    +0.000 A 
ENDROOT
BRANCH   1  14
ATOM     13  C   UNL     1       3.181   1.781  18.635  0.00  0.00    +0.000 C 
ATOM     14  S   UNL     1       3.652   3.060  19.765  0.00  0.00    +0.000 S 
ATOM     15  O   UNL     1       3.215   2.650  21.087  0.00  0.00    +0.000 OA
ATOM     16  O   UNL     1       5.066   3.319  19.519  0.00  0.00    +0.000 OA
ENDBRANCH   1  14
BRANCH  12  17
ATOM     17  N   UNL     1       3.796   4.564  17.035  0.00  0.00    +0.000 N 
ATOM     18  H   UNL     1       4.091   3.631  17.351  0.00  0.00    +0.000 HD
BRANCH  17  19
ATOM     19  C   UNL     1       5.014   5.239  16.519  0.00  0.00    +0.000 C 
ATOM     20  C   UNL     1       6.130   4.242  16.160  0.00  0.00    +0.000 C 
ATOM     21  C   UNL     1       7.410   4.570  16.904  0.00  0.00    +0.000 C 
ATOM     22  S   UNL     1       7.268   6.223  17.516  0.00  0.00    +0.000 S 
ATOM     23  O   UNL     1       7.937   7.101  16.574  0.00  0.00    +0.000 OA
ATOM     24  O   UNL     1       7.604   6.227  18.926  0.00  0.00    +0.000 OA
ATOM     25  C   UNL     1       5.517   6.432  17.320  0.00  0.00    +0.000 C 
ENDBRANCH  17  19
ENDBRANCH  12  17
TORSDOF 3
ENDMDL
MODEL 4
REMARK VINA RESULT:      -7.6      4.566      7.596
REMARK  Name = 
REMARK  4 active torsions:
REMARK  status: ('A' for Active; 'I' for Inactive)
REMARK    1  A    between atoms: C_1  and  S_2
REMARK    2  A    between atoms: S_2  and  C_5
REMARK    3  A    between atoms: C_16  and  N_17
REMARK    4  A    between atoms: N_17  and  C_18
REMARK                            x       y       z     vdW  Elec       q    Type
REMARK                         _______ _______ _______ _____ _____    ______ ____
ROOT
ATOM      1  C   UNL     1       6.616   5.176  17.474  0.00  0.00    +0.000 A 
ATOM      2  N   UNL     1       7.168   5.570  16.284  0.00  0.00    +0.000 NA
ATOM      3  C   UNL     1       6.712   4.947  15.179  0.00  0.00    +0.000 A 
ATOM      4  C   UNL     1       7.308   5.181  13.943  0.00  0.00    +0.000 A 
ATOM      5  C   UNL     1       6.867   4.522  12.789  0.00  0.00    +0.000 A 
ATOM      6 CL   UNL     1       7.706   4.825  11.312  0.00  0.00    +0.000 Cl
ATOM      7  C   UNL     1       5.796   3.634  12.871  0.00  0.00    +0.000 A 
ATOM      8 CL   UNL     1       5.182   2.787  11.497  0.00  0.00    +0.000 Cl
ATOM      9  C   UNL     1       5.205   3.387  14.108  0.00  0.00    +0.000 A 
ATOM     10  C   UNL     1       5.669   3.999  15.266  0.00  0.00    +0.000 A 
ATOM     11  N   UNL     1       5.135   3.643  16.455  0.00  0.00    +0.000 NA
ATOM     12  C   UNL     1       5.653   4.169  17.587  0.00  0.00    +0.000 A 
ENDROOT
BRANCH   1  14
ATOM     13  C   UNL     1       8.247   7.251  18.637  0.00  0.00    +0.000 C 
ATOM     14  S   UNL     1       7.601   5.625  18.900  0.00  0.00    +0.000 S 
ATOM     15  O   UNL     1       8.734   4.722  19.003  0.00  0.00    +0.000 OA
ATOM     16  O   UNL     1       6.661   5.734  20.009  0.00  0.00    +0.000 OA
ENDBRANCH   1  14
BRANCH  12  17
ATOM     17  N   UNL     1       5.159   3.685  18.808  0.00  0.00    +0.000 N 
ATOM     18  H   UNL     1       5.492   2.720  18.929  0.00  0.00    +0.000 HD
BRANCH  17  19
ATOM     19  C   UNL     1       3.686   3.649  18.993  0.00  0.00    +0.000 C 
ATOM     20  C   UNL     1       3.102   5.032  19.328  0.00  0.00    +0.000 C 
ATOM     21  C   UNL     1       2.319   4.990  20.626  0.00  0.00    +0.000 C 
ATOM     22  S   UNL     1       1.982   3.294  20.997  0.00  0.00    +0.000 S 
ATOM     23  O   UNL     1       0.644   2.996  20.521  0.00  0.00    +0.000 OA
ATOM     24  O   UNL     1       2.375   3.031  22.367  0.00  0.00    +0.000 OA
ATOM     25  C   UNL     1       3.145   2.541  19.888  0.00  0.00    +0.000 C 
ENDBRANCH  17  19
ENDBRANCH  12  17
TORSDOF 3
ENDMDL
MODEL 5
REMARK VINA RESULT:      -7.5      1.248      1.767
REMARK  Name = 
REMARK  4 active torsions:
REMARK  status: ('A' for Active; 'I' for Inactive)
REMARK    1  A    between atoms: C_1  and  S_2
REMARK    2  A    between atoms: S_2  and  C_5
REMARK    3  A    between atoms: C_16  and  N_17
REMARK    4  A    between atoms: N_17  and  C_18
REMARK                            x       y       z     vdW  Elec       q    Type
REMARK                         _______ _______ _______ _____ _____    ______ ____
ROOT
ATOM      1  C   UNL     1       2.213   4.138  19.490  0.00  0.00    +0.000 A 
ATOM      2  N   UNL     1       1.689   5.095  20.317  0.00  0.00    +0.000 NA
ATOM      3  C   UNL     1       1.729   6.363  19.863  0.00  0.00    +0.000 A 
ATOM      4  C   UNL     1       1.347   7.418  20.687  0.00  0.00    +0.000 A 
ATOM      5  C   UNL     1       1.408   8.744  20.241  0.00  0.00    +0.000 A 
ATOM      6 CL   UNL     1       0.976   9.992  21.352  0.00  0.00    +0.000 Cl
ATOM      7  C   UNL     1       1.835   9.016  18.943  0.00  0.00    +0.000 A 
ATOM      8 CL   UNL     1       1.931  10.619  18.310  0.00  0.00    +0.000 Cl
ATOM      9  C   UNL     1       2.231   7.964  18.119  0.00  0.00    +0.000 A 
ATOM     10  C   UNL     1       2.220   6.650  18.570  0.00  0.00    +0.000 A 
ATOM     11  N   UNL     1       2.716   5.679  17.772  0.00  0.00    +0.000 NA
ATOM     12  C   UNL     1       2.792   4.416  18.249  0.00  0.00    +0.000 A 
ENDROOT
BRANCH   1  14
ATOM     13  C   UNL     1       1.812   2.619  21.909  0.00  0.00    +0.000 C 
ATOM     14  S   UNL     1       2.615   2.610  20.332  0.00  0.00    +0.000 S 
ATOM     15  O   UNL     1       4.046   2.560  20.577  0.00  0.00    +0.000 OA
ATOM     16  O   UNL     1       1.978   1.553  19.557  0.00  0.00    +0.000 OA
ENDBRANCH   1  14
BRANCH  12  17
ATOM     17  N   UNL     1       3.426   3.459  17.441  0.00  0.00    +0.000 N 
ATOM     18  H   UNL     1       3.452   2.570  17.957  0.00  0.00    +0.000 HD
BRANCH  17  19
ATOM     19  C   UNL     1       4.818   3.734  17.004  0.00  0.00    +0.000 C 
ATOM     20  C   UNL     1       5.648   4.434  18.093  0.00  0.00    +0.000 C 
ATOM     21  C   UNL     1       6.233   5.734  17.578  0.00  0.00    +0.000 C 
ATOM     22  S   UNL     1       6.134   5.707  15.812  0.00  0.00    +0.000 S 
ATOM     23  O   UNL     1       7.420   5.268  15.305  0.00  0.00    +0.000 OA
ATOM     24  O   UNL     1       5.522   6.941  15.362  0.00  0.00    +0.000 OA
ATOM     25  C   UNL     1       4.982   4.370  15.630  0.00  0.00    +0.000 C 
ENDBRANCH  17  19
ENDBRANCH  12  17
TORSDOF 3
ENDMDL
MODEL 6
REMARK VINA RESULT:      -7.3      1.501      1.645
REMARK  Name = 
REMARK  4 active torsions:
REMARK  status: ('A' for Active; 'I' for Inactive)
REMARK    1  A    between atoms: C_1  and  S_2
REMARK    2  A    between atoms: S_2  and  C_5
REMARK    3  A    between atoms: C_16  and  N_17
REMARK    4  A    between atoms: N_17  and  C_18
REMARK                            x       y       z     vdW  Elec       q    Type
REMARK                         _______ _______ _______ _____ _____    ______ ____
ROOT
ATOM      1  C   UNL     1       2.802   4.844  19.025  0.00  0.00    +0.000 A 
ATOM      2  N   UNL     1       2.053   5.336  20.059  0.00  0.00    +0.000 NA
ATOM      3  C   UNL     1       1.759   6.650  20.011  0.00  0.00    +0.000 A 
ATOM      4  C   UNL     1       1.121   7.269  21.083  0.00  0.00    +0.000 A 
ATOM      5  C   UNL     1       0.834   8.639  21.063  0.00  0.00    +0.000 A 
ATOM      6 CL   UNL     1       0.099   9.333  22.462  0.00  0.00    +0.000 Cl
ATOM      7  C   UNL     1       1.169   9.396  19.942  0.00  0.00    +0.000 A 
ATOM      8 CL   UNL     1       0.842  11.088  19.829  0.00  0.00    +0.000 Cl
ATOM      9  C   UNL     1       1.819   8.784  18.872  0.00  0.00    +0.000 A 
ATOM     10  C   UNL     1       2.152   7.436  18.905  0.00  0.00    +0.000 A 
ATOM     11  N   UNL     1       2.879   6.916  17.892  0.00  0.00    +0.000 NA
ATOM     12  C   UNL     1       3.283   5.628  17.972  0.00  0.00    +0.000 A 
ENDROOT
BRANCH   1  14
ATOM     13  C   UNL     1       2.924   2.671  20.918  0.00  0.00    +0.000 C 
ATOM     14  S   UNL     1       3.592   3.280  19.397  0.00  0.00    +0.000 S 
ATOM     15  O   UNL     1       5.012   3.499  19.606  0.00  0.00    +0.000 OA
ATOM     16  O   UNL     1       3.148   2.358  18.359  0.00  0.00    +0.000 OA
ENDBRANCH   1  14
BRANCH  12  17
ATOM     17  N   UNL     1       4.138   5.157  16.964  0.00  0.00    +0.000 N 
ATOM     18  H   UNL     1       4.225   4.137  17.067  0.00  0.00    +0.000 HD
BRANCH  17  19
ATOM     19  C   UNL     1       5.521   5.695  16.922  0.00  0.00    +0.000 C 
ATOM     20  C   UNL     1       6.557   4.624  16.541  0.00  0.00    +0.000 C 
ATOM     21  C   UNL     1       7.640   4.517  17.596  0.00  0.00    +0.000 C 
ATOM     22  S   UNL     1       7.559   5.970  18.601  0.00  0.00    +0.000 S 
ATOM     23  O   UNL     1       8.546   6.908  18.100  0.00  0.00    +0.000 OA
ATOM     24  O   UNL     1       7.529   5.572  19.993  0.00  0.00    +0.000 OA
ATOM     25  C   UNL     1       5.953   6.544  18.110  0.00  0.00    +0.000 C 
ENDBRANCH  17  19
ENDBRANCH  12  17
TORSDOF 3
ENDMDL
MODEL 7
REMARK VINA RESULT:      -7.1      1.278      1.568
REMARK  Name = 
REMARK  4 active torsions:
REMARK  status: ('A' for Active; 'I' for Inactive)
REMARK    1  A    between atoms: C_1  and  S_2
REMARK    2  A    between atoms: S_2  and  C_5
REMARK    3  A    between atoms: C_16  and  N_17
REMARK    4  A    between atoms: N_17  and  C_18
REMARK                            x       y       z     vdW  Elec       q    Type
REMARK                         _______ _______ _______ _____ _____    ______ ____
ROOT
ATOM      1  C   UNL     1       2.274   4.562  19.523  0.00  0.00    +0.000 A 
ATOM      2  N   UNL     1       1.727   5.283  20.550  0.00  0.00    +0.000 NA
ATOM      3  C   UNL     1       1.578   6.606  20.338  0.00  0.00    +0.000 A 
ATOM      4  C   UNL     1       1.160   7.442  21.370  0.00  0.00    +0.000 A 
ATOM      5  C   UNL     1       1.028   8.822  21.176  0.00  0.00    +0.000 A 
ATOM      6 CL   UNL     1       0.566   9.789  22.529  0.00  0.00    +0.000 Cl
ATOM      7  C   UNL     1       1.294   9.370  19.923  0.00  0.00    +0.000 A 
ATOM      8 CL   UNL     1       1.147  11.059  19.594  0.00  0.00    +0.000 Cl
ATOM      9  C   UNL     1       1.726   8.539  18.890  0.00  0.00    +0.000 A 
ATOM     10  C   UNL     1       1.907   7.176  19.088  0.00  0.00    +0.000 A 
ATOM     11  N   UNL     1       2.431   6.433  18.089  0.00  0.00    +0.000 NA
ATOM     12  C   UNL     1       2.696   5.127  18.316  0.00  0.00    +0.000 A 
ENDROOT
BRANCH   1  14
ATOM     13  C   UNL     1       2.441   2.692  21.712  0.00  0.00    +0.000 C 
ATOM     14  S   UNL     1       2.925   2.975  20.034  0.00  0.00    +0.000 S 
ATOM     15  O   UNL     1       4.377   3.022  20.007  0.00  0.00    +0.000 OA
ATOM     16  O   UNL     1       2.219   1.982  19.233  0.00  0.00    +0.000 OA
ENDBRANCH   1  14
BRANCH  12  17
ATOM     17  N   UNL     1       3.353   4.416  17.300  0.00  0.00    +0.000 N 
ATOM     18  H   UNL     1       3.337   3.418  17.544  0.00  0.00    +0.000 HD
BRANCH  17  19
ATOM     19  C   UNL     1       4.770   4.759  17.020  0.00  0.00    +0.000 C 
ATOM     20  C   UNL     1       4.919   6.132  16.342  0.00  0.00    +0.000 C 
ATOM     21  C   UNL     1       5.674   6.012  15.033  0.00  0.00    +0.000 C 
ATOM     22  S   UNL     1       6.494   4.444  15.026  0.00  0.00    +0.000 S 
ATOM     23  O   UNL     1       7.862   4.661  15.458  0.00  0.00    +0.000 OA
ATOM     24  O   UNL     1       6.189   3.766  13.783  0.00  0.00    +0.000 OA
ATOM     25  C   UNL     1       5.610   3.674  16.358  0.00  0.00    +0.000 C 
ENDBRANCH  17  19
ENDBRANCH  12  17
TORSDOF 3
ENDMDL
MODEL 8
REMARK VINA RESULT:      -7.0      4.598      5.613
REMARK  Name = 
REMARK  4 active torsions:
REMARK  status: ('A' for Active; 'I' for Inactive)
REMARK    1  A    between atoms: C_1  and  S_2
REMARK    2  A    between atoms: S_2  and  C_5
REMARK    3  A    between atoms: C_16  and  N_17
REMARK    4  A    between atoms: N_17  and  C_18
REMARK                            x       y       z     vdW  Elec       q    Type
REMARK                         _______ _______ _______ _____ _____    ______ ____
ROOT
ATOM      1  C   UNL     1       6.101   4.262  17.742  0.00  0.00    +0.000 A 
ATOM      2  N   UNL     1       5.605   3.789  18.927  0.00  0.00    +0.000 NA
ATOM      3  C   UNL     1       4.292   3.486  18.947  0.00  0.00    +0.000 A 
ATOM      4  C   UNL     1       3.669   3.129  20.140  0.00  0.00    +0.000 A 
ATOM      5  C   UNL     1       2.300   2.840  20.184  0.00  0.00    +0.000 A 
ATOM      6 CL   UNL     1       1.600   2.469  21.717  0.00  0.00    +0.000 Cl
ATOM      7  C   UNL     1       1.548   2.884  19.011  0.00  0.00    +0.000 A 
ATOM      8 CL   UNL     1      -0.142   2.532  18.974  0.00  0.00    +0.000 Cl
ATOM      9  C   UNL     1       2.164   3.254  17.817  0.00  0.00    +0.000 A 
ATOM     10  C   UNL     1       3.511   3.591  17.774  0.00  0.00    +0.000 A 
ATOM     11  N   UNL     1       4.035   4.048  16.615  0.00  0.00    +0.000 NA
ATOM     12  C   UNL     1       5.321   4.465  16.600  0.00  0.00    +0.000 A 
ENDROOT
BRANCH   1  14
ATOM     13  C   UNL     1       7.751   5.777  19.559  0.00  0.00    +0.000 C 
ATOM     14  S   UNL     1       7.659   5.126  17.916  0.00  0.00    +0.000 S 
ATOM     15  O   UNL     1       7.685   6.256  17.003  0.00  0.00    +0.000 OA
ATOM     16  O   UNL     1       8.691   4.101  17.826  0.00  0.00    +0.000 OA
ENDBRANCH   1  14
BRANCH  12  17
ATOM     17  N   UNL     1       5.795   5.048  15.415  0.00  0.00    +0.000 N 
ATOM     18  H   UNL     1       4.998   5.474  14.925  0.00  0.00    +0.000 HD
BRANCH  17  19
ATOM     19  C   UNL     1       6.472   4.165  14.430  0.00  0.00    +0.000 C 
ATOM     20  C   UNL     1       7.405   4.945  13.488  0.00  0.00    +0.000 C 
ATOM     21  C   UNL     1       7.038   4.700  12.037  0.00  0.00    +0.000 C 
ATOM     22  S   UNL     1       6.006   3.265  11.977  0.00  0.00    +0.000 S 
ATOM     23  O   UNL     1       6.848   2.129  11.651  0.00  0.00    +0.000 OA
ATOM     24  O   UNL     1       4.821   3.577  11.204  0.00  0.00    +0.000 OA
ATOM     25  C   UNL     1       5.586   3.166  13.698  0.00  0.00    +0.000 C 
ENDBRANCH  17  19
ENDBRANCH  12  17
TORSDOF 3
ENDMDL
MODEL 9
REMARK VINA RESULT:      -7.0      0.995      1.161
REMARK  Name = 
REMARK  4 active torsions:
REMARK  status: ('A' for Active; 'I' for Inactive)
REMARK    1  A    between atoms: C_1  and  S_2
REMARK    2  A    between atoms: S_2  and  C_5
REMARK    3  A    between atoms: C_16  and  N_17
REMARK    4  A    between atoms: N_17  and  C_18
REMARK                            x       y       z     vdW  Elec       q    Type
REMARK                         _______ _______ _______ _____ _____    ______ ____
ROOT
ATOM      1  C   UNL     1       2.101   5.003  19.781  0.00  0.00    +0.000 A 
ATOM      2  N   UNL     1       1.532   5.840  20.703  0.00  0.00    +0.000 NA
ATOM      3  C   UNL     1       1.437   7.138  20.353  0.00  0.00    +0.000 A 
ATOM      4  C   UNL     1       1.000   8.086  21.275  0.00  0.00    +0.000 A 
ATOM      5  C   UNL     1       0.923   9.442  20.937  0.00  0.00    +0.000 A 
ATOM      6 CL   UNL     1       0.431  10.554  22.162  0.00  0.00    +0.000 Cl
ATOM      7  C   UNL     1       1.265   9.853  19.650  0.00  0.00    +0.000 A 
ATOM      8 CL   UNL     1       1.189  11.503  19.148  0.00  0.00    +0.000 Cl
ATOM      9  C   UNL     1       1.716   8.910  18.729  0.00  0.00    +0.000 A 
ATOM     10  C   UNL     1       1.842   7.569  19.070  0.00  0.00    +0.000 A 
ATOM     11  N   UNL     1       2.387   6.714  18.178  0.00  0.00    +0.000 NA
ATOM     12  C   UNL     1       2.597   5.430  18.547  0.00  0.00    +0.000 A 
ENDROOT
BRANCH   1  14
ATOM     13  C   UNL     1       1.810   2.135  19.685  0.00  0.00    +0.000 C 
ATOM     14  S   UNL     1       2.676   3.458  20.480  0.00  0.00    +0.000 S 
ATOM     15  O   UNL     1       2.331   3.413  21.891  0.00  0.00    +0.000 OA
ATOM     16  O   UNL     1       4.070   3.335  20.073  0.00  0.00    +0.000 OA
ENDBRANCH   1  14
BRANCH  12  17
ATOM     17  N   UNL     1       3.277   4.602  17.640  0.00  0.00    +0.000 N 
ATOM     18  H   UNL     1       3.267   3.644  18.012  0.00  0.00    +0.000 HD
BRANCH  17  19
ATOM     19  C   UNL     1       4.695   4.923  17.337  0.00  0.00    +0.000 C 
ATOM     20  C   UNL     1       4.842   6.218  16.521  0.00  0.00    +0.000 C 
ATOM     21  C   UNL     1       5.609   5.967  15.237  0.00  0.00    +0.000 C 
ATOM     22  S   UNL     1       6.438   4.413  15.401  0.00  0.00    +0.000 S 
ATOM     23  O   UNL     1       7.801   4.682  15.819  0.00  0.00    +0.000 OA
ATOM     24  O   UNL     1       6.147   3.606  14.233  0.00  0.00    +0.000 OA
ATOM     25  C   UNL     1       5.546   3.780  16.799  0.00  0.00    +0.000 C 
ENDBRANCH  17  19
ENDBRANCH  12  17
TORSDOF 3
ENDMDL
