MODEL 1
REMARK VINA RESULT:      -6.6      0.000      0.000
REMARK  Name = 
REMARK  11 active torsions:
REMARK  status: ('A' for Active; 'I' for Inactive)
REMARK    1  A    between atoms: C_1  and  C_2
REMARK    2  A    between atoms: C_2  and  C_3
REMARK    3  A    between atoms: C_3  and  N_4
REMARK    4  A    between atoms: C_5  and  C_7
REMARK    5  A    between atoms: C_7  and  C_8
REMARK    6  A    between atoms: C_12  and  C_14
REMARK    7  A    between atoms: C_16  and  C_17
REMARK    8  A    between atoms: C_17  and  C_18
REMARK    9  A    between atoms: C_17  and  C_19
REMARK   10  A    between atoms: C_17  and  C_20
REMARK   11  A    between atoms: N_22  and  C_23
REMARK                            x       y       z     vdW  Elec       q    Type
REMARK                         _______ _______ _______ _____ _____    ______ ____
ROOT
ATOM      1  C   UNL     1       6.444   3.345  12.185  0.00  0.00    +0.000 C 
ATOM      2  C   UNL     1       7.513   2.243  12.105  0.00  0.00    +0.000 C 
ATOM      3  C   UNL     1       6.998   4.702  11.732  0.00  0.00    +0.000 C 
ATOM      4  C   UNL     1       7.701   5.246  12.977  0.00  0.00    +0.000 C 
ATOM      5  N   UNL     1       6.982   4.670  14.100  0.00  0.00    +0.000 N 
ATOM      6  C   UNL     1       6.957   5.296  15.344  0.00  0.00    +0.000 C 
ATOM      7  O   UNL     1       7.571   6.350  15.525  0.00  0.00    +0.000 OA
ATOM      8  C   UNL     1       6.065   3.634  13.644  0.00  0.00    +0.000 C 
ENDROOT
BRANCH   6   9
ATOM      9  C   UNL     1       6.166   4.691  16.395  0.00  0.00    +0.000 A 
ATOM     10  C   UNL     1       4.865   4.222  16.399  0.00  0.00    +0.000 A 
ATOM     11  C   UNL     1       4.589   3.796  17.717  0.00  0.00    +0.000 A 
ATOM     12  N   UNL     1       5.691   3.871  18.471  0.00  0.00    +0.000 NA
ATOM     13  N   UNL     1       6.627   4.401  17.657  0.00  0.00    +0.000 N 
ATOM     14  C   UNL     1       7.941   4.659  18.201  0.00  0.00    +0.000 C 
BRANCH  11  15
ATOM     15  C   UNL     1       3.277   3.275  18.274  0.00  0.00    +0.000 C 
ATOM     16  C   UNL     1       3.132   3.709  19.743  0.00  0.00    +0.000 C 
ATOM     17  C   UNL     1       2.073   3.810  17.470  0.00  0.00    +0.000 C 
ATOM     18  C   UNL     1       3.222   1.731  18.210  0.00  0.00    +0.000 C 
ENDBRANCH  11  15
ENDBRANCH   6   9
BRANCH   1  20
ATOM     19  N   UNL     1       4.248   3.893  11.216  0.00  0.00    +0.000 N 
ATOM     20  C   UNL     1       5.185   2.908  11.430  0.00  0.00    +0.000 C 
ATOM     21  O   UNL     1       5.027   1.763  11.013  0.00  0.00    +0.000 OA
ATOM     22  H   UNL     1       4.375   4.813  11.616  0.00  0.00    +0.000 HD
BRANCH  19  23
ATOM     23  C   UNL     1       3.020   3.618  10.492  0.00  0.00    +0.000 C 
BRANCH  23  25
ATOM     24  C   UNL     1       2.050   5.247   8.818  0.00  0.00    +0.000 C 
ATOM     25  C   UNL     1       3.063   4.140   9.059  0.00  0.00    +0.000 C 
ENDBRANCH  23  25
ENDBRANCH  19  23
ENDBRANCH   1  20
TORSDOF 5
ENDMDL
MODEL 2
REMARK VINA RESULT:      -6.5      4.477      7.295
REMARK  Name = 
REMARK  11 active torsions:
REMARK  status: ('A' for Active; 'I' for Inactive)
REMARK    1  A    between atoms: C_1  and  C_2
REMARK    2  A    between atoms: C_2  and  C_3
REMARK    3  A    between atoms: C_3  and  N_4
REMARK    4  A    between atoms: C_5  and  C_7
REMARK    5  A    between atoms: C_7  and  C_8
REMARK    6  A    between atoms: C_12  and  C_14
REMARK    7  A    between atoms: C_16  and  C_17
REMARK    8  A    between atoms: C_17  and  C_18
REMARK    9  A    between atoms: C_17  and  C_19
REMARK   10  A    between atoms: C_17  and  C_20
REMARK   11  A    between atoms: N_22  and  C_23
REMARK                            x       y       z     vdW  Elec       q    Type
REMARK                         _______ _______ _______ _____ _____    ______ ____
ROOT
ATOM      1  C   UNL     1       5.684   5.585  16.586  0.00  0.00    +0.000 C 
ATOM      2  C   UNL     1       5.543   6.013  15.116  0.00  0.00    +0.000 C 
ATOM      3  C   UNL     1       5.437   4.080  16.761  0.00  0.00    +0.000 C 
ATOM      4  C   UNL     1       3.913   3.964  16.836  0.00  0.00    +0.000 C 
ATOM      5  N   UNL     1       3.465   5.225  17.398  0.00  0.00    +0.000 N 
ATOM      6  C   UNL     1       2.263   5.321  18.096  0.00  0.00    +0.000 C 
ATOM      7  O   UNL     1       1.537   4.334  18.230  0.00  0.00    +0.000 OA
ATOM      8  C   UNL     1       4.559   6.186  17.440  0.00  0.00    +0.000 C 
ENDROOT
BRANCH   6   9
ATOM      9  C   UNL     1       1.916   6.600  18.680  0.00  0.00    +0.000 A 
ATOM     10  C   UNL     1       1.536   7.795  18.094  0.00  0.00    +0.000 A 
ATOM     11  C   UNL     1       1.384   8.731  19.140  0.00  0.00    +0.000 A 
ATOM     12  N   UNL     1       1.534   8.133  20.327  0.00  0.00    +0.000 NA
ATOM     13  N   UNL     1       1.842   6.854  20.029  0.00  0.00    +0.000 N 
ATOM     14  C   UNL     1       2.118   5.944  21.118  0.00  0.00    +0.000 C 
BRANCH  11  15
ATOM     15  C   UNL     1       1.058  10.210  19.029  0.00  0.00    +0.000 C 
ATOM     16  C   UNL     1       0.993  10.830  20.436  0.00  0.00    +0.000 C 
ATOM     17  C   UNL     1       2.121  10.958  18.198  0.00  0.00    +0.000 C 
ATOM     18  C   UNL     1      -0.306  10.426  18.334  0.00  0.00    +0.000 C 
ENDBRANCH  11  15
ENDBRANCH   6   9
BRANCH   1  20
ATOM     19  N   UNL     1       7.139   7.416  17.357  0.00  0.00    +0.000 N 
ATOM     20  C   UNL     1       7.028   6.060  17.144  0.00  0.00    +0.000 C 
ATOM     21  O   UNL     1       7.942   5.286  17.416  0.00  0.00    +0.000 OA
ATOM     22  H   UNL     1       6.393   8.038  17.075  0.00  0.00    +0.000 HD
BRANCH  19  23
ATOM     23  C   UNL     1       8.351   7.994  17.905  0.00  0.00    +0.000 C 
BRANCH  23  25
ATOM     24  C   UNL     1       9.203  10.058  19.093  0.00  0.00    +0.000 C 
ATOM     25  C   UNL     1       8.265   9.512  18.029  0.00  0.00    +0.000 C 
ENDBRANCH  23  25
ENDBRANCH  19  23
ENDBRANCH   1  20
TORSDOF 5
ENDMDL
MODEL 3
REMARK VINA RESULT:      -6.5     11.150     13.536
REMARK  Name = 
REMARK  11 active torsions:
REMARK  status: ('A' for Active; 'I' for Inactive)
REMARK    1  A    between atoms: C_1  and  C_2
REMARK    2  A    between atoms: C_2  and  C_3
REMARK    3  A    between atoms: C_3  and  N_4
REMARK    4  A    between atoms: C_5  and  C_7
REMARK    5  A    between atoms: C_7  and  C_8
REMARK    6  A    between atoms: C_12  and  C_14
REMARK    7  A    between atoms: C_16  and  C_17
REMARK    8  A    between atoms: C_17  and  C_18
REMARK    9  A    between atoms: C_17  and  C_19
REMARK   10  A    between atoms: C_17  and  C_20
REMARK   11  A    between atoms: N_22  and  C_23
REMARK                            x       y       z     vdW  Elec       q    Type
REMARK                         _______ _______ _______ _____ _____    ______ ____
ROOT
ATOM      1  C   UNL     1      -1.652  11.318  18.098  0.00  0.00    +0.000 C 
ATOM      2  C   UNL     1      -0.974  12.670  17.824  0.00  0.00    +0.000 C 
ATOM      3  C   UNL     1      -2.249  10.716  16.819  0.00  0.00    +0.000 C 
ATOM      4  C   UNL     1      -3.606  11.409  16.686  0.00  0.00    +0.000 C 
ATOM      5  N   UNL     1      -4.007  11.720  18.047  0.00  0.00    +0.000 N 
ATOM      6  C   UNL     1      -5.349  11.860  18.393  0.00  0.00    +0.000 C 
ATOM      7  O   UNL     1      -6.230  11.745  17.540  0.00  0.00    +0.000 OA
ATOM      8  C   UNL     1      -2.902  11.500  18.970  0.00  0.00    +0.000 C 
ENDROOT
BRANCH   6   9
ATOM      9  C   UNL     1      -5.670  12.109  19.784  0.00  0.00    +0.000 A 
ATOM     10  C   UNL     1      -5.280  13.124  20.639  0.00  0.00    +0.000 A 
ATOM     11  C   UNL     1      -5.840  12.829  21.902  0.00  0.00    +0.000 A 
ATOM     12  N   UNL     1      -6.641  11.761  21.820  0.00  0.00    +0.000 NA
ATOM     13  N   UNL     1      -6.532  11.351  20.539  0.00  0.00    +0.000 N 
ATOM     14  C   UNL     1      -7.253  10.164  20.137  0.00  0.00    +0.000 C 
BRANCH  11  15
ATOM     15  C   UNL     1      -5.649  13.582  23.206  0.00  0.00    +0.000 C 
ATOM     16  C   UNL     1      -4.982  14.940  22.925  0.00  0.00    +0.000 C 
ATOM     17  C   UNL     1      -6.997  13.822  23.919  0.00  0.00    +0.000 C 
ATOM     18  C   UNL     1      -4.751  12.786  24.180  0.00  0.00    +0.000 C 
ENDBRANCH  11  15
ENDBRANCH   6   9
BRANCH   1  20
ATOM     19  N   UNL     1       0.490  10.105  18.158  0.00  0.00    +0.000 N 
ATOM     20  C   UNL     1      -0.681  10.383  18.826  0.00  0.00    +0.000 C 
ATOM     21  O   UNL     1      -0.910   9.933  19.945  0.00  0.00    +0.000 OA
ATOM     22  H   UNL     1       0.632  10.444  17.216  0.00  0.00    +0.000 HD
BRANCH  19  23
ATOM     23  C   UNL     1       1.507   9.253  18.747  0.00  0.00    +0.000 C 
BRANCH  23  25
ATOM     24  C   UNL     1       2.706   7.088  18.224  0.00  0.00    +0.000 C 
ATOM     25  C   UNL     1       2.264   8.444  17.698  0.00  0.00    +0.000 C 
ENDBRANCH  23  25
ENDBRANCH  19  23
ENDBRANCH   1  20
TORSDOF 5
ENDMDL
MODEL 4
REMARK VINA RESULT:      -6.5     11.354     14.103
REMARK  Name = 
REMARK  11 active torsions:
REMARK  status: ('A' for Active; 'I' for Inactive)
REMARK    1  A    between atoms: C_1  and  C_2
REMARK    2  A    between atoms: C_2  and  C_3
REMARK    3  A    between atoms: C_3  and  N_4
REMARK    4  A    between atoms: C_5  and  C_7
REMARK    5  A    between atoms: C_7  and  C_8
REMARK    6  A    between atoms: C_12  and  C_14
REMARK    7  A    between atoms: C_16  and  C_17
REMARK    8  A    between atoms: C_17  and  C_18
REMARK    9  A    between atoms: C_17  and  C_19
REMARK   10  A    between atoms: C_17  and  C_20
REMARK   11  A    between atoms: N_22  and  C_23
REMARK                            x       y       z     vdW  Elec       q    Type
REMARK                         _______ _______ _______ _____ _____    ______ ____
ROOT
ATOM      1  C   UNL     1      -1.488  11.372  18.366  0.00  0.00    +0.000 C 
ATOM      2  C   UNL     1      -0.805  12.726  18.116  0.00  0.00    +0.000 C 
ATOM      3  C   UNL     1      -2.032  10.765  17.066  0.00  0.00    +0.000 C 
ATOM      4  C   UNL     1      -3.385  11.453  16.877  0.00  0.00    +0.000 C 
ATOM      5  N   UNL     1      -3.841  11.766  18.220  0.00  0.00    +0.000 N 
ATOM      6  C   UNL     1      -5.196  11.902  18.512  0.00  0.00    +0.000 C 
ATOM      7  O   UNL     1      -6.042  11.782  17.624  0.00  0.00    +0.000 OA
ATOM      8  C   UNL     1      -2.773  11.551  19.187  0.00  0.00    +0.000 C 
ENDROOT
BRANCH   6   9
ATOM      9  C   UNL     1      -5.573  12.153  19.888  0.00  0.00    +0.000 A 
ATOM     10  C   UNL     1      -5.190  13.149  20.769  0.00  0.00    +0.000 A 
ATOM     11  C   UNL     1      -5.818  12.865  22.002  0.00  0.00    +0.000 A 
ATOM     12  N   UNL     1      -6.650  11.826  21.873  0.00  0.00    +0.000 NA
ATOM     13  N   UNL     1      -6.495  11.420  20.596  0.00  0.00    +0.000 N 
ATOM     14  C   UNL     1      -7.236  10.261  20.151  0.00  0.00    +0.000 C 
BRANCH  11  15
ATOM     15  C   UNL     1      -5.663  13.604  23.319  0.00  0.00    +0.000 C 
ATOM     16  C   UNL     1      -5.032  12.667  24.364  0.00  0.00    +0.000 C 
ATOM     17  C   UNL     1      -4.773  14.854  23.161  0.00  0.00    +0.000 C 
ATOM     18  C   UNL     1      -7.035  14.080  23.851  0.00  0.00    +0.000 C 
ENDBRANCH  11  15
ENDBRANCH   6   9
BRANCH   1  20
ATOM     19  N   UNL     1      -0.680  10.456  20.504  0.00  0.00    +0.000 N 
ATOM     20  C   UNL     1      -0.544  10.442  19.135  0.00  0.00    +0.000 C 
ATOM     21  O   UNL     1       0.263   9.707  18.572  0.00  0.00    +0.000 OA
ATOM     22  H   UNL     1      -1.313  11.109  20.947  0.00  0.00    +0.000 HD
BRANCH  19  23
ATOM     23  C   UNL     1       0.137   9.604  21.349  0.00  0.00    +0.000 C 
BRANCH  23  25
ATOM     24  C   UNL     1      -1.167  10.815  23.147  0.00  0.00    +0.000 C 
ATOM     25  C   UNL     1      -0.351   9.582  22.794  0.00  0.00    +0.000 C 
ENDBRANCH  23  25
ENDBRANCH  19  23
ENDBRANCH   1  20
TORSDOF 5
ENDMDL
MODEL 5
REMARK VINA RESULT:      -6.5      7.686      9.855
REMARK  Name = 
REMARK  11 active torsions:
REMARK  status: ('A' for Active; 'I' for Inactive)
REMARK    1  A    between atoms: C_1  and  C_2
REMARK    2  A    between atoms: C_2  and  C_3
REMARK    3  A    between atoms: C_3  and  N_4
REMARK    4  A    between atoms: C_5  and  C_7
REMARK    5  A    between atoms: C_7  and  C_8
REMARK    6  A    between atoms: C_12  and  C_14
REMARK    7  A    between atoms: C_16  and  C_17
REMARK    8  A    between atoms: C_17  and  C_18
REMARK    9  A    between atoms: C_17  and  C_19
REMARK   10  A    between atoms: C_17  and  C_20
REMARK   11  A    between atoms: N_22  and  C_23
REMARK                            x       y       z     vdW  Elec       q    Type
REMARK                         _______ _______ _______ _____ _____    ______ ____
ROOT
ATOM      1  C   UNL     1      -1.524  11.847  18.692  0.00  0.00    +0.000 C 
ATOM      2  C   UNL     1      -0.728  12.963  17.996  0.00  0.00    +0.000 C 
ATOM      3  C   UNL     1      -1.952  12.258  20.107  0.00  0.00    +0.000 C 
ATOM      4  C   UNL     1      -0.720  11.961  20.964  0.00  0.00    +0.000 C 
ATOM      5  N   UNL     1      -0.048  10.863  20.293  0.00  0.00    +0.000 N 
ATOM      6  C   UNL     1       0.774   9.981  20.992  0.00  0.00    +0.000 C 
ATOM      7  O   UNL     1       0.968  10.131  22.199  0.00  0.00    +0.000 OA
ATOM      8  C   UNL     1      -0.628  10.634  18.977  0.00  0.00    +0.000 C 
ENDROOT
BRANCH   6   9
ATOM      9  C   UNL     1       1.360   8.875  20.263  0.00  0.00    +0.000 A 
ATOM     10  C   UNL     1       1.426   7.525  20.558  0.00  0.00    +0.000 A 
ATOM     11  C   UNL     1       2.173   6.918  19.524  0.00  0.00    +0.000 A 
ATOM     12  N   UNL     1       2.453   7.809  18.567  0.00  0.00    +0.000 NA
ATOM     13  N   UNL     1       1.949   8.973  19.025  0.00  0.00    +0.000 N 
ATOM     14  C   UNL     1       2.136  10.163  18.225  0.00  0.00    +0.000 C 
BRANCH  11  15
ATOM     15  C   UNL     1       2.604   5.467  19.412  0.00  0.00    +0.000 C 
ATOM     16  C   UNL     1       2.039   4.860  18.116  0.00  0.00    +0.000 C 
ATOM     17  C   UNL     1       4.142   5.337  19.400  0.00  0.00    +0.000 C 
ATOM     18  C   UNL     1       2.083   4.640  20.610  0.00  0.00    +0.000 C 
ENDBRANCH  11  15
ENDBRANCH   6   9
BRANCH   1  20
ATOM     19  N   UNL     1      -2.480  11.530  16.445  0.00  0.00    +0.000 N 
ATOM     20  C   UNL     1      -2.685  11.398  17.800  0.00  0.00    +0.000 C 
ATOM     21  O   UNL     1      -3.722  10.922  18.254  0.00  0.00    +0.000 OA
ATOM     22  H   UNL     1      -1.641  11.975  16.098  0.00  0.00    +0.000 HD
BRANCH  19  23
ATOM     23  C   UNL     1      -3.491  11.119  15.489  0.00  0.00    +0.000 C 
BRANCH  23  25
ATOM     24  C   UNL     1      -3.697   9.862  13.303  0.00  0.00    +0.000 C 
ATOM     25  C   UNL     1      -3.066   9.893  14.686  0.00  0.00    +0.000 C 
ENDBRANCH  23  25
ENDBRANCH  19  23
ENDBRANCH   1  20
TORSDOF 5
ENDMDL
MODEL 6
REMARK VINA RESULT:      -6.5      8.006     10.538
REMARK  Name = 
REMARK  11 active torsions:
REMARK  status: ('A' for Active; 'I' for Inactive)
REMARK    1  A    between atoms: C_1  and  C_2
REMARK    2  A    between atoms: C_2  and  C_3
REMARK    3  A    between atoms: C_3  and  N_4
REMARK    4  A    between atoms: C_5  and  C_7
REMARK    5  A    between atoms: C_7  and  C_8
REMARK    6  A    between atoms: C_12  and  C_14
REMARK    7  A    between atoms: C_16  and  C_17
REMARK    8  A    between atoms: C_17  and  C_18
REMARK    9  A    between atoms: C_17  and  C_19
REMARK   10  A    between atoms: C_17  and  C_20
REMARK   11  A    between atoms: N_22  and  C_23
REMARK                            x       y       z     vdW  Elec       q    Type
REMARK                         _______ _______ _______ _____ _____    ______ ____
ROOT
ATOM      1  C   UNL     1      -1.789  11.546  18.838  0.00  0.00    +0.000 C 
ATOM      2  C   UNL     1      -1.141  12.606  17.933  0.00  0.00    +0.000 C 
ATOM      3  C   UNL     1      -2.021  12.081  20.258  0.00  0.00    +0.000 C 
ATOM      4  C   UNL     1      -0.668  11.893  20.947  0.00  0.00    +0.000 C 
ATOM      5  N   UNL     1      -0.063  10.749  20.288  0.00  0.00    +0.000 N 
ATOM      6  C   UNL     1       0.881   9.955  20.934  0.00  0.00    +0.000 C 
ATOM      7  O   UNL     1       1.243  10.223  22.081  0.00  0.00    +0.000 OA
ATOM      8  C   UNL     1      -0.821  10.383  19.098  0.00  0.00    +0.000 C 
ENDROOT
BRANCH   6   9
ATOM      9  C   UNL     1       1.391   8.796  20.231  0.00  0.00    +0.000 A 
ATOM     10  C   UNL     1       1.423   7.459  20.586  0.00  0.00    +0.000 A 
ATOM     11  C   UNL     1       2.098   6.779  19.548  0.00  0.00    +0.000 A 
ATOM     12  N   UNL     1       2.364   7.615  18.539  0.00  0.00    +0.000 NA
ATOM     13  N   UNL     1       1.924   8.817  18.965  0.00  0.00    +0.000 N 
ATOM     14  C   UNL     1       2.116   9.962  18.103  0.00  0.00    +0.000 C 
BRANCH  11  15
ATOM     15  C   UNL     1       2.471   5.309  19.484  0.00  0.00    +0.000 C 
ATOM     16  C   UNL     1       1.932   4.696  18.179  0.00  0.00    +0.000 C 
ATOM     17  C   UNL     1       4.001   5.115  19.535  0.00  0.00    +0.000 C 
ATOM     18  C   UNL     1       1.870   4.532  20.677  0.00  0.00    +0.000 C 
ENDBRANCH  11  15
ENDBRANCH   6   9
BRANCH   1  20
ATOM     19  N   UNL     1      -4.085  11.886  18.017  0.00  0.00    +0.000 N 
ATOM     20  C   UNL     1      -3.052  10.991  18.173  0.00  0.00    +0.000 C 
ATOM     21  O   UNL     1      -3.134   9.832  17.774  0.00  0.00    +0.000 OA
ATOM     22  H   UNL     1      -4.014  12.819  18.402  0.00  0.00    +0.000 HD
BRANCH  19  23
ATOM     23  C   UNL     1      -5.328  11.496  17.379  0.00  0.00    +0.000 C 
BRANCH  23  25
ATOM     24  C   UNL     1      -6.371  11.773  19.667  0.00  0.00    +0.000 C 
ATOM     25  C   UNL     1      -6.352  10.966  18.379  0.00  0.00    +0.000 C 
ENDBRANCH  23  25
ENDBRANCH  19  23
ENDBRANCH   1  20
TORSDOF 5
ENDMDL
MODEL 7
REMARK VINA RESULT:      -6.4      8.144     10.539
REMARK  Name = 
REMARK  11 active torsions:
REMARK  status: ('A' for Active; 'I' for Inactive)
REMARK    1  A    between atoms: C_1  and  C_2
REMARK    2  A    between atoms: C_2  and  C_3
REMARK    3  A    between atoms: C_3  and  N_4
REMARK    4  A    between atoms: C_5  and  C_7
REMARK    5  A    between atoms: C_7  and  C_8
REMARK    6  A    between atoms: C_12  and  C_14
REMARK    7  A    between atoms: C_16  and  C_17
REMARK    8  A    between atoms: C_17  and  C_18
REMARK    9  A    between atoms: C_17  and  C_19
REMARK   10  A    between atoms: C_17  and  C_20
REMARK   11  A    between atoms: N_22  and  C_23
REMARK                            x       y       z     vdW  Elec       q    Type
REMARK                         _______ _______ _______ _____ _____    ______ ____
ROOT
ATOM      1  C   UNL     1      -2.532  10.840  17.613  0.00  0.00    +0.000 C 
ATOM      2  C   UNL     1      -2.416  10.904  16.081  0.00  0.00    +0.000 C 
ATOM      3  C   UNL     1      -2.403  12.232  18.247  0.00  0.00    +0.000 C 
ATOM      4  C   UNL     1      -0.893  12.458  18.335  0.00  0.00    +0.000 C 
ATOM      5  N   UNL     1      -0.319  11.131  18.469  0.00  0.00    +0.000 N 
ATOM      6  C   UNL     1       0.914  10.933  19.086  0.00  0.00    +0.000 C 
ATOM      7  O   UNL     1       1.560  11.891  19.513  0.00  0.00    +0.000 OA
ATOM      8  C   UNL     1      -1.327  10.108  18.222  0.00  0.00    +0.000 C 
ENDROOT
BRANCH   6   9
ATOM      9  C   UNL     1       1.390   9.573  19.236  0.00  0.00    +0.000 A 
ATOM     10  C   UNL     1       2.152   8.778  18.398  0.00  0.00    +0.000 A 
ATOM     11  C   UNL     1       2.258   7.515  19.021  0.00  0.00    +0.000 A 
ATOM     12  N   UNL     1       1.704   7.547  20.238  0.00  0.00    +0.000 NA
ATOM     13  N   UNL     1       1.198   8.792  20.351  0.00  0.00    +0.000 N 
ATOM     14  C   UNL     1       0.478   9.132  21.557  0.00  0.00    +0.000 C 
BRANCH  11  15
ATOM     15  C   UNL     1       2.921   6.261  18.480  0.00  0.00    +0.000 C 
ATOM     16  C   UNL     1       1.849   5.315  17.910  0.00  0.00    +0.000 C 
ATOM     17  C   UNL     1       3.937   6.597  17.369  0.00  0.00    +0.000 C 
ATOM     18  C   UNL     1       3.690   5.516  19.596  0.00  0.00    +0.000 C 
ENDBRANCH  11  15
ENDBRANCH   6   9
BRANCH   1  20
ATOM     19  N   UNL     1      -4.900  10.887  18.284  0.00  0.00    +0.000 N 
ATOM     20  C   UNL     1      -3.808  10.094  18.012  0.00  0.00    +0.000 C 
ATOM     21  O   UNL     1      -3.871   8.869  18.057  0.00  0.00    +0.000 OA
ATOM     22  H   UNL     1      -4.809  11.894  18.292  0.00  0.00    +0.000 HD
BRANCH  19  23
ATOM     23  C   UNL     1      -6.178  10.306  18.649  0.00  0.00    +0.000 C 
BRANCH  23  25
ATOM     24  C   UNL     1      -6.073  12.045  20.483  0.00  0.00    +0.000 C 
ATOM     25  C   UNL     1      -6.973  11.201  19.595  0.00  0.00    +0.000 C 
ENDBRANCH  23  25
ENDBRANCH  19  23
ENDBRANCH   1  20
TORSDOF 5
ENDMDL
MODEL 8
REMARK VINA RESULT:      -6.4      4.376      7.279
REMARK  Name = 
REMARK  11 active torsions:
REMARK  status: ('A' for Active; 'I' for Inactive)
REMARK    1  A    between atoms: C_1  and  C_2
REMARK    2  A    between atoms: C_2  and  C_3
REMARK    3  A    between atoms: C_3  and  N_4
REMARK    4  A    between atoms: C_5  and  C_7
REMARK    5  A    between atoms: C_7  and  C_8
REMARK    6  A    between atoms: C_12  and  C_14
REMARK    7  A    between atoms: C_16  and  C_17
REMARK    8  A    between atoms: C_17  and  C_18
REMARK    9  A    between atoms: C_17  and  C_19
REMARK   10  A    between atoms: C_17  and  C_20
REMARK   11  A    between atoms: N_22  and  C_23
REMARK                            x       y       z     vdW  Elec       q    Type
REMARK                         _______ _______ _______ _____ _____    ______ ____
ROOT
ATOM      1  C   UNL     1       5.858   5.853  17.017  0.00  0.00    +0.000 C 
ATOM      2  C   UNL     1       5.556   6.728  15.790  0.00  0.00    +0.000 C 
ATOM      3  C   UNL     1       5.874   4.362  16.657  0.00  0.00    +0.000 C 
ATOM      4  C   UNL     1       4.399   3.960  16.690  0.00  0.00    +0.000 C 
ATOM      5  N   UNL     1       3.786   4.851  17.659  0.00  0.00    +0.000 N 
ATOM      6  C   UNL     1       2.631   4.488  18.349  0.00  0.00    +0.000 C 
ATOM      7  O   UNL     1       2.088   3.403  18.133  0.00  0.00    +0.000 OA
ATOM      8  C   UNL     1       4.707   5.916  18.030  0.00  0.00    +0.000 C 
ENDROOT
BRANCH   6   9
ATOM      9  C   UNL     1       2.117   5.406  19.344  0.00  0.00    +0.000 A 
ATOM     10  C   UNL     1       1.716   6.727  19.242  0.00  0.00    +0.000 A 
ATOM     11  C   UNL     1       1.367   7.148  20.544  0.00  0.00    +0.000 A 
ATOM     12  N   UNL     1       1.421   6.120  21.397  0.00  0.00    +0.000 NA
ATOM     13  N   UNL     1       1.864   5.083  20.656  0.00  0.00    +0.000 N 
ATOM     14  C   UNL     1       2.080   3.814  21.313  0.00  0.00    +0.000 C 
BRANCH  11  15
ATOM     15  C   UNL     1       0.940   8.533  20.993  0.00  0.00    +0.000 C 
ATOM     16  C   UNL     1       1.007   9.506  19.802  0.00  0.00    +0.000 C 
ATOM     17  C   UNL     1      -0.498   8.524  21.554  0.00  0.00    +0.000 C 
ATOM     18  C   UNL     1       1.866   9.063  22.113  0.00  0.00    +0.000 C 
ENDBRANCH  11  15
ENDBRANCH   6   9
BRANCH   1  20
ATOM     19  N   UNL     1       7.315   7.702  17.739  0.00  0.00    +0.000 N 
ATOM     20  C   UNL     1       7.140   6.337  17.702  0.00  0.00    +0.000 C 
ATOM     21  O   UNL     1       7.947   5.567  18.215  0.00  0.00    +0.000 OA
ATOM     22  H   UNL     1       6.665   8.312  17.263  0.00  0.00    +0.000 HD
BRANCH  19  23
ATOM     23  C   UNL     1       8.475   8.293  18.381  0.00  0.00    +0.000 C 
BRANCH  23  25
ATOM     24  C   UNL     1       9.486  10.467  19.188  0.00  0.00    +0.000 C 
ATOM     25  C   UNL     1       8.518   9.809  18.218  0.00  0.00    +0.000 C 
ENDBRANCH  23  25
ENDBRANCH  19  23
ENDBRANCH   1  20
TORSDOF 5
ENDMDL
MODEL 9
REMARK VINA RESULT:      -6.4     13.967     16.438
REMARK  Name = 
REMARK  11 active torsions:
REMARK  status: ('A' for Active; 'I' for Inactive)
REMARK    1  A    between atoms: C_1  and  C_2
REMARK    2  A    between atoms: C_2  and  C_3
REMARK    3  A    between atoms: C_3  and  N_4
REMARK    4  A    between atoms: C_5  and  C_7
REMARK    5  A    between atoms: C_7  and  C_8
REMARK    6  A    between atoms: C_12  and  C_14
REMARK    7  A    between atoms: C_16  and  C_17
REMARK    8  A    between atoms: C_17  and  C_18
REMARK    9  A    between atoms: C_17  and  C_19
REMARK   10  A    between atoms: C_17  and  C_20
REMARK   11  A    between atoms: N_22  and  C_23
REMARK                            x       y       z     vdW  Elec       q    Type
REMARK                         _______ _______ _______ _____ _____    ______ ____
ROOT
ATOM      1  C   UNL     1      -6.512  12.077  19.201  0.00  0.00    +0.000 C 
ATOM      2  C   UNL     1      -7.654  12.803  18.471  0.00  0.00    +0.000 C 
ATOM      3  C   UNL     1      -6.957  10.701  19.715  0.00  0.00    +0.000 C 
ATOM      4  C   UNL     1      -7.654  11.012  21.041  0.00  0.00    +0.000 C 
ATOM      5  N   UNL     1      -7.008  12.215  21.535  0.00  0.00    +0.000 N 
ATOM      6  C   UNL     1      -6.974  12.513  22.895  0.00  0.00    +0.000 C 
ATOM      7  O   UNL     1      -7.516  11.768  23.713  0.00  0.00    +0.000 OA
ATOM      8  C   UNL     1      -6.154  12.797  20.508  0.00  0.00    +0.000 C 
ENDROOT
BRANCH   6   9
ATOM      9  C   UNL     1      -6.256  13.700  23.313  0.00  0.00    +0.000 A 
ATOM     10  C   UNL     1      -6.643  15.028  23.358  0.00  0.00    +0.000 A 
ATOM     11  C   UNL     1      -5.517  15.766  23.786  0.00  0.00    +0.000 A 
ATOM     12  N   UNL     1      -4.517  14.941  24.115  0.00  0.00    +0.000 NA
ATOM     13  N   UNL     1      -4.984  13.707  23.833  0.00  0.00    +0.000 N 
ATOM     14  C   UNL     1      -4.104  12.578  24.037  0.00  0.00    +0.000 C 
BRANCH  11  15
ATOM     15  C   UNL     1      -5.385  17.271  23.924  0.00  0.00    +0.000 C 
ATOM     16  C   UNL     1      -4.354  17.794  22.908  0.00  0.00    +0.000 C 
ATOM     17  C   UNL     1      -6.735  17.978  23.679  0.00  0.00    +0.000 C 
ATOM     18  C   UNL     1      -4.915  17.659  25.345  0.00  0.00    +0.000 C 
ENDBRANCH  11  15
ENDBRANCH   6   9
BRANCH   1  20
ATOM     19  N   UNL     1      -4.090  11.717  18.951  0.00  0.00    +0.000 N 
ATOM     20  C   UNL     1      -5.267  12.031  18.311  0.00  0.00    +0.000 C 
ATOM     21  O   UNL     1      -5.312  12.231  17.100  0.00  0.00    +0.000 OA
ATOM     22  H   UNL     1      -4.069  11.610  19.956  0.00  0.00    +0.000 HD
BRANCH  19  23
ATOM     23  C   UNL     1      -2.840  11.616  18.219  0.00  0.00    +0.000 C 
BRANCH  23  25
ATOM     24  C   UNL     1      -2.693   9.909  16.359  0.00  0.00    +0.000 C 
ATOM     25  C   UNL     1      -2.503  10.177  17.843  0.00  0.00    +0.000 C 
ENDBRANCH  23  25
ENDBRANCH  19  23
ENDBRANCH   1  20
TORSDOF 5
ENDMDL
