MODEL 1
REMARK VINA RESULT:      -9.0      0.000      0.000
REMARK  Name = 
REMARK  7 active torsions:
REMARK  status: ('A' for Active; 'I' for Inactive)
REMARK    1  A    between atoms: C_1  and  O_2
REMARK    2  A    between atoms: O_2  and  C_3
REMARK    3  A    between atoms: C_6  and  N_7
REMARK    4  A    between atoms: N_9  and  C_10
REMARK    5  A    between atoms: C_10  and  C_12
REMARK    6  A    between atoms: N_18  and  C_19
REMARK    7  A    between atoms: C_19  and  C_20
REMARK                            x       y       z     vdW  Elec       q    Type
REMARK                         _______ _______ _______ _____ _____    ______ ____
ROOT
ATOM      1  N   UNL     1       3.983   6.186  17.722  0.00  0.00    +0.000 N 
ATOM      2  C   UNL     1       4.047   4.954  17.111  0.00  0.00    +0.000 C 
ATOM      3  N   UNL     1       3.259   3.958  16.896  0.00  0.00    +0.000 NA
ATOM      4  N   UNL     1       5.372   4.767  16.738  0.00  0.00    +0.000 N 
ATOM      5  H   UNL     1       4.861   6.684  17.732  0.00  0.00    +0.000 HD
ATOM      6  H   UNL     1       5.951   4.780  17.580  0.00  0.00    +0.000 HD
ENDROOT
BRANCH   1  10
ATOM      7  C   UNL     1       1.409   8.889  19.632  0.00  0.00    +0.000 A 
ATOM      8  C   UNL     1       1.670   9.005  18.269  0.00  0.00    +0.000 A 
ATOM      9  C   UNL     1       2.429   8.031  17.608  0.00  0.00    +0.000 A 
ATOM     10  C   UNL     1       2.930   6.916  18.300  0.00  0.00    +0.000 A 
ATOM     11  C   UNL     1       2.470   6.713  19.597  0.00  0.00    +0.000 A 
ATOM     12  C   UNL     1       1.783   7.719  20.286  0.00  0.00    +0.000 A 
BRANCH   7  14
ATOM     13  C   UNL     1      -0.292  10.536  19.505  0.00  0.00    +0.000 C 
ATOM     14  O   UNL     1       0.807   9.971  20.211  0.00  0.00    +0.000 OA
ENDBRANCH   7  14
ENDBRANCH   1  10
BRANCH   3  15
ATOM     15  C   UNL     1       2.078   3.778  17.556  0.00  0.00    +0.000 C 
ATOM     16  O   UNL     1       1.037   4.355  17.282  0.00  0.00    +0.000 OA
BRANCH  15  17
ATOM     17  C   UNL     1       2.149   3.085  18.870  0.00  0.00    +0.000 A 
ATOM     18  C   UNL     1       1.055   3.207  19.735  0.00  0.00    +0.000 A 
ATOM     19  C   UNL     1       1.243   3.044  21.106  0.00  0.00    +0.000 A 
ATOM     20  C   UNL     1       2.512   2.735  21.598  0.00  0.00    +0.000 A 
ATOM     21  C   UNL     1       3.566   2.484  20.722  0.00  0.00    +0.000 A 
ATOM     22  C   UNL     1       3.381   2.632  19.347  0.00  0.00    +0.000 A 
ENDBRANCH  15  17
ENDBRANCH   3  15
BRANCH   4  23
ATOM     23  C   UNL     1       5.736   3.588  15.959  0.00  0.00    +0.000 C 
BRANCH  23  24
ATOM     24  C   UNL     1       6.321   4.012  14.638  0.00  0.00    +0.000 A 
ATOM     25  C   UNL     1       7.301   5.013  14.563  0.00  0.00    +0.000 A 
ATOM     26  C   UNL     1       7.837   5.384  13.328  0.00  0.00    +0.000 A 
ATOM     27  C   UNL     1       7.398   4.762  12.160  0.00  0.00    +0.000 A 
ATOM     28  C   UNL     1       6.418   3.773  12.222  0.00  0.00    +0.000 A 
ATOM     29  C   UNL     1       5.883   3.399  13.455  0.00  0.00    +0.000 A 
ENDBRANCH  23  24
ENDBRANCH   4  23
TORSDOF 6
ENDMDL
MODEL 2
REMARK VINA RESULT:      -9.0      0.428      1.024
REMARK  Name = 
REMARK  7 active torsions:
REMARK  status: ('A' for Active; 'I' for Inactive)
REMARK    1  A    between atoms: C_1  and  O_2
REMARK    2  A    between atoms: O_2  and  C_3
REMARK    3  A    between atoms: C_6  and  N_7
REMARK    4  A    between atoms: N_9  and  C_10
REMARK    5  A    between atoms: C_10  and  C_12
REMARK    6  A    between atoms: N_18  and  C_19
REMARK    7  A    between atoms: C_19  and  C_20
REMARK                            x       y       z     vdW  Elec       q    Type
REMARK                         _______ _______ _______ _____ _____    ______ ____
ROOT
ATOM      1  N   UNL     1       3.981   6.162  17.740  0.00  0.00    +0.000 N 
ATOM      2  C   UNL     1       4.036   4.933  17.120  0.00  0.00    +0.000 C 
ATOM      3  N   UNL     1       3.239   3.948  16.893  0.00  0.00    +0.000 NA
ATOM      4  N   UNL     1       5.362   4.734  16.755  0.00  0.00    +0.000 N 
ATOM      5  H   UNL     1       4.865   6.650  17.759  0.00  0.00    +0.000 HD
ATOM      6  H   UNL     1       5.934   4.735  17.601  0.00  0.00    +0.000 HD
ENDROOT
BRANCH   1  10
ATOM      7  C   UNL     1       1.424   8.883  19.645  0.00  0.00    +0.000 A 
ATOM      8  C   UNL     1       1.687   8.996  18.282  0.00  0.00    +0.000 A 
ATOM      9  C   UNL     1       2.440   8.017  17.623  0.00  0.00    +0.000 A 
ATOM     10  C   UNL     1       2.932   6.899  18.315  0.00  0.00    +0.000 A 
ATOM     11  C   UNL     1       2.470   6.700  19.612  0.00  0.00    +0.000 A 
ATOM     12  C   UNL     1       1.789   7.711  20.300  0.00  0.00    +0.000 A 
BRANCH   7  14
ATOM     13  C   UNL     1       0.252   9.766  21.508  0.00  0.00    +0.000 C 
ATOM     14  O   UNL     1       0.828   9.969  20.222  0.00  0.00    +0.000 OA
ENDBRANCH   7  14
ENDBRANCH   1  10
BRANCH   3  15
ATOM     15  C   UNL     1       2.051   3.776  17.543  0.00  0.00    +0.000 C 
ATOM     16  O   UNL     1       1.012   4.348  17.252  0.00  0.00    +0.000 OA
BRANCH  15  17
ATOM     17  C   UNL     1       2.109   3.101  18.868  0.00  0.00    +0.000 A 
ATOM     18  C   UNL     1       1.024   3.268  19.736  0.00  0.00    +0.000 A 
ATOM     19  C   UNL     1       1.216   3.121  21.109  0.00  0.00    +0.000 A 
ATOM     20  C   UNL     1       2.477   2.783  21.599  0.00  0.00    +0.000 A 
ATOM     21  C   UNL     1       3.519   2.489  20.722  0.00  0.00    +0.000 A 
ATOM     22  C   UNL     1       3.331   2.620  19.346  0.00  0.00    +0.000 A 
ENDBRANCH  15  17
ENDBRANCH   3  15
BRANCH   4  23
ATOM     23  C   UNL     1       5.717   3.557  15.970  0.00  0.00    +0.000 C 
BRANCH  23  24
ATOM     24  C   UNL     1       6.301   3.983  14.649  0.00  0.00    +0.000 A 
ATOM     25  C   UNL     1       5.885   3.394  13.445  0.00  0.00    +0.000 A 
ATOM     26  C   UNL     1       6.433   3.811  12.230  0.00  0.00    +0.000 A 
ATOM     27  C   UNL     1       7.400   4.817  12.207  0.00  0.00    +0.000 A 
ATOM     28  C   UNL     1       7.826   5.402  13.397  0.00  0.00    +0.000 A 
ATOM     29  C   UNL     1       7.279   4.988  14.613  0.00  0.00    +0.000 A 
ENDBRANCH  23  24
ENDBRANCH   4  23
TORSDOF 6
ENDMDL
MODEL 3
REMARK VINA RESULT:      -8.5      0.500      1.058
REMARK  Name = 
REMARK  7 active torsions:
REMARK  status: ('A' for Active; 'I' for Inactive)
REMARK    1  A    between atoms: C_1  and  O_2
REMARK    2  A    between atoms: O_2  and  C_3
REMARK    3  A    between atoms: C_6  and  N_7
REMARK    4  A    between atoms: N_9  and  C_10
REMARK    5  A    between atoms: C_10  and  C_12
REMARK    6  A    between atoms: N_18  and  C_19
REMARK    7  A    between atoms: C_19  and  C_20
REMARK                            x       y       z     vdW  Elec       q    Type
REMARK                         _______ _______ _______ _____ _____    ______ ____
ROOT
ATOM      1  N   UNL     1       3.949   6.417  17.666  0.00  0.00    +0.000 N 
ATOM      2  C   UNL     1       4.041   5.144  17.150  0.00  0.00    +0.000 C 
ATOM      3  N   UNL     1       3.284   4.108  17.039  0.00  0.00    +0.000 NA
ATOM      4  N   UNL     1       5.360   4.975  16.749  0.00  0.00    +0.000 N 
ATOM      5  H   UNL     1       4.808   6.945  17.609  0.00  0.00    +0.000 HD
ATOM      6  H   UNL     1       5.962   5.073  17.568  0.00  0.00    +0.000 HD
ENDROOT
BRANCH   1  10
ATOM      7  C   UNL     1       1.337   9.168  19.453  0.00  0.00    +0.000 A 
ATOM      8  C   UNL     1       1.557   9.193  18.078  0.00  0.00    +0.000 A 
ATOM      9  C   UNL     1       2.331   8.199  17.467  0.00  0.00    +0.000 A 
ATOM     10  C   UNL     1       2.887   7.154  18.221  0.00  0.00    +0.000 A 
ATOM     11  C   UNL     1       2.470   7.030  19.542  0.00  0.00    +0.000 A 
ATOM     12  C   UNL     1       1.768   8.061  20.177  0.00  0.00    +0.000 A 
BRANCH   7  14
ATOM     13  C   UNL     1       0.454  10.250  21.369  0.00  0.00    +0.000 C 
ATOM     14  O   UNL     1       0.714  10.269  19.970  0.00  0.00    +0.000 OA
ENDBRANCH   7  14
ENDBRANCH   1  10
BRANCH   3  15
ATOM     15  C   UNL     1       2.130   3.939  17.749  0.00  0.00    +0.000 C 
ATOM     16  O   UNL     1       1.014   4.209  17.333  0.00  0.00    +0.000 OA
BRANCH  15  17
ATOM     17  C   UNL     1       2.277   3.716  19.213  0.00  0.00    +0.000 A 
ATOM     18  C   UNL     1       3.469   3.147  19.672  0.00  0.00    +0.000 A 
ATOM     19  C   UNL     1       3.479   2.460  20.885  0.00  0.00    +0.000 A 
ATOM     20  C   UNL     1       2.308   2.370  21.638  0.00  0.00    +0.000 A 
ATOM     21  C   UNL     1       1.159   3.051  21.240  0.00  0.00    +0.000 A 
ATOM     22  C   UNL     1       1.147   3.753  20.034  0.00  0.00    +0.000 A 
ENDBRANCH  15  17
ENDBRANCH   3  15
BRANCH   4  23
ATOM     23  C   UNL     1       5.743   3.752  16.052  0.00  0.00    +0.000 C 
BRANCH  23  24
ATOM     24  C   UNL     1       6.300   4.093  14.695  0.00  0.00    +0.000 A 
ATOM     25  C   UNL     1       7.312   5.053  14.544  0.00  0.00    +0.000 A 
ATOM     26  C   UNL     1       7.821   5.348  13.278  0.00  0.00    +0.000 A 
ATOM     27  C   UNL     1       7.324   4.690  12.153  0.00  0.00    +0.000 A 
ATOM     28  C   UNL     1       6.313   3.741  12.291  0.00  0.00    +0.000 A 
ATOM     29  C   UNL     1       5.803   3.444  13.556  0.00  0.00    +0.000 A 
ENDBRANCH  23  24
ENDBRANCH   4  23
TORSDOF 6
ENDMDL
MODEL 4
REMARK VINA RESULT:      -8.3      4.115      7.034
REMARK  Name = 
REMARK  7 active torsions:
REMARK  status: ('A' for Active; 'I' for Inactive)
REMARK    1  A    between atoms: C_1  and  O_2
REMARK    2  A    between atoms: O_2  and  C_3
REMARK    3  A    between atoms: C_6  and  N_7
REMARK    4  A    between atoms: N_9  and  C_10
REMARK    5  A    between atoms: C_10  and  C_12
REMARK    6  A    between atoms: N_18  and  C_19
REMARK    7  A    between atoms: C_19  and  C_20
REMARK                            x       y       z     vdW  Elec       q    Type
REMARK                         _______ _______ _______ _____ _____    ______ ____
ROOT
ATOM      1  N   UNL     1       5.701   6.427  18.219  0.00  0.00    +0.000 N 
ATOM      2  C   UNL     1       6.738   6.864  17.426  0.00  0.00    +0.000 C 
ATOM      3  N   UNL     1       7.390   6.443  16.397  0.00  0.00    +0.000 NA
ATOM      4  N   UNL     1       7.222   8.026  18.013  0.00  0.00    +0.000 N 
ATOM      5  H   UNL     1       5.497   7.037  18.998  0.00  0.00    +0.000 HD
ATOM      6  H   UNL     1       7.559   7.799  18.950  0.00  0.00    +0.000 HD
ENDROOT
BRANCH   1  10
ATOM      7  C   UNL     1       2.771   3.457  18.631  0.00  0.00    +0.000 A 
ATOM      8  C   UNL     1       2.526   4.588  17.856  0.00  0.00    +0.000 A 
ATOM      9  C   UNL     1       3.546   5.518  17.619  0.00  0.00    +0.000 A 
ATOM     10  C   UNL     1       4.834   5.323  18.142  0.00  0.00    +0.000 A 
ATOM     11  C   UNL     1       5.107   4.087  18.718  0.00  0.00    +0.000 A 
ATOM     12  C   UNL     1       4.077   3.192  19.031  0.00  0.00    +0.000 A 
BRANCH   7  14
ATOM     13  C   UNL     1       1.481   2.400  20.317  0.00  0.00    +0.000 C 
ATOM     14  O   UNL     1       1.672   2.706  18.940  0.00  0.00    +0.000 OA
ENDBRANCH   7  14
ENDBRANCH   1  10
BRANCH   3  15
ATOM     15  C   UNL     1       7.351   5.151  15.959  0.00  0.00    +0.000 C 
ATOM     16  O   UNL     1       7.939   4.221  16.489  0.00  0.00    +0.000 OA
BRANCH  15  17
ATOM     17  C   UNL     1       6.824   4.930  14.585  0.00  0.00    +0.000 A 
ATOM     18  C   UNL     1       5.624   4.224  14.450  0.00  0.00    +0.000 A 
ATOM     19  C   UNL     1       5.352   3.557  13.257  0.00  0.00    +0.000 A 
ATOM     20  C   UNL     1       6.265   3.620  12.204  0.00  0.00    +0.000 A 
ATOM     21  C   UNL     1       7.393   4.433  12.298  0.00  0.00    +0.000 A 
ATOM     22  C   UNL     1       7.665   5.116  13.484  0.00  0.00    +0.000 A 
ENDBRANCH  15  17
ENDBRANCH   3  15
BRANCH   4  23
ATOM     23  C   UNL     1       8.263   8.791  17.333  0.00  0.00    +0.000 C 
BRANCH  23  24
ATOM     24  C   UNL     1       8.666   9.968  18.182  0.00  0.00    +0.000 A 
ATOM     25  C   UNL     1       8.591  11.279  17.691  0.00  0.00    +0.000 A 
ATOM     26  C   UNL     1       8.961  12.357  18.498  0.00  0.00    +0.000 A 
ATOM     27  C   UNL     1       9.411  12.134  19.799  0.00  0.00    +0.000 A 
ATOM     28  C   UNL     1       9.498  10.834  20.294  0.00  0.00    +0.000 A 
ATOM     29  C   UNL     1       9.126   9.756  19.490  0.00  0.00    +0.000 A 
ENDBRANCH  23  24
ENDBRANCH   4  23
TORSDOF 6
ENDMDL
MODEL 5
REMARK VINA RESULT:      -8.2      2.132      7.289
REMARK  Name = 
REMARK  7 active torsions:
REMARK  status: ('A' for Active; 'I' for Inactive)
REMARK    1  A    between atoms: C_1  and  O_2
REMARK    2  A    between atoms: O_2  and  C_3
REMARK    3  A    between atoms: C_6  and  N_7
REMARK    4  A    between atoms: N_9  and  C_10
REMARK    5  A    between atoms: C_10  and  C_12
REMARK    6  A    between atoms: N_18  and  C_19
REMARK    7  A    between atoms: C_19  and  C_20
REMARK                            x       y       z     vdW  Elec       q    Type
REMARK                         _______ _______ _______ _____ _____    ______ ____
ROOT
ATOM      1  N   UNL     1       3.725   6.874  18.961  0.00  0.00    +0.000 N 
ATOM      2  C   UNL     1       2.542   6.480  19.546  0.00  0.00    +0.000 C 
ATOM      3  N   UNL     1       1.759   5.458  19.510  0.00  0.00    +0.000 NA
ATOM      4  N   UNL     1       2.085   7.566  20.281  0.00  0.00    +0.000 N 
ATOM      5  H   UNL     1       4.014   7.809  19.211  0.00  0.00    +0.000 HD
ATOM      6  H   UNL     1       1.925   8.346  19.642  0.00  0.00    +0.000 HD
ENDROOT
BRANCH   1  10
ATOM      7  C   UNL     1       5.857   4.425  16.310  0.00  0.00    +0.000 A 
ATOM      8  C   UNL     1       5.122   5.507  15.834  0.00  0.00    +0.000 A 
ATOM      9  C   UNL     1       4.512   6.396  16.729  0.00  0.00    +0.000 A 
ATOM     10  C   UNL     1       4.640   6.223  18.116  0.00  0.00    +0.000 A 
ATOM     11  C   UNL     1       5.556   5.273  18.557  0.00  0.00    +0.000 A 
ATOM     12  C   UNL     1       6.102   4.332  17.676  0.00  0.00    +0.000 A 
BRANCH   7  14
ATOM     13  C   UNL     1       6.239   3.980  14.011  0.00  0.00    +0.000 C 
ATOM     14  O   UNL     1       6.267   3.529  15.361  0.00  0.00    +0.000 OA
ENDBRANCH   7  14
ENDBRANCH   1  10
BRANCH   3  15
ATOM     15  C   UNL     1       1.813   4.503  18.536  0.00  0.00    +0.000 C 
ATOM     16  O   UNL     1       1.158   4.527  17.505  0.00  0.00    +0.000 OA
BRANCH  15  17
ATOM     17  C   UNL     1       2.462   3.216  18.902  0.00  0.00    +0.000 A 
ATOM     18  C   UNL     1       3.052   3.117  20.166  0.00  0.00    +0.000 A 
ATOM     19  C   UNL     1       4.076   2.194  20.375  0.00  0.00    +0.000 A 
ATOM     20  C   UNL     1       4.481   1.363  19.330  0.00  0.00    +0.000 A 
ATOM     21  C   UNL     1       3.800   1.375  18.115  0.00  0.00    +0.000 A 
ATOM     22  C   UNL     1       2.765   2.286  17.904  0.00  0.00    +0.000 A 
ENDBRANCH  15  17
ENDBRANCH   3  15
BRANCH   4  23
ATOM     23  C   UNL     1       0.896   7.416  21.114  0.00  0.00    +0.000 C 
BRANCH  23  24
ATOM     24  C   UNL     1       0.303   8.770  21.404  0.00  0.00    +0.000 A 
ATOM     25  C   UNL     1      -0.137   9.111  22.691  0.00  0.00    +0.000 A 
ATOM     26  C   UNL     1      -0.675  10.375  22.940  0.00  0.00    +0.000 A 
ATOM     27  C   UNL     1      -0.780  11.307  21.907  0.00  0.00    +0.000 A 
ATOM     28  C   UNL     1      -0.353  10.975  20.623  0.00  0.00    +0.000 A 
ATOM     29  C   UNL     1       0.186   9.712  20.372  0.00  0.00    +0.000 A 
ENDBRANCH  23  24
ENDBRANCH   4  23
TORSDOF 6
ENDMDL
MODEL 6
REMARK VINA RESULT:      -8.0      2.887      6.391
REMARK  Name = 
REMARK  7 active torsions:
REMARK  status: ('A' for Active; 'I' for Inactive)
REMARK    1  A    between atoms: C_1  and  O_2
REMARK    2  A    between atoms: O_2  and  C_3
REMARK    3  A    between atoms: C_6  and  N_7
REMARK    4  A    between atoms: N_9  and  C_10
REMARK    5  A    between atoms: C_10  and  C_12
REMARK    6  A    between atoms: N_18  and  C_19
REMARK    7  A    between atoms: C_19  and  C_20
REMARK                            x       y       z     vdW  Elec       q    Type
REMARK                         _______ _______ _______ _____ _____    ______ ____
ROOT
ATOM      1  N   UNL     1       5.951   4.020  17.504  0.00  0.00    +0.000 N 
ATOM      2  C   UNL     1       4.607   3.875  17.769  0.00  0.00    +0.000 C 
ATOM      3  N   UNL     1       3.651   4.593  18.248  0.00  0.00    +0.000 NA
ATOM      4  N   UNL     1       4.296   2.545  17.519  0.00  0.00    +0.000 N 
ATOM      5  H   UNL     1       6.393   3.179  17.163  0.00  0.00    +0.000 HD
ATOM      6  H   UNL     1       4.850   1.959  18.146  0.00  0.00    +0.000 HD
ENDROOT
BRANCH   1  10
ATOM      7  C   UNL     1       8.069   7.558  18.258  0.00  0.00    +0.000 A 
ATOM      8  C   UNL     1       8.342   6.403  18.986  0.00  0.00    +0.000 A 
ATOM      9  C   UNL     1       7.723   5.193  18.651  0.00  0.00    +0.000 A 
ATOM     10  C   UNL     1       6.829   5.115  17.571  0.00  0.00    +0.000 A 
ATOM     11  C   UNL     1       6.747   6.222  16.732  0.00  0.00    +0.000 A 
ATOM     12  C   UNL     1       7.295   7.454  17.106  0.00  0.00    +0.000 A 
BRANCH   7  14
ATOM     13  C   UNL     1       8.486   9.873  17.948  0.00  0.00    +0.000 C 
ATOM     14  O   UNL     1       8.592   8.714  18.768  0.00  0.00    +0.000 OA
ENDBRANCH   7  14
ENDBRANCH   1  10
BRANCH   3  15
ATOM     15  C   UNL     1       3.855   5.752  18.941  0.00  0.00    +0.000 C 
ATOM     16  O   UNL     1       4.730   5.915  19.777  0.00  0.00    +0.000 OA
BRANCH  15  17
ATOM     17  C   UNL     1       2.754   6.752  18.903  0.00  0.00    +0.000 A 
ATOM     18  C   UNL     1       2.663   7.583  17.781  0.00  0.00    +0.000 A 
ATOM     19  C   UNL     1       2.030   8.819  17.893  0.00  0.00    +0.000 A 
ATOM     20  C   UNL     1       1.472   9.203  19.113  0.00  0.00    +0.000 A 
ATOM     21  C   UNL     1       1.449   8.316  20.188  0.00  0.00    +0.000 A 
ATOM     22  C   UNL     1       2.068   7.071  20.078  0.00  0.00    +0.000 A 
ENDBRANCH  15  17
ENDBRANCH   3  15
BRANCH   4  23
ATOM     23  C   UNL     1       2.907   2.108  17.603  0.00  0.00    +0.000 C 
BRANCH  23  24
ATOM     24  C   UNL     1       2.358   2.419  18.971  0.00  0.00    +0.000 A 
ATOM     25  C   UNL     1       3.106   2.165  20.130  0.00  0.00    +0.000 A 
ATOM     26  C   UNL     1       2.582   2.470  21.388  0.00  0.00    +0.000 A 
ATOM     27  C   UNL     1       1.308   3.027  21.499  0.00  0.00    +0.000 A 
ATOM     28  C   UNL     1       0.553   3.275  20.354  0.00  0.00    +0.000 A 
ATOM     29  C   UNL     1       1.076   2.973  19.096  0.00  0.00    +0.000 A 
ENDBRANCH  23  24
ENDBRANCH   4  23
TORSDOF 6
ENDMDL
MODEL 7
REMARK VINA RESULT:      -7.9      3.106      6.247
REMARK  Name = 
REMARK  7 active torsions:
REMARK  status: ('A' for Active; 'I' for Inactive)
REMARK    1  A    between atoms: C_1  and  O_2
REMARK    2  A    between atoms: O_2  and  C_3
REMARK    3  A    between atoms: C_6  and  N_7
REMARK    4  A    between atoms: N_9  and  C_10
REMARK    5  A    between atoms: C_10  and  C_12
REMARK    6  A    between atoms: N_18  and  C_19
REMARK    7  A    between atoms: C_19  and  C_20
REMARK                            x       y       z     vdW  Elec       q    Type
REMARK                         _______ _______ _______ _____ _____    ______ ____
ROOT
ATOM      1  N   UNL     1       6.594   4.306  18.772  0.00  0.00    +0.000 N 
ATOM      2  C   UNL     1       5.414   3.722  18.368  0.00  0.00    +0.000 C 
ATOM      3  N   UNL     1       4.454   3.987  17.551  0.00  0.00    +0.000 NA
ATOM      4  N   UNL     1       5.232   2.604  19.172  0.00  0.00    +0.000 N 
ATOM      5  H   UNL     1       7.072   3.800  19.503  0.00  0.00    +0.000 HD
ATOM      6  H   UNL     1       5.165   2.911  20.143  0.00  0.00    +0.000 HD
ENDROOT
BRANCH   1  10
ATOM      7  C   UNL     1       8.080   8.109  17.817  0.00  0.00    +0.000 A 
ATOM      8  C   UNL     1       8.405   7.507  19.030  0.00  0.00    +0.000 A 
ATOM      9  C   UNL     1       8.011   6.190  19.295  0.00  0.00    +0.000 A 
ATOM     10  C   UNL     1       7.295   5.447  18.344  0.00  0.00    +0.000 A 
ATOM     11  C   UNL     1       7.179   5.990  17.068  0.00  0.00    +0.000 A 
ATOM     12  C   UNL     1       7.495   7.331  16.822  0.00  0.00    +0.000 A 
BRANCH   7  14
ATOM     13  C   UNL     1       9.022  10.027  18.845  0.00  0.00    +0.000 C 
ATOM     14  O   UNL     1       8.362   9.443  17.727  0.00  0.00    +0.000 OA
ENDBRANCH   7  14
ENDBRANCH   1  10
BRANCH   3  15
ATOM     15  C   UNL     1       4.245   5.223  17.012  0.00  0.00    +0.000 C 
ATOM     16  O   UNL     1       4.670   5.587  15.926  0.00  0.00    +0.000 OA
BRANCH  15  17
ATOM     17  C   UNL     1       3.746   6.276  17.937  0.00  0.00    +0.000 A 
ATOM     18  C   UNL     1       3.184   5.868  19.151  0.00  0.00    +0.000 A 
ATOM     19  C   UNL     1       2.271   6.699  19.799  0.00  0.00    +0.000 A 
ATOM     20  C   UNL     1       1.949   7.937  19.243  0.00  0.00    +0.000 A 
ATOM     21  C   UNL     1       2.611   8.394  18.105  0.00  0.00    +0.000 A 
ATOM     22  C   UNL     1       3.536   7.573  17.460  0.00  0.00    +0.000 A 
ENDBRANCH  15  17
ENDBRANCH   3  15
BRANCH   4  23
ATOM     23  C   UNL     1       4.113   1.706  18.904  0.00  0.00    +0.000 C 
BRANCH  23  24
ATOM     24  C   UNL     1       2.850   2.281  19.488  0.00  0.00    +0.000 A 
ATOM     25  C   UNL     1       2.792   2.705  20.824  0.00  0.00    +0.000 A 
ATOM     26  C   UNL     1       1.613   3.244  21.343  0.00  0.00    +0.000 A 
ATOM     27  C   UNL     1       0.483   3.362  20.534  0.00  0.00    +0.000 A 
ATOM     28  C   UNL     1       0.526   2.936  19.209  0.00  0.00    +0.000 A 
ATOM     29  C   UNL     1       1.704   2.399  18.687  0.00  0.00    +0.000 A 
ENDBRANCH  23  24
ENDBRANCH   4  23
TORSDOF 6
ENDMDL
MODEL 8
REMARK VINA RESULT:      -7.9      2.381      7.173
REMARK  Name = 
REMARK  7 active torsions:
REMARK  status: ('A' for Active; 'I' for Inactive)
REMARK    1  A    between atoms: C_1  and  O_2
REMARK    2  A    between atoms: O_2  and  C_3
REMARK    3  A    between atoms: C_6  and  N_7
REMARK    4  A    between atoms: N_9  and  C_10
REMARK    5  A    between atoms: C_10  and  C_12
REMARK    6  A    between atoms: N_18  and  C_19
REMARK    7  A    between atoms: C_19  and  C_20
REMARK                            x       y       z     vdW  Elec       q    Type
REMARK                         _______ _______ _______ _____ _____    ______ ____
ROOT
ATOM      1  N   UNL     1       3.565   7.667  17.378  0.00  0.00    +0.000 N 
ATOM      2  C   UNL     1       2.760   7.823  18.483  0.00  0.00    +0.000 C 
ATOM      3  N   UNL     1       2.532   7.201  19.588  0.00  0.00    +0.000 NA
ATOM      4  N   UNL     1       1.932   8.907  18.219  0.00  0.00    +0.000 N 
ATOM      5  H   UNL     1       3.418   8.364  16.662  0.00  0.00    +0.000 HD
ATOM      6  H   UNL     1       1.370   8.691  17.394  0.00  0.00    +0.000 HD
ENDROOT
BRANCH   1  10
ATOM      7  C   UNL     1       6.685   5.384  15.756  0.00  0.00    +0.000 A 
ATOM      8  C   UNL     1       6.961   6.480  16.568  0.00  0.00    +0.000 A 
ATOM      9  C   UNL     1       5.922   7.166  17.209  0.00  0.00    +0.000 A 
ATOM     10  C   UNL     1       4.587   6.756  17.056  0.00  0.00    +0.000 A 
ATOM     11  C   UNL     1       4.364   5.537  16.426  0.00  0.00    +0.000 A 
ATOM     12  C   UNL     1       5.384   4.893  15.716  0.00  0.00    +0.000 A 
BRANCH   7  14
ATOM     13  C   UNL     1       7.611   4.881  13.631  0.00  0.00    +0.000 C 
ATOM     14  O   UNL     1       7.747   4.893  15.048  0.00  0.00    +0.000 OA
ENDBRANCH   7  14
ENDBRANCH   1  10
BRANCH   3  15
ATOM     15  C   UNL     1       2.919   5.913  19.820  0.00  0.00    +0.000 C 
ATOM     16  O   UNL     1       4.079   5.547  19.932  0.00  0.00    +0.000 OA
BRANCH  15  17
ATOM     17  C   UNL     1       1.890   4.860  19.603  0.00  0.00    +0.000 A 
ATOM     18  C   UNL     1       1.377   4.206  20.729  0.00  0.00    +0.000 A 
ATOM     19  C   UNL     1       0.838   2.928  20.592  0.00  0.00    +0.000 A 
ATOM     20  C   UNL     1       0.793   2.327  19.334  0.00  0.00    +0.000 A 
ATOM     21  C   UNL     1       1.183   3.036  18.199  0.00  0.00    +0.000 A 
ATOM     22  C   UNL     1       1.710   4.321  18.327  0.00  0.00    +0.000 A 
ENDBRANCH  15  17
ENDBRANCH   3  15
BRANCH   4  23
ATOM     23  C   UNL     1       1.035   9.392  19.262  0.00  0.00    +0.000 C 
BRANCH  23  24
ATOM     24  C   UNL     1      -0.126  10.119  18.636  0.00  0.00    +0.000 A 
ATOM     25  C   UNL     1      -0.858   9.552  17.582  0.00  0.00    +0.000 A 
ATOM     26  C   UNL     1      -1.937  10.240  17.022  0.00  0.00    +0.000 A 
ATOM     27  C   UNL     1      -2.291  11.499  17.508  0.00  0.00    +0.000 A 
ATOM     28  C   UNL     1      -1.565  12.075  18.548  0.00  0.00    +0.000 A 
ATOM     29  C   UNL     1      -0.488  11.389  19.110  0.00  0.00    +0.000 A 
ENDBRANCH  23  24
ENDBRANCH   4  23
TORSDOF 6
ENDMDL
MODEL 9
REMARK VINA RESULT:      -7.8      2.335      7.135
REMARK  Name = 
REMARK  7 active torsions:
REMARK  status: ('A' for Active; 'I' for Inactive)
REMARK    1  A    between atoms: C_1  and  O_2
REMARK    2  A    between atoms: O_2  and  C_3
REMARK    3  A    between atoms: C_6  and  N_7
REMARK    4  A    between atoms: N_9  and  C_10
REMARK    5  A    between atoms: C_10  and  C_12
REMARK    6  A    between atoms: N_18  and  C_19
REMARK    7  A    between atoms: C_19  and  C_20
REMARK                            x       y       z     vdW  Elec       q    Type
REMARK                         _______ _______ _______ _____ _____    ______ ____
ROOT
ATOM      1  N   UNL     1       3.552   7.528  17.374  0.00  0.00    +0.000 N 
ATOM      2  C   UNL     1       2.772   7.686  18.497  0.00  0.00    +0.000 C 
ATOM      3  N   UNL     1       2.588   7.078  19.618  0.00  0.00    +0.000 NA
ATOM      4  N   UNL     1       1.914   8.747  18.237  0.00  0.00    +0.000 N 
ATOM      5  H   UNL     1       3.370   8.209  16.651  0.00  0.00    +0.000 HD
ATOM      6  H   UNL     1       1.335   8.504  17.431  0.00  0.00    +0.000 HD
ENDROOT
BRANCH   1  10
ATOM      7  C   UNL     1       6.685   5.293  15.711  0.00  0.00    +0.000 A 
ATOM      8  C   UNL     1       6.955   6.400  16.512  0.00  0.00    +0.000 A 
ATOM      9  C   UNL     1       5.914   7.071  17.166  0.00  0.00    +0.000 A 
ATOM     10  C   UNL     1       4.585   6.635  17.040  0.00  0.00    +0.000 A 
ATOM     11  C   UNL     1       4.374   5.407  16.423  0.00  0.00    +0.000 A 
ATOM     12  C   UNL     1       5.393   4.777  15.698  0.00  0.00    +0.000 A 
BRANCH   7  14
ATOM     13  C   UNL     1       7.631   4.905  13.572  0.00  0.00    +0.000 C 
ATOM     14  O   UNL     1       7.743   4.818  14.988  0.00  0.00    +0.000 OA
ENDBRANCH   7  14
ENDBRANCH   1  10
BRANCH   3  15
ATOM     15  C   UNL     1       3.009   5.802  19.860  0.00  0.00    +0.000 C 
ATOM     16  O   UNL     1       4.179   5.453  19.889  0.00  0.00    +0.000 OA
BRANCH  15  17
ATOM     17  C   UNL     1       1.980   4.732  19.766  0.00  0.00    +0.000 A 
ATOM     18  C   UNL     1       1.644   4.042  20.936  0.00  0.00    +0.000 A 
ATOM     19  C   UNL     1       1.115   2.755  20.844  0.00  0.00    +0.000 A 
ATOM     20  C   UNL     1       0.903   2.182  19.590  0.00  0.00    +0.000 A 
ATOM     21  C   UNL     1       1.114   2.925  18.431  0.00  0.00    +0.000 A 
ATOM     22  C   UNL     1       1.629   4.219  18.515  0.00  0.00    +0.000 A 
ENDBRANCH  15  17
ENDBRANCH   3  15
BRANCH   4  23
ATOM     23  C   UNL     1       1.034   9.230  19.296  0.00  0.00    +0.000 C 
BRANCH  23  24
ATOM     24  C   UNL     1       0.486  10.582  18.924  0.00  0.00    +0.000 A 
ATOM     25  C   UNL     1       1.285  11.733  18.983  0.00  0.00    +0.000 A 
ATOM     26  C   UNL     1       0.759  12.976  18.625  0.00  0.00    +0.000 A 
ATOM     27  C   UNL     1      -0.567  13.080  18.208  0.00  0.00    +0.000 A 
ATOM     28  C   UNL     1      -1.373  11.945  18.154  0.00  0.00    +0.000 A 
ATOM     29  C   UNL     1      -0.849  10.701  18.510  0.00  0.00    +0.000 A 
ENDBRANCH  23  24
ENDBRANCH   4  23
TORSDOF 6
ENDMDL
