MODEL 1
REMARK VINA RESULT:      -8.5      0.000      0.000
REMARK  Name = 
REMARK  5 active torsions:
REMARK  status: ('A' for Active; 'I' for Inactive)
REMARK    1  A    between atoms: C_1  and  C_2
REMARK    2  A    between atoms: C_5  and  C_6
REMARK    3  A    between atoms: C_7  and  N_8
REMARK    4  A    between atoms: N_11  and  C_12
REMARK    5  A    between atoms: N_20  and  C_21
REMARK                            x       y       z     vdW  Elec       q    Type
REMARK                         _______ _______ _______ _____ _____    ______ ____
ROOT
ATOM      1  C   UNL     1       0.733  10.511  19.839  0.00  0.00    +0.000 A 
ATOM      2  N   UNL     1       1.008  11.641  19.140  0.00  0.00    +0.000 NA
ATOM      3  C   UNL     1       0.524  12.818  19.574  0.00  0.00    +0.000 A 
ATOM      4  N   UNL     1      -0.216  13.050  20.665  0.00  0.00    +0.000 NA
ATOM      5  C   UNL     1      -0.439  11.927  21.379  0.00  0.00    +0.000 A 
ATOM      6  C   UNL     1       0.012  10.661  21.038  0.00  0.00    +0.000 A 
ATOM      7  C   UNL     1      -0.405   9.845  22.103  0.00  0.00    +0.000 A 
ATOM      8  N   UNL     1      -1.096  10.499  23.032  0.00  0.00    +0.000 NA
ATOM      9  N   UNL     1      -1.137  11.790  22.579  0.00  0.00    +0.000 N 
ENDROOT
BRANCH   1  13
ATOM     10  N   UNL     1       2.554   7.042  18.332  0.00  0.00    +0.000 N 
ATOM     11  C   UNL     1       2.542   8.298  17.558  0.00  0.00    +0.000 C 
ATOM     12  C   UNL     1       1.251   9.076  17.873  0.00  0.00    +0.000 C 
ATOM     13  N   UNL     1       1.133   9.306  19.314  0.00  0.00    +0.000 N 
ATOM     14  C   UNL     1       1.309   8.133  20.188  0.00  0.00    +0.000 C 
ATOM     15  C   UNL     1       2.572   7.323  19.793  0.00  0.00    +0.000 C 
BRANCH  10  22
ATOM     16  C   UNL     1       7.099   5.630  16.905  0.00  0.00    +0.000 C 
ATOM     17  C   UNL     1       5.666   5.294  17.191  0.00  0.00    +0.000 A 
ATOM     18  C   UNL     1       5.176   4.006  16.992  0.00  0.00    +0.000 A 
ATOM     19  C   UNL     1       3.830   3.728  17.230  0.00  0.00    +0.000 A 
ATOM     20  C   UNL     1       2.948   4.731  17.665  0.00  0.00    +0.000 A 
ATOM     21  C   UNL     1       1.486   4.385  17.798  0.00  0.00    +0.000 C 
ATOM     22  C   UNL     1       3.432   6.035  17.911  0.00  0.00    +0.000 A 
ATOM     23  C   UNL     1       4.793   6.289  17.655  0.00  0.00    +0.000 A 
ENDBRANCH  10  22
ENDBRANCH   1  13
BRANCH   9  24
ATOM     24  C   UNL     1      -1.832  12.773  23.341  0.00  0.00    +0.000 A 
ATOM     25  C   UNL     1      -3.171  12.539  23.700  0.00  0.00    +0.000 A 
ATOM     26  C   UNL     1      -3.875  13.475  24.460  0.00  0.00    +0.000 A 
ATOM     27  C   UNL     1      -3.254  14.654  24.860  0.00  0.00    +0.000 A 
ATOM     28  C   UNL     1      -1.933  14.901  24.497  0.00  0.00    +0.000 A 
ATOM     29  C   UNL     1      -1.221  13.966  23.742  0.00  0.00    +0.000 A 
ENDBRANCH   9  24
TORSDOF 3
ENDMDL
MODEL 2
REMARK VINA RESULT:      -8.2      0.855      2.341
REMARK  Name = 
REMARK  5 active torsions:
REMARK  status: ('A' for Active; 'I' for Inactive)
REMARK    1  A    between atoms: C_1  and  C_2
REMARK    2  A    between atoms: C_5  and  C_6
REMARK    3  A    between atoms: C_7  and  N_8
REMARK    4  A    between atoms: N_11  and  C_12
REMARK    5  A    between atoms: N_20  and  C_21
REMARK                            x       y       z     vdW  Elec       q    Type
REMARK                         _______ _______ _______ _____ _____    ______ ____
ROOT
ATOM      1  C   UNL     1       0.704  10.457  19.861  0.00  0.00    +0.000 A 
ATOM      2  N   UNL     1       0.434  11.367  18.891  0.00  0.00    +0.000 NA
ATOM      3  C   UNL     1      -0.399  12.388  19.159  0.00  0.00    +0.000 A 
ATOM      4  N   UNL     1      -1.022  12.660  20.313  0.00  0.00    +0.000 NA
ATOM      5  C   UNL     1      -0.705  11.778  21.283  0.00  0.00    +0.000 A 
ATOM      6  C   UNL     1       0.144  10.693  21.130  0.00  0.00    +0.000 A 
ATOM      7  C   UNL     1       0.212  10.122  22.412  0.00  0.00    +0.000 A 
ATOM      8  N   UNL     1      -0.546  10.743  23.310  0.00  0.00    +0.000 NA
ATOM      9  N   UNL     1      -1.134  11.763  22.611  0.00  0.00    +0.000 N 
ENDROOT
BRANCH   1  13
ATOM     10  N   UNL     1       2.449   6.814  18.718  0.00  0.00    +0.000 N 
ATOM     11  C   UNL     1       1.739   6.953  20.004  0.00  0.00    +0.000 C 
ATOM     12  C   UNL     1       1.916   8.390  20.530  0.00  0.00    +0.000 C 
ATOM     13  N   UNL     1       1.458   9.358  19.531  0.00  0.00    +0.000 N 
ATOM     14  C   UNL     1       1.978   9.193  18.163  0.00  0.00    +0.000 C 
ATOM     15  C   UNL     1       1.863   7.719  17.692  0.00  0.00    +0.000 C 
BRANCH  10  22
ATOM     16  C   UNL     1       1.310   1.980  18.602  0.00  0.00    +0.000 C 
ATOM     17  C   UNL     1       2.207   3.112  18.197  0.00  0.00    +0.000 A 
ATOM     18  C   UNL     1       3.347   2.888  17.431  0.00  0.00    +0.000 A 
ATOM     19  C   UNL     1       4.184   3.952  17.099  0.00  0.00    +0.000 A 
ATOM     20  C   UNL     1       3.902   5.259  17.530  0.00  0.00    +0.000 A 
ATOM     21  C   UNL     1       4.906   6.342  17.226  0.00  0.00    +0.000 C 
ATOM     22  C   UNL     1       2.730   5.516  18.275  0.00  0.00    +0.000 A 
ATOM     23  C   UNL     1       1.906   4.421  18.602  0.00  0.00    +0.000 A 
ENDBRANCH  10  22
ENDBRANCH   1  13
BRANCH   9  24
ATOM     24  C   UNL     1      -2.043  12.632  23.279  0.00  0.00    +0.000 A 
ATOM     25  C   UNL     1      -1.617  13.922  23.638  0.00  0.00    +0.000 A 
ATOM     26  C   UNL     1      -2.489  14.805  24.279  0.00  0.00    +0.000 A 
ATOM     27  C   UNL     1      -3.787  14.404  24.577  0.00  0.00    +0.000 A 
ATOM     28  C   UNL     1      -4.214  13.123  24.239  0.00  0.00    +0.000 A 
ATOM     29  C   UNL     1      -3.349  12.238  23.592  0.00  0.00    +0.000 A 
ENDBRANCH   9  24
TORSDOF 3
ENDMDL
MODEL 3
REMARK VINA RESULT:      -8.2      2.773      9.685
REMARK  Name = 
REMARK  5 active torsions:
REMARK  status: ('A' for Active; 'I' for Inactive)
REMARK    1  A    between atoms: C_1  and  C_2
REMARK    2  A    between atoms: C_5  and  C_6
REMARK    3  A    between atoms: C_7  and  N_8
REMARK    4  A    between atoms: N_11  and  C_12
REMARK    5  A    between atoms: N_20  and  C_21
REMARK                            x       y       z     vdW  Elec       q    Type
REMARK                         _______ _______ _______ _____ _____    ______ ____
ROOT
ATOM      1  C   UNL     1       0.712  10.412  20.390  0.00  0.00    +0.000 A 
ATOM      2  N   UNL     1       0.648   9.782  21.590  0.00  0.00    +0.000 NA
ATOM      3  C   UNL     1       1.088   8.516  21.694  0.00  0.00    +0.000 A 
ATOM      4  N   UNL     1       1.624   7.751  20.735  0.00  0.00    +0.000 NA
ATOM      5  C   UNL     1       1.730   8.406  19.560  0.00  0.00    +0.000 A 
ATOM      6  C   UNL     1       1.320   9.710  19.333  0.00  0.00    +0.000 A 
ATOM      7  C   UNL     1       1.692   9.965  18.002  0.00  0.00    +0.000 A 
ATOM      8  N   UNL     1       2.255   8.921  17.401  0.00  0.00    +0.000 NA
ATOM      9  N   UNL     1       2.265   7.942  18.357  0.00  0.00    +0.000 N 
ENDROOT
BRANCH   1  13
ATOM     10  N   UNL     1      -0.505  14.366  19.678  0.00  0.00    +0.000 N 
ATOM     11  C   UNL     1       0.608  14.061  20.597  0.00  0.00    +0.000 C 
ATOM     12  C   UNL     1       0.347  12.707  21.281  0.00  0.00    +0.000 C 
ATOM     13  N   UNL     1       0.148  11.659  20.278  0.00  0.00    +0.000 N 
ATOM     14  C   UNL     1      -0.823  11.944  19.207  0.00  0.00    +0.000 C 
ATOM     15  C   UNL     1      -0.586  13.350  18.594  0.00  0.00    +0.000 C 
BRANCH  10  22
ATOM     16  C   UNL     1       1.089  18.202  16.953  0.00  0.00    +0.000 C 
ATOM     17  C   UNL     1       0.110  17.623  17.931  0.00  0.00    +0.000 A 
ATOM     18  C   UNL     1      -0.909  18.400  18.475  0.00  0.00    +0.000 A 
ATOM     19  C   UNL     1      -1.782  17.848  19.411  0.00  0.00    +0.000 A 
ATOM     20  C   UNL     1      -1.651  16.512  19.827  0.00  0.00    +0.000 A 
ATOM     21  C   UNL     1      -2.561  16.013  20.920  0.00  0.00    +0.000 C 
ATOM     22  C   UNL     1      -0.649  15.695  19.259  0.00  0.00    +0.000 A 
ATOM     23  C   UNL     1       0.224  16.281  18.321  0.00  0.00    +0.000 A 
ENDBRANCH  10  22
ENDBRANCH   1  13
BRANCH   9  24
ATOM     24  C   UNL     1       2.792   6.659  18.035  0.00  0.00    +0.000 A 
ATOM     25  C   UNL     1       1.943   5.539  18.083  0.00  0.00    +0.000 A 
ATOM     26  C   UNL     1       2.424   4.270  17.756  0.00  0.00    +0.000 A 
ATOM     27  C   UNL     1       3.756   4.105  17.390  0.00  0.00    +0.000 A 
ATOM     28  C   UNL     1       4.608   5.205  17.354  0.00  0.00    +0.000 A 
ATOM     29  C   UNL     1       4.131   6.479  17.673  0.00  0.00    +0.000 A 
ENDBRANCH   9  24
TORSDOF 3
ENDMDL
MODEL 4
REMARK VINA RESULT:      -8.1      1.375      9.809
REMARK  Name = 
REMARK  5 active torsions:
REMARK  status: ('A' for Active; 'I' for Inactive)
REMARK    1  A    between atoms: C_1  and  C_2
REMARK    2  A    between atoms: C_5  and  C_6
REMARK    3  A    between atoms: C_7  and  N_8
REMARK    4  A    between atoms: N_11  and  C_12
REMARK    5  A    between atoms: N_20  and  C_21
REMARK                            x       y       z     vdW  Elec       q    Type
REMARK                         _______ _______ _______ _____ _____    ______ ____
ROOT
ATOM      1  C   UNL     1       1.237   9.759  19.708  0.00  0.00    +0.000 A 
ATOM      2  N   UNL     1       1.551  10.219  18.471  0.00  0.00    +0.000 NA
ATOM      3  C   UNL     1       2.143   9.392  17.591  0.00  0.00    +0.000 A 
ATOM      4  N   UNL     1       2.471   8.106  17.764  0.00  0.00    +0.000 NA
ATOM      5  C   UNL     1       2.107   7.646  18.979  0.00  0.00    +0.000 A 
ATOM      6  C   UNL     1       1.486   8.398  19.965  0.00  0.00    +0.000 A 
ATOM      7  C   UNL     1       1.251   7.482  21.004  0.00  0.00    +0.000 A 
ATOM      8  N   UNL     1       1.706   6.260  20.746  0.00  0.00    +0.000 NA
ATOM      9  N   UNL     1       2.256   6.359  19.497  0.00  0.00    +0.000 N 
ENDROOT
BRANCH   1  13
ATOM     10  N   UNL     1      -0.844  12.243  22.376  0.00  0.00    +0.000 N 
ATOM     11  C   UNL     1      -0.886  12.478  20.920  0.00  0.00    +0.000 C 
ATOM     12  C   UNL     1       0.454  12.046  20.297  0.00  0.00    +0.000 C 
ATOM     13  N   UNL     1       0.745  10.650  20.629  0.00  0.00    +0.000 N 
ATOM     14  C   UNL     1       0.639  10.273  22.050  0.00  0.00    +0.000 C 
ATOM     15  C   UNL     1      -0.684  10.793  22.672  0.00  0.00    +0.000 C 
BRANCH  10  22
ATOM     16  C   UNL     1      -5.263  12.292  24.646  0.00  0.00    +0.000 C 
ATOM     17  C   UNL     1      -3.977  12.978  24.296  0.00  0.00    +0.000 A 
ATOM     18  C   UNL     1      -3.729  14.289  24.694  0.00  0.00    +0.000 A 
ATOM     19  C   UNL     1      -2.541  14.917  24.324  0.00  0.00    +0.000 A 
ATOM     20  C   UNL     1      -1.580  14.251  23.545  0.00  0.00    +0.000 A 
ATOM     21  C   UNL     1      -0.369  15.026  23.091  0.00  0.00    +0.000 C 
ATOM     22  C   UNL     1      -1.793  12.908  23.163  0.00  0.00    +0.000 A 
ATOM     23  C   UNL     1      -3.005  12.301  23.545  0.00  0.00    +0.000 A 
ENDBRANCH  10  22
ENDBRANCH   1  13
BRANCH   9  24
ATOM     24  C   UNL     1       2.866   5.212  18.912  0.00  0.00    +0.000 A 
ATOM     25  C   UNL     1       2.153   4.477  17.948  0.00  0.00    +0.000 A 
ATOM     26  C   UNL     1       2.728   3.358  17.343  0.00  0.00    +0.000 A 
ATOM     27  C   UNL     1       4.012   2.956  17.701  0.00  0.00    +0.000 A 
ATOM     28  C   UNL     1       4.719   3.670  18.664  0.00  0.00    +0.000 A 
ATOM     29  C   UNL     1       4.152   4.794  19.268  0.00  0.00    +0.000 A 
ENDBRANCH   9  24
TORSDOF 3
ENDMDL
MODEL 5
REMARK VINA RESULT:      -8.0      2.861      4.115
REMARK  Name = 
REMARK  5 active torsions:
REMARK  status: ('A' for Active; 'I' for Inactive)
REMARK    1  A    between atoms: C_1  and  C_2
REMARK    2  A    between atoms: C_5  and  C_6
REMARK    3  A    between atoms: C_7  and  N_8
REMARK    4  A    between atoms: N_11  and  C_12
REMARK    5  A    between atoms: N_20  and  C_21
REMARK                            x       y       z     vdW  Elec       q    Type
REMARK                         _______ _______ _______ _____ _____    ______ ____
ROOT
ATOM      1  C   UNL     1       0.462  10.454  18.701  0.00  0.00    +0.000 A 
ATOM      2  N   UNL     1      -0.708  10.179  18.072  0.00  0.00    +0.000 NA
ATOM      3  C   UNL     1      -1.600  11.166  17.879  0.00  0.00    +0.000 A 
ATOM      4  N   UNL     1      -1.487  12.455  18.224  0.00  0.00    +0.000 NA
ATOM      5  C   UNL     1      -0.299  12.726  18.802  0.00  0.00    +0.000 A 
ATOM      6  C   UNL     1       0.700  11.796  19.047  0.00  0.00    +0.000 A 
ATOM      7  C   UNL     1       1.752  12.553  19.592  0.00  0.00    +0.000 A 
ATOM      8  N   UNL     1       1.460  13.843  19.730  0.00  0.00    +0.000 NA
ATOM      9  N   UNL     1       0.180  13.954  19.259  0.00  0.00    +0.000 N 
ENDROOT
BRANCH   1  13
ATOM     10  N   UNL     1       2.531   6.885  19.482  0.00  0.00    +0.000 N 
ATOM     11  C   UNL     1       1.542   7.422  20.437  0.00  0.00    +0.000 C 
ATOM     12  C   UNL     1       1.551   8.960  20.367  0.00  0.00    +0.000 C 
ATOM     13  N   UNL     1       1.304   9.410  18.996  0.00  0.00    +0.000 N 
ATOM     14  C   UNL     1       2.127   8.795  17.940  0.00  0.00    +0.000 C 
ATOM     15  C   UNL     1       2.168   7.251  18.086  0.00  0.00    +0.000 C 
BRANCH  10  22
ATOM     16  C   UNL     1       1.890   2.439  21.604  0.00  0.00    +0.000 C 
ATOM     17  C   UNL     1       2.669   3.343  20.695  0.00  0.00    +0.000 A 
ATOM     18  C   UNL     1       3.830   2.904  20.066  0.00  0.00    +0.000 A 
ATOM     19  C   UNL     1       4.556   3.775  19.255  0.00  0.00    +0.000 A 
ATOM     20  C   UNL     1       4.140   5.104  19.062  0.00  0.00    +0.000 A 
ATOM     21  C   UNL     1       5.030   6.020  18.261  0.00  0.00    +0.000 C 
ATOM     22  C   UNL     1       2.944   5.559  19.660  0.00  0.00    +0.000 A 
ATOM     23  C   UNL     1       2.235   4.659  20.479  0.00  0.00    +0.000 A 
ENDBRANCH  10  22
ENDBRANCH   1  13
BRANCH   9  24
ATOM     24  C   UNL     1      -0.461  15.226  19.280  0.00  0.00    +0.000 A 
ATOM     25  C   UNL     1      -0.129  16.175  18.298  0.00  0.00    +0.000 A 
ATOM     26  C   UNL     1      -0.752  17.425  18.281  0.00  0.00    +0.000 A 
ATOM     27  C   UNL     1      -1.701  17.742  19.247  0.00  0.00    +0.000 A 
ATOM     28  C   UNL     1      -2.026  16.813  20.232  0.00  0.00    +0.000 A 
ATOM     29  C   UNL     1      -1.412  15.559  20.251  0.00  0.00    +0.000 A 
ENDBRANCH   9  24
TORSDOF 3
ENDMDL
MODEL 6
REMARK VINA RESULT:      -7.8      3.080      4.018
REMARK  Name = 
REMARK  5 active torsions:
REMARK  status: ('A' for Active; 'I' for Inactive)
REMARK    1  A    between atoms: C_1  and  C_2
REMARK    2  A    between atoms: C_5  and  C_6
REMARK    3  A    between atoms: C_7  and  N_8
REMARK    4  A    between atoms: N_11  and  C_12
REMARK    5  A    between atoms: N_20  and  C_21
REMARK                            x       y       z     vdW  Elec       q    Type
REMARK                         _______ _______ _______ _____ _____    ______ ____
ROOT
ATOM      1  C   UNL     1       0.142  10.321  19.583  0.00  0.00    +0.000 A 
ATOM      2  N   UNL     1       0.400  11.284  20.503  0.00  0.00    +0.000 NA
ATOM      3  C   UNL     1      -0.518  12.240  20.731  0.00  0.00    +0.000 A 
ATOM      4  N   UNL     1      -1.722  12.376  20.162  0.00  0.00    +0.000 NA
ATOM      5  C   UNL     1      -1.987  11.384  19.288  0.00  0.00    +0.000 A 
ATOM      6  C   UNL     1      -1.127  10.343  18.975  0.00  0.00    +0.000 A 
ATOM      7  C   UNL     1      -1.861   9.542  18.084  0.00  0.00    +0.000 A 
ATOM      8  N   UNL     1      -3.067  10.026  17.806  0.00  0.00    +0.000 NA
ATOM      9  N   UNL     1      -3.146  11.181  18.537  0.00  0.00    +0.000 N 
ENDROOT
BRANCH   1  13
ATOM     10  N   UNL     1       2.714   7.206  18.444  0.00  0.00    +0.000 N 
ATOM     11  C   UNL     1       1.880   7.105  19.656  0.00  0.00    +0.000 C 
ATOM     12  C   UNL     1       1.700   8.506  20.268  0.00  0.00    +0.000 C 
ATOM     13  N   UNL     1       1.138   9.427  19.278  0.00  0.00    +0.000 N 
ATOM     14  C   UNL     1       1.801   9.469  17.963  0.00  0.00    +0.000 C 
ATOM     15  C   UNL     1       2.044   8.039  17.410  0.00  0.00    +0.000 C 
BRANCH  10  22
ATOM     16  C   UNL     1       2.505   2.296  17.716  0.00  0.00    +0.000 C 
ATOM     17  C   UNL     1       3.244   3.595  17.594  0.00  0.00    +0.000 A 
ATOM     18  C   UNL     1       4.530   3.644  17.065  0.00  0.00    +0.000 A 
ATOM     19  C   UNL     1       5.210   4.860  16.997  0.00  0.00    +0.000 A 
ATOM     20  C   UNL     1       4.621   6.047  17.463  0.00  0.00    +0.000 A 
ATOM     21  C   UNL     1       5.453   7.305  17.458  0.00  0.00    +0.000 C 
ATOM     22  C   UNL     1       3.302   6.027  17.967  0.00  0.00    +0.000 A 
ATOM     23  C   UNL     1       2.642   4.784  18.030  0.00  0.00    +0.000 A 
ENDBRANCH  10  22
ENDBRANCH   1  13
BRANCH   9  24
ATOM     24  C   UNL     1      -4.324  11.978  18.455  0.00  0.00    +0.000 A 
ATOM     25  C   UNL     1      -5.023  12.041  17.237  0.00  0.00    +0.000 A 
ATOM     26  C   UNL     1      -6.191  12.799  17.128  0.00  0.00    +0.000 A 
ATOM     27  C   UNL     1      -6.664  13.507  18.228  0.00  0.00    +0.000 A 
ATOM     28  C   UNL     1      -5.971  13.462  19.434  0.00  0.00    +0.000 A 
ATOM     29  C   UNL     1      -4.806  12.701  19.551  0.00  0.00    +0.000 A 
ENDBRANCH   9  24
TORSDOF 3
ENDMDL
MODEL 7
REMARK VINA RESULT:      -7.8      1.188      1.551
REMARK  Name = 
REMARK  5 active torsions:
REMARK  status: ('A' for Active; 'I' for Inactive)
REMARK    1  A    between atoms: C_1  and  C_2
REMARK    2  A    between atoms: C_5  and  C_6
REMARK    3  A    between atoms: C_7  and  N_8
REMARK    4  A    between atoms: N_11  and  C_12
REMARK    5  A    between atoms: N_20  and  C_21
REMARK                            x       y       z     vdW  Elec       q    Type
REMARK                         _______ _______ _______ _____ _____    ______ ____
ROOT
ATOM      1  C   UNL     1       0.255  10.078  19.369  0.00  0.00    +0.000 A 
ATOM      2  N   UNL     1      -0.533  10.356  18.301  0.00  0.00    +0.000 NA
ATOM      3  C   UNL     1      -1.633  11.111  18.472  0.00  0.00    +0.000 A 
ATOM      4  N   UNL     1      -2.078  11.671  19.604  0.00  0.00    +0.000 NA
ATOM      5  C   UNL     1      -1.258  11.430  20.648  0.00  0.00    +0.000 A 
ATOM      6  C   UNL     1      -0.096  10.675  20.594  0.00  0.00    +0.000 A 
ATOM      7  C   UNL     1       0.437  10.766  21.891  0.00  0.00    +0.000 A 
ATOM      8  N   UNL     1      -0.317  11.475  22.725  0.00  0.00    +0.000 NA
ATOM      9  N   UNL     1      -1.382  11.875  21.965  0.00  0.00    +0.000 N 
ENDROOT
BRANCH   1  13
ATOM     10  N   UNL     1       3.033   7.042  18.544  0.00  0.00    +0.000 N 
ATOM     11  C   UNL     1       2.011   6.879  19.595  0.00  0.00    +0.000 C 
ATOM     12  C   UNL     1       1.709   8.250  20.227  0.00  0.00    +0.000 C 
ATOM     13  N   UNL     1       1.303   9.208  19.197  0.00  0.00    +0.000 N 
ATOM     14  C   UNL     1       2.174   9.315  18.013  0.00  0.00    +0.000 C 
ATOM     15  C   UNL     1       2.529   7.914  17.449  0.00  0.00    +0.000 C 
BRANCH  10  22
ATOM     16  C   UNL     1       7.286   4.751  17.383  0.00  0.00    +0.000 C 
ATOM     17  C   UNL     1       5.794   4.720  17.531  0.00  0.00    +0.000 A 
ATOM     18  C   UNL     1       5.062   3.582  17.203  0.00  0.00    +0.000 A 
ATOM     19  C   UNL     1       3.672   3.591  17.314  0.00  0.00    +0.000 A 
ATOM     20  C   UNL     1       2.987   4.739  17.747  0.00  0.00    +0.000 A 
ATOM     21  C   UNL     1       1.479   4.713  17.740  0.00  0.00    +0.000 C 
ATOM     22  C   UNL     1       3.712   5.891  18.123  0.00  0.00    +0.000 A 
ATOM     23  C   UNL     1       5.114   5.856  17.994  0.00  0.00    +0.000 A 
ENDBRANCH  10  22
ENDBRANCH   1  13
BRANCH   9  24
ATOM     24  C   UNL     1      -2.413  12.653  22.565  0.00  0.00    +0.000 A 
ATOM     25  C   UNL     1      -3.177  12.091  23.603  0.00  0.00    +0.000 A 
ATOM     26  C   UNL     1      -4.183  12.832  24.224  0.00  0.00    +0.000 A 
ATOM     27  C   UNL     1      -4.444  14.135  23.809  0.00  0.00    +0.000 A 
ATOM     28  C   UNL     1      -3.703  14.695  22.772  0.00  0.00    +0.000 A 
ATOM     29  C   UNL     1      -2.690  13.960  22.151  0.00  0.00    +0.000 A 
ENDBRANCH   9  24
TORSDOF 3
ENDMDL
MODEL 8
REMARK VINA RESULT:      -7.7      2.318      9.770
REMARK  Name = 
REMARK  5 active torsions:
REMARK  status: ('A' for Active; 'I' for Inactive)
REMARK    1  A    between atoms: C_1  and  C_2
REMARK    2  A    between atoms: C_5  and  C_6
REMARK    3  A    between atoms: C_7  and  N_8
REMARK    4  A    between atoms: N_11  and  C_12
REMARK    5  A    between atoms: N_20  and  C_21
REMARK                            x       y       z     vdW  Elec       q    Type
REMARK                         _______ _______ _______ _____ _____    ______ ____
ROOT
ATOM      1  C   UNL     1       0.768   9.415  20.317  0.00  0.00    +0.000 A 
ATOM      2  N   UNL     1       0.672   8.580  21.381  0.00  0.00    +0.000 NA
ATOM      3  C   UNL     1       1.228   7.358  21.312  0.00  0.00    +0.000 A 
ATOM      4  N   UNL     1       1.915   6.824  20.295  0.00  0.00    +0.000 NA
ATOM      5  C   UNL     1       2.048   7.682  19.263  0.00  0.00    +0.000 A 
ATOM      6  C   UNL     1       1.527   8.967  19.220  0.00  0.00    +0.000 A 
ATOM      7  C   UNL     1       1.977   9.483  17.994  0.00  0.00    +0.000 A 
ATOM      8  N   UNL     1       2.690   8.615  17.282  0.00  0.00    +0.000 NA
ATOM      9  N   UNL     1       2.722   7.487  18.057  0.00  0.00    +0.000 N 
ENDROOT
BRANCH   1  13
ATOM     10  N   UNL     1      -0.815  13.297  20.105  0.00  0.00    +0.000 N 
ATOM     11  C   UNL     1       0.335  12.986  20.975  0.00  0.00    +0.000 C 
ATOM     12  C   UNL     1       0.209  11.539  21.486  0.00  0.00    +0.000 C 
ATOM     13  N   UNL     1       0.091  10.609  20.362  0.00  0.00    +0.000 N 
ATOM     14  C   UNL     1      -0.918  10.933  19.338  0.00  0.00    +0.000 C 
ATOM     15  C   UNL     1      -0.820  12.419  18.904  0.00  0.00    +0.000 C 
BRANCH  10  22
ATOM     16  C   UNL     1       0.220  17.500  17.666  0.00  0.00    +0.000 C 
ATOM     17  C   UNL     1      -0.602  16.754  18.675  0.00  0.00    +0.000 A 
ATOM     18  C   UNL     1      -1.595  17.395  19.409  0.00  0.00    +0.000 A 
ATOM     19  C   UNL     1      -2.320  16.687  20.367  0.00  0.00    +0.000 A 
ATOM     20  C   UNL     1      -2.062  15.329  20.615  0.00  0.00    +0.000 A 
ATOM     21  C   UNL     1      -2.808  14.655  21.738  0.00  0.00    +0.000 C 
ATOM     22  C   UNL     1      -1.085  14.649  19.854  0.00  0.00    +0.000 A 
ATOM     23  C   UNL     1      -0.364  15.390  18.898  0.00  0.00    +0.000 A 
ENDBRANCH  10  22
ENDBRANCH   1  13
BRANCH   9  24
ATOM     24  C   UNL     1       3.401   6.331  17.575  0.00  0.00    +0.000 A 
ATOM     25  C   UNL     1       4.615   6.490  16.885  0.00  0.00    +0.000 A 
ATOM     26  C   UNL     1       5.315   5.376  16.416  0.00  0.00    +0.000 A 
ATOM     27  C   UNL     1       4.804   4.098  16.619  0.00  0.00    +0.000 A 
ATOM     28  C   UNL     1       3.595   3.932  17.289  0.00  0.00    +0.000 A 
ATOM     29  C   UNL     1       2.894   5.041  17.768  0.00  0.00    +0.000 A 
ENDBRANCH   9  24
TORSDOF 3
ENDMDL
MODEL 9
REMARK VINA RESULT:      -7.7      2.064      3.182
REMARK  Name = 
REMARK  5 active torsions:
REMARK  status: ('A' for Active; 'I' for Inactive)
REMARK    1  A    between atoms: C_1  and  C_2
REMARK    2  A    between atoms: C_5  and  C_6
REMARK    3  A    between atoms: C_7  and  N_8
REMARK    4  A    between atoms: N_11  and  C_12
REMARK    5  A    between atoms: N_20  and  C_21
REMARK                            x       y       z     vdW  Elec       q    Type
REMARK                         _______ _______ _______ _____ _____    ______ ____
ROOT
ATOM      1  C   UNL     1       0.711  10.322  20.327  0.00  0.00    +0.000 A 
ATOM      2  N   UNL     1      -0.126  10.188  21.386  0.00  0.00    +0.000 NA
ATOM      3  C   UNL     1      -0.433  11.268  22.124  0.00  0.00    +0.000 A 
ATOM      4  N   UNL     1      -0.021  12.530  21.946  0.00  0.00    +0.000 NA
ATOM      5  C   UNL     1       0.770  12.659  20.861  0.00  0.00    +0.000 A 
ATOM      6  C   UNL     1       1.148  11.623  20.020  0.00  0.00    +0.000 A 
ATOM      7  C   UNL     1       1.902  12.251  19.014  0.00  0.00    +0.000 A 
ATOM      8  N   UNL     1       2.039  13.561  19.194  0.00  0.00    +0.000 NA
ATOM      9  N   UNL     1       1.354  13.819  20.350  0.00  0.00    +0.000 N 
ENDROOT
BRANCH   1  13
ATOM     10  N   UNL     1       2.519   7.047  18.422  0.00  0.00    +0.000 N 
ATOM     11  C   UNL     1       2.531   8.391  17.811  0.00  0.00    +0.000 C 
ATOM     12  C   UNL     1       1.244   9.139  18.204  0.00  0.00    +0.000 C 
ATOM     13  N   UNL     1       1.107   9.188  19.661  0.00  0.00    +0.000 N 
ATOM     14  C   UNL     1       1.258   7.913  20.383  0.00  0.00    +0.000 C 
ATOM     15  C   UNL     1       2.518   7.143  19.906  0.00  0.00    +0.000 C 
BRANCH  10  22
ATOM     16  C   UNL     1       6.987   5.855  16.605  0.00  0.00    +0.000 C 
ATOM     17  C   UNL     1       5.589   5.458  16.976  0.00  0.00    +0.000 A 
ATOM     18  C   UNL     1       5.123   4.166  16.749  0.00  0.00    +0.000 A 
ATOM     19  C   UNL     1       3.808   3.833  17.068  0.00  0.00    +0.000 A 
ATOM     20  C   UNL     1       2.930   4.785  17.614  0.00  0.00    +0.000 A 
ATOM     21  C   UNL     1       1.493   4.385  17.834  0.00  0.00    +0.000 C 
ATOM     22  C   UNL     1       3.393   6.091  17.889  0.00  0.00    +0.000 A 
ATOM     23  C   UNL     1       4.724   6.401  17.549  0.00  0.00    +0.000 A 
ENDBRANCH  10  22
ENDBRANCH   1  13
BRANCH   9  24
ATOM     24  C   UNL     1       1.314  15.151  20.854  0.00  0.00    +0.000 A 
ATOM     25  C   UNL     1       2.099  15.483  21.971  0.00  0.00    +0.000 A 
ATOM     26  C   UNL     1       2.096  16.783  22.479  0.00  0.00    +0.000 A 
ATOM     27  C   UNL     1       1.303  17.760  21.884  0.00  0.00    +0.000 A 
ATOM     28  C   UNL     1       0.510  17.437  20.786  0.00  0.00    +0.000 A 
ATOM     29  C   UNL     1       0.515  16.139  20.269  0.00  0.00    +0.000 A 
ENDBRANCH   9  24
TORSDOF 3
ENDMDL
