MODEL 1
REMARK VINA RESULT:      -7.4      0.000      0.000
REMARK  Name = 
REMARK  6 active torsions:
REMARK  status: ('A' for Active; 'I' for Inactive)
REMARK    1  A    between atoms: C_1  and  C_2
REMARK    2  A    between atoms: C_2  and  N_3
REMARK    3  A    between atoms: C_5  and  C_6
REMARK    4  A    between atoms: N_11  and  C_12
REMARK    5  A    between atoms: C_17  and  O_18
REMARK    6  A    between atoms: O_18  and  C_19
REMARK                            x       y       z     vdW  Elec       q    Type
REMARK                         _______ _______ _______ _____ _____    ______ ____
ROOT
ATOM      1  C   UNL     1       3.490   5.728  19.250  0.00  0.00    +0.000 C 
ATOM      2  O   UNL     1       3.390   4.845  20.103  0.00  0.00    +0.000 OA
ATOM      3  N   UNL     1       2.658   6.824  19.209  0.00  0.00    +0.000 N 
ATOM      4  C   UNL     1       1.722   7.041  20.322  0.00  0.00    +0.000 C 
ATOM      5  C   UNL     1       1.527   8.544  20.595  0.00  0.00    +0.000 C 
ATOM      6  N   UNL     1       1.112   9.197  19.337  0.00  0.00    +0.000 N 
ATOM      7  C   UNL     1       2.124   9.095  18.280  0.00  0.00    +0.000 C 
ATOM      8  C   UNL     1       2.356   7.595  17.991  0.00  0.00    +0.000 C 
ENDROOT
BRANCH   1  11
ATOM      9  N   UNL     1       5.737   4.500  16.643  0.00  0.00    +0.000 N 
ATOM     10  C   UNL     1       4.387   4.678  17.129  0.00  0.00    +0.000 C 
ATOM     11  C   UNL     1       4.600   5.714  18.223  0.00  0.00    +0.000 C 
ATOM     12  C   UNL     1       5.947   5.330  18.824  0.00  0.00    +0.000 C 
ATOM     13  C   UNL     1       6.659   4.781  17.625  0.00  0.00    +0.000 C 
ATOM     14  O   UNL     1       7.857   4.594  17.566  0.00  0.00    +0.000 OA
BRANCH   9  16
ATOM     15  C   UNL     1       6.453   4.639  14.292  0.00  0.00    +0.000 C 
ATOM     16  C   UNL     1       6.056   3.741  15.446  0.00  0.00    +0.000 C 
ENDBRANCH   9  16
ENDBRANCH   1  11
BRANCH   6  17
ATOM     17  C   UNL     1       0.213  10.255  19.367  0.00  0.00    +0.000 A 
ATOM     18  C   UNL     1       0.332  11.233  20.380  0.00  0.00    +0.000 A 
ATOM     19  C   UNL     1      -0.617  12.243  20.572  0.00  0.00    +0.000 A 
ATOM     20  C   UNL     1      -1.723  12.309  19.747  0.00  0.00    +0.000 A 
ATOM     21  C   UNL     1      -1.841  11.406  18.695  0.00  0.00    +0.000 A 
ATOM     22  C   UNL     1      -0.885  10.396  18.487  0.00  0.00    +0.000 A 
BRANCH  22  23
ATOM     23  O   UNL     1      -1.140   9.687  17.338  0.00  0.00    +0.000 OA
ATOM     24  C   UNL     1      -2.311  10.003  16.607  0.00  0.00    +0.000 C 
ENDBRANCH  22  23
ENDBRANCH   6  17
TORSDOF 4
ENDMDL
MODEL 2
REMARK VINA RESULT:      -7.2      1.212      1.959
REMARK  Name = 
REMARK  6 active torsions:
REMARK  status: ('A' for Active; 'I' for Inactive)
REMARK    1  A    between atoms: C_1  and  C_2
REMARK    2  A    between atoms: C_2  and  N_3
REMARK    3  A    between atoms: C_5  and  C_6
REMARK    4  A    between atoms: N_11  and  C_12
REMARK    5  A    between atoms: C_17  and  O_18
REMARK    6  A    between atoms: O_18  and  C_19
REMARK                            x       y       z     vdW  Elec       q    Type
REMARK                         _______ _______ _______ _____ _____    ______ ____
ROOT
ATOM      1  C   UNL     1       3.549   5.571  19.315  0.00  0.00    +0.000 C 
ATOM      2  O   UNL     1       3.472   4.660  20.140  0.00  0.00    +0.000 OA
ATOM      3  N   UNL     1       2.690   6.648  19.309  0.00  0.00    +0.000 N 
ATOM      4  C   UNL     1       1.752   6.807  20.430  0.00  0.00    +0.000 C 
ATOM      5  C   UNL     1       1.521   8.297  20.749  0.00  0.00    +0.000 C 
ATOM      6  N   UNL     1       1.088   8.977  19.513  0.00  0.00    +0.000 N 
ATOM      7  C   UNL     1       2.100   8.933  18.452  0.00  0.00    +0.000 C 
ATOM      8  C   UNL     1       2.368   7.449  18.116  0.00  0.00    +0.000 C 
ENDROOT
BRANCH   1  11
ATOM      9  N   UNL     1       5.798   4.490  16.646  0.00  0.00    +0.000 N 
ATOM     10  C   UNL     1       4.448   4.635  17.143  0.00  0.00    +0.000 C 
ATOM     11  C   UNL     1       4.656   5.616  18.286  0.00  0.00    +0.000 C 
ATOM     12  C   UNL     1       6.007   5.211  18.865  0.00  0.00    +0.000 C 
ATOM     13  C   UNL     1       6.720   4.728  17.639  0.00  0.00    +0.000 C 
ATOM     14  O   UNL     1       7.919   4.552  17.569  0.00  0.00    +0.000 OA
BRANCH   9  16
ATOM     15  C   UNL     1       6.528   4.750  14.310  0.00  0.00    +0.000 C 
ATOM     16  C   UNL     1       6.119   3.794  15.412  0.00  0.00    +0.000 C 
ENDBRANCH   9  16
ENDBRANCH   1  11
BRANCH   6  17
ATOM     17  C   UNL     1       0.164  10.012  19.577  0.00  0.00    +0.000 A 
ATOM     18  C   UNL     1      -0.553  10.371  18.414  0.00  0.00    +0.000 A 
ATOM     19  C   UNL     1      -1.387  11.493  18.354  0.00  0.00    +0.000 A 
ATOM     20  C   UNL     1      -1.535  12.296  19.468  0.00  0.00    +0.000 A 
ATOM     21  C   UNL     1      -0.900  11.937  20.654  0.00  0.00    +0.000 A 
ATOM     22  C   UNL     1      -0.070  10.804  20.726  0.00  0.00    +0.000 A 
BRANCH  22  23
ATOM     23  O   UNL     1       0.367  10.579  22.008  0.00  0.00    +0.000 OA
ATOM     24  C   UNL     1      -0.606  10.397  23.021  0.00  0.00    +0.000 C 
ENDBRANCH  22  23
ENDBRANCH   6  17
TORSDOF 4
ENDMDL
MODEL 3
REMARK VINA RESULT:      -7.2      1.216      1.905
REMARK  Name = 
REMARK  6 active torsions:
REMARK  status: ('A' for Active; 'I' for Inactive)
REMARK    1  A    between atoms: C_1  and  C_2
REMARK    2  A    between atoms: C_2  and  N_3
REMARK    3  A    between atoms: C_5  and  C_6
REMARK    4  A    between atoms: N_11  and  C_12
REMARK    5  A    between atoms: C_17  and  O_18
REMARK    6  A    between atoms: O_18  and  C_19
REMARK                            x       y       z     vdW  Elec       q    Type
REMARK                         _______ _______ _______ _____ _____    ______ ____
ROOT
ATOM      1  C   UNL     1       3.594   5.826  19.182  0.00  0.00    +0.000 C 
ATOM      2  O   UNL     1       3.487   5.002  20.090  0.00  0.00    +0.000 OA
ATOM      3  N   UNL     1       2.748   6.905  19.049  0.00  0.00    +0.000 N 
ATOM      4  C   UNL     1       1.786   7.182  20.126  0.00  0.00    +0.000 C 
ATOM      5  C   UNL     1       1.564   8.698  20.292  0.00  0.00    +0.000 C 
ATOM      6  N   UNL     1       1.169   9.258  18.984  0.00  0.00    +0.000 N 
ATOM      7  C   UNL     1       2.205   9.100  17.958  0.00  0.00    +0.000 C 
ATOM      8  C   UNL     1       2.463   7.588  17.776  0.00  0.00    +0.000 C 
ENDROOT
BRANCH   1  11
ATOM      9  N   UNL     1       5.834   4.496  16.621  0.00  0.00    +0.000 N 
ATOM     10  C   UNL     1       4.485   4.742  17.077  0.00  0.00    +0.000 C 
ATOM     11  C   UNL     1       4.725   5.759  18.181  0.00  0.00    +0.000 C 
ATOM     12  C   UNL     1       6.036   5.301  18.812  0.00  0.00    +0.000 C 
ATOM     13  C   UNL     1       6.747   4.722  17.627  0.00  0.00    +0.000 C 
ATOM     14  O   UNL     1       7.934   4.472  17.595  0.00  0.00    +0.000 OA
BRANCH   9  16
ATOM     15  C   UNL     1       6.589   4.611  14.281  0.00  0.00    +0.000 C 
ATOM     16  C   UNL     1       6.142   3.727  15.427  0.00  0.00    +0.000 C 
ENDBRANCH   9  16
ENDBRANCH   1  11
BRANCH   6  17
ATOM     17  C   UNL     1       0.256  10.302  18.924  0.00  0.00    +0.000 A 
ATOM     18  C   UNL     1      -1.041  10.058  18.420  0.00  0.00    +0.000 A 
ATOM     19  C   UNL     1      -1.968  11.079  18.185  0.00  0.00    +0.000 A 
ATOM     20  C   UNL     1      -1.625  12.390  18.455  0.00  0.00    +0.000 A 
ATOM     21  C   UNL     1      -0.382  12.665  19.017  0.00  0.00    +0.000 A 
ATOM     22  C   UNL     1       0.550  11.643  19.268  0.00  0.00    +0.000 A 
BRANCH  22  23
ATOM     23  O   UNL     1       1.662  12.120  19.918  0.00  0.00    +0.000 OA
ATOM     24  C   UNL     1       2.152  13.397  19.550  0.00  0.00    +0.000 C 
ENDBRANCH  22  23
ENDBRANCH   6  17
TORSDOF 4
ENDMDL
MODEL 4
REMARK VINA RESULT:      -7.0      1.617      2.282
REMARK  Name = 
REMARK  6 active torsions:
REMARK  status: ('A' for Active; 'I' for Inactive)
REMARK    1  A    between atoms: C_1  and  C_2
REMARK    2  A    between atoms: C_2  and  N_3
REMARK    3  A    between atoms: C_5  and  C_6
REMARK    4  A    between atoms: N_11  and  C_12
REMARK    5  A    between atoms: C_17  and  O_18
REMARK    6  A    between atoms: O_18  and  C_19
REMARK                            x       y       z     vdW  Elec       q    Type
REMARK                         _______ _______ _______ _____ _____    ______ ____
ROOT
ATOM      1  C   UNL     1       3.538   5.840  18.435  0.00  0.00    +0.000 C 
ATOM      2  O   UNL     1       3.608   4.803  19.096  0.00  0.00    +0.000 OA
ATOM      3  N   UNL     1       2.660   6.857  18.732  0.00  0.00    +0.000 N 
ATOM      4  C   UNL     1       1.892   6.782  19.984  0.00  0.00    +0.000 C 
ATOM      5  C   UNL     1       1.671   8.185  20.581  0.00  0.00    +0.000 C 
ATOM      6  N   UNL     1       1.043   9.037  19.551  0.00  0.00    +0.000 N 
ATOM      7  C   UNL     1       1.889   9.219  18.367  0.00  0.00    +0.000 C 
ATOM      8  C   UNL     1       2.144   7.826  17.750  0.00  0.00    +0.000 C 
ENDROOT
BRANCH   1  11
ATOM      9  N   UNL     1       6.124   5.280  15.915  0.00  0.00    +0.000 N 
ATOM     10  C   UNL     1       4.898   4.846  16.547  0.00  0.00    +0.000 C 
ATOM     11  C   UNL     1       4.481   6.109  17.284  0.00  0.00    +0.000 C 
ATOM     12  C   UNL     1       5.805   6.711  17.742  0.00  0.00    +0.000 C 
ATOM     13  C   UNL     1       6.719   6.294  16.631  0.00  0.00    +0.000 C 
ATOM     14  O   UNL     1       7.818   6.770  16.433  0.00  0.00    +0.000 OA
BRANCH   9  16
ATOM     15  C   UNL     1       5.900   3.966  13.846  0.00  0.00    +0.000 C 
ATOM     16  C   UNL     1       6.830   4.487  14.923  0.00  0.00    +0.000 C 
ENDBRANCH   9  16
ENDBRANCH   1  11
BRANCH   6  17
ATOM     17  C   UNL     1       0.111   9.998  19.919  0.00  0.00    +0.000 A 
ATOM     18  C   UNL     1      -0.799  10.484  18.953  0.00  0.00    +0.000 A 
ATOM     19  C   UNL     1      -1.665  11.554  19.199  0.00  0.00    +0.000 A 
ATOM     20  C   UNL     1      -1.652  12.176  20.433  0.00  0.00    +0.000 A 
ATOM     21  C   UNL     1      -0.820  11.683  21.433  0.00  0.00    +0.000 A 
ATOM     22  C   UNL     1       0.045  10.600  21.198  0.00  0.00    +0.000 A 
BRANCH  22  23
ATOM     23  O   UNL     1       0.695  10.213  22.345  0.00  0.00    +0.000 OA
ATOM     24  C   UNL     1      -0.067   9.588  23.362  0.00  0.00    +0.000 C 
ENDBRANCH  22  23
ENDBRANCH   6  17
TORSDOF 4
ENDMDL
MODEL 5
REMARK VINA RESULT:      -6.9      1.054      1.089
REMARK  Name = 
REMARK  6 active torsions:
REMARK  status: ('A' for Active; 'I' for Inactive)
REMARK    1  A    between atoms: C_1  and  C_2
REMARK    2  A    between atoms: C_2  and  N_3
REMARK    3  A    between atoms: C_5  and  C_6
REMARK    4  A    between atoms: N_11  and  C_12
REMARK    5  A    between atoms: C_17  and  O_18
REMARK    6  A    between atoms: O_18  and  C_19
REMARK                            x       y       z     vdW  Elec       q    Type
REMARK                         _______ _______ _______ _____ _____    ______ ____
ROOT
ATOM      1  C   UNL     1       3.437   5.396  18.348  0.00  0.00    +0.000 C 
ATOM      2  O   UNL     1       3.443   4.351  18.999  0.00  0.00    +0.000 OA
ATOM      3  N   UNL     1       2.651   6.477  18.679  0.00  0.00    +0.000 N 
ATOM      4  C   UNL     1       1.917   6.451  19.953  0.00  0.00    +0.000 C 
ATOM      5  C   UNL     1       1.824   7.861  20.566  0.00  0.00    +0.000 C 
ATOM      6  N   UNL     1       1.237   8.770  19.562  0.00  0.00    +0.000 N 
ATOM      7  C   UNL     1       2.060   8.896  18.354  0.00  0.00    +0.000 C 
ATOM      8  C   UNL     1       2.186   7.493  17.720  0.00  0.00    +0.000 C 
ENDROOT
BRANCH   1  11
ATOM      9  N   UNL     1       6.010   4.707  15.847  0.00  0.00    +0.000 N 
ATOM     10  C   UNL     1       4.798   4.297  16.520  0.00  0.00    +0.000 C 
ATOM     11  C   UNL     1       4.365   5.601  17.172  0.00  0.00    +0.000 C 
ATOM     12  C   UNL     1       5.681   6.256  17.574  0.00  0.00    +0.000 C 
ATOM     13  C   UNL     1       6.593   5.779  16.485  0.00  0.00    +0.000 C 
ATOM     14  O   UNL     1       7.681   6.258  16.244  0.00  0.00    +0.000 OA
BRANCH   9  16
ATOM     15  C   UNL     1       6.014   3.781  13.567  0.00  0.00    +0.000 C 
ATOM     16  C   UNL     1       6.721   3.860  14.905  0.00  0.00    +0.000 C 
ENDBRANCH   9  16
ENDBRANCH   1  11
BRANCH   6  17
ATOM     17  C   UNL     1       0.395   9.798  19.964  0.00  0.00    +0.000 A 
ATOM     18  C   UNL     1       0.456  10.258  21.299  0.00  0.00    +0.000 A 
ATOM     19  C   UNL     1      -0.455  11.181  21.824  0.00  0.00    +0.000 A 
ATOM     20  C   UNL     1      -1.463  11.681  21.021  0.00  0.00    +0.000 A 
ATOM     21  C   UNL     1      -1.514  11.306  19.682  0.00  0.00    +0.000 A 
ATOM     22  C   UNL     1      -0.595  10.389  19.144  0.00  0.00    +0.000 A 
BRANCH  22  23
ATOM     23  O   UNL     1      -0.762  10.242  17.788  0.00  0.00    +0.000 OA
ATOM     24  C   UNL     1      -2.054   9.917  17.308  0.00  0.00    +0.000 C 
ENDBRANCH  22  23
ENDBRANCH   6  17
TORSDOF 4
ENDMDL
MODEL 6
REMARK VINA RESULT:      -6.5      3.039      9.207
REMARK  Name = 
REMARK  6 active torsions:
REMARK  status: ('A' for Active; 'I' for Inactive)
REMARK    1  A    between atoms: C_1  and  C_2
REMARK    2  A    between atoms: C_2  and  N_3
REMARK    3  A    between atoms: C_5  and  C_6
REMARK    4  A    between atoms: N_11  and  C_12
REMARK    5  A    between atoms: C_17  and  O_18
REMARK    6  A    between atoms: O_18  and  C_19
REMARK                            x       y       z     vdW  Elec       q    Type
REMARK                         _______ _______ _______ _____ _____    ______ ____
ROOT
ATOM      1  C   UNL     1      -1.173  11.595  20.152  0.00  0.00    +0.000 C 
ATOM      2  O   UNL     1      -1.746  12.234  19.268  0.00  0.00    +0.000 OA
ATOM      3  N   UNL     1      -0.336  10.535  19.884  0.00  0.00    +0.000 N 
ATOM      4  C   UNL     1       0.026  10.258  18.486  0.00  0.00    +0.000 C 
ATOM      5  C   UNL     1       1.467   9.725  18.384  0.00  0.00    +0.000 C 
ATOM      6  N   UNL     1       1.596   8.553  19.273  0.00  0.00    +0.000 N 
ATOM      7  C   UNL     1       1.374   8.881  20.686  0.00  0.00    +0.000 C 
ATOM      8  C   UNL     1      -0.061   9.434  20.823  0.00  0.00    +0.000 C 
ENDROOT
BRANCH   1  11
ATOM      9  N   UNL     1      -2.390  13.238  23.180  0.00  0.00    +0.000 N 
ATOM     10  C   UNL     1      -2.676  12.464  21.993  0.00  0.00    +0.000 C 
ATOM     11  C   UNL     1      -1.284  11.986  21.608  0.00  0.00    +0.000 C 
ATOM     12  C   UNL     1      -0.388  13.167  21.966  0.00  0.00    +0.000 C 
ATOM     13  C   UNL     1      -1.106  13.734  23.152  0.00  0.00    +0.000 C 
ATOM     14  O   UNL     1      -0.621  14.527  23.932  0.00  0.00    +0.000 OA
BRANCH   9  16
ATOM     15  C   UNL     1      -4.311  12.662  24.607  0.00  0.00    +0.000 C 
ATOM     16  C   UNL     1      -3.425  13.761  24.055  0.00  0.00    +0.000 C 
ENDBRANCH   9  16
ENDBRANCH   1  11
BRANCH   6  17
ATOM     17  C   UNL     1       2.407   7.488  18.904  0.00  0.00    +0.000 A 
ATOM     18  C   UNL     1       3.344   7.662  17.861  0.00  0.00    +0.000 A 
ATOM     19  C   UNL     1       4.090   6.604  17.329  0.00  0.00    +0.000 A 
ATOM     20  C   UNL     1       3.923   5.328  17.831  0.00  0.00    +0.000 A 
ATOM     21  C   UNL     1       3.061   5.127  18.905  0.00  0.00    +0.000 A 
ATOM     22  C   UNL     1       2.317   6.187  19.454  0.00  0.00    +0.000 A 
BRANCH  22  23
ATOM     23  O   UNL     1       1.614   5.790  20.565  0.00  0.00    +0.000 OA
ATOM     24  C   UNL     1       1.312   4.413  20.704  0.00  0.00    +0.000 C 
ENDBRANCH  22  23
ENDBRANCH   6  17
TORSDOF 4
ENDMDL
MODEL 7
REMARK VINA RESULT:      -6.5      3.047      4.347
REMARK  Name = 
REMARK  6 active torsions:
REMARK  status: ('A' for Active; 'I' for Inactive)
REMARK    1  A    between atoms: C_1  and  C_2
REMARK    2  A    between atoms: C_2  and  N_3
REMARK    3  A    between atoms: C_5  and  C_6
REMARK    4  A    between atoms: N_11  and  C_12
REMARK    5  A    between atoms: C_17  and  O_18
REMARK    6  A    between atoms: O_18  and  C_19
REMARK                            x       y       z     vdW  Elec       q    Type
REMARK                         _______ _______ _______ _____ _____    ______ ____
ROOT
ATOM      1  C   UNL     1       2.229   7.220  19.436  0.00  0.00    +0.000 C 
ATOM      2  O   UNL     1       2.492   7.274  18.234  0.00  0.00    +0.000 OA
ATOM      3  N   UNL     1       1.627   8.255  20.116  0.00  0.00    +0.000 N 
ATOM      4  C   UNL     1       1.122   9.403  19.349  0.00  0.00    +0.000 C 
ATOM      5  C   UNL     1      -0.155   9.978  19.990  0.00  0.00    +0.000 C 
ATOM      6  N   UNL     1       0.132  10.290  21.404  0.00  0.00    +0.000 N 
ATOM      7  C   UNL     1       0.493   9.104  22.189  0.00  0.00    +0.000 C 
ATOM      8  C   UNL     1       1.766   8.493  21.563  0.00  0.00    +0.000 C 
ENDROOT
BRANCH   1  11
ATOM      9  N   UNL     1       3.064   3.750  20.216  0.00  0.00    +0.000 N 
ATOM     10  C   UNL     1       3.412   4.987  19.554  0.00  0.00    +0.000 C 
ATOM     11  C   UNL     1       2.477   5.967  20.245  0.00  0.00    +0.000 C 
ATOM     12  C   UNL     1       1.206   5.154  20.466  0.00  0.00    +0.000 C 
ATOM     13  C   UNL     1       1.767   3.781  20.674  0.00  0.00    +0.000 C 
ATOM     14  O   UNL     1       1.144   2.851  21.145  0.00  0.00    +0.000 OA
BRANCH   9  16
ATOM     15  C   UNL     1       3.620   1.913  18.675  0.00  0.00    +0.000 C 
ATOM     16  C   UNL     1       3.819   2.520  20.049  0.00  0.00    +0.000 C 
ENDBRANCH   9  16
ENDBRANCH   1  11
BRANCH   6  17
ATOM     17  C   UNL     1      -0.460  11.393  22.006  0.00  0.00    +0.000 A 
ATOM     18  C   UNL     1      -1.532  11.197  22.905  0.00  0.00    +0.000 A 
ATOM     19  C   UNL     1      -2.278  12.255  23.435  0.00  0.00    +0.000 A 
ATOM     20  C   UNL     1      -1.970  13.555  23.083  0.00  0.00    +0.000 A 
ATOM     21  C   UNL     1      -0.878  13.793  22.254  0.00  0.00    +0.000 A 
ATOM     22  C   UNL     1      -0.115  12.737  21.727  0.00  0.00    +0.000 A 
BRANCH  22  23
ATOM     23  O   UNL     1       0.972  13.198  21.025  0.00  0.00    +0.000 OA
ATOM     24  C   UNL     1       1.561  14.419  21.437  0.00  0.00    +0.000 C 
ENDBRANCH  22  23
ENDBRANCH   6  17
TORSDOF 4
ENDMDL
MODEL 8
REMARK VINA RESULT:      -6.5      1.642      2.045
REMARK  Name = 
REMARK  6 active torsions:
REMARK  status: ('A' for Active; 'I' for Inactive)
REMARK    1  A    between atoms: C_1  and  C_2
REMARK    2  A    between atoms: C_2  and  N_3
REMARK    3  A    between atoms: C_5  and  C_6
REMARK    4  A    between atoms: N_11  and  C_12
REMARK    5  A    between atoms: C_17  and  O_18
REMARK    6  A    between atoms: O_18  and  C_19
REMARK                            x       y       z     vdW  Elec       q    Type
REMARK                         _______ _______ _______ _____ _____    ______ ____
ROOT
ATOM      1  C   UNL     1       3.337   4.658  18.268  0.00  0.00    +0.000 C 
ATOM      2  O   UNL     1       3.026   3.488  18.492  0.00  0.00    +0.000 OA
ATOM      3  N   UNL     1       2.690   5.727  18.848  0.00  0.00    +0.000 N 
ATOM      4  C   UNL     1       1.703   5.463  19.906  0.00  0.00    +0.000 C 
ATOM      5  C   UNL     1       1.718   6.581  20.966  0.00  0.00    +0.000 C 
ATOM      6  N   UNL     1       1.523   7.875  20.283  0.00  0.00    +0.000 N 
ATOM      7  C   UNL     1       2.598   8.188  19.335  0.00  0.00    +0.000 C 
ATOM      8  C   UNL     1       2.621   7.076  18.263  0.00  0.00    +0.000 C 
ENDROOT
BRANCH   1  11
ATOM      9  N   UNL     1       5.941   4.331  15.726  0.00  0.00    +0.000 N 
ATOM     10  C   UNL     1       4.544   4.232  16.086  0.00  0.00    +0.000 C 
ATOM     11  C   UNL     1       4.518   5.010  17.393  0.00  0.00    +0.000 C 
ATOM     12  C   UNL     1       5.852   4.660  18.044  0.00  0.00    +0.000 C 
ATOM     13  C   UNL     1       6.730   4.487  16.843  0.00  0.00    +0.000 C 
ATOM     14  O   UNL     1       7.943   4.461  16.880  0.00  0.00    +0.000 OA
BRANCH   9  16
ATOM     15  C   UNL     1       5.387   3.892  13.369  0.00  0.00    +0.000 C 
ATOM     16  C   UNL     1       6.461   3.907  14.438  0.00  0.00    +0.000 C 
ENDBRANCH   9  16
ENDBRANCH   1  11
BRANCH   6  17
ATOM     17  C   UNL     1       0.799   8.885  20.902  0.00  0.00    +0.000 A 
ATOM     18  C   UNL     1       0.547   8.803  22.290  0.00  0.00    +0.000 A 
ATOM     19  C   UNL     1      -0.297   9.695  22.960  0.00  0.00    +0.000 A 
ATOM     20  C   UNL     1      -0.919  10.709  22.258  0.00  0.00    +0.000 A 
ATOM     21  C   UNL     1      -0.643  10.865  20.903  0.00  0.00    +0.000 A 
ATOM     22  C   UNL     1       0.214   9.981  20.224  0.00  0.00    +0.000 A 
BRANCH  22  23
ATOM     23  O   UNL     1       0.428  10.379  18.927  0.00  0.00    +0.000 OA
ATOM     24  C   UNL     1       1.049  11.634  18.710  0.00  0.00    +0.000 C 
ENDBRANCH  22  23
ENDBRANCH   6  17
TORSDOF 4
ENDMDL
MODEL 9
REMARK VINA RESULT:      -6.4      2.816      3.843
REMARK  Name = 
REMARK  6 active torsions:
REMARK  status: ('A' for Active; 'I' for Inactive)
REMARK    1  A    between atoms: C_1  and  C_2
REMARK    2  A    between atoms: C_2  and  N_3
REMARK    3  A    between atoms: C_5  and  C_6
REMARK    4  A    between atoms: N_11  and  C_12
REMARK    5  A    between atoms: C_17  and  O_18
REMARK    6  A    between atoms: O_18  and  C_19
REMARK                            x       y       z     vdW  Elec       q    Type
REMARK                         _______ _______ _______ _____ _____    ______ ____
ROOT
ATOM      1  C   UNL     1       2.530   7.150  18.372  0.00  0.00    +0.000 C 
ATOM      2  O   UNL     1       3.045   7.455  17.296  0.00  0.00    +0.000 OA
ATOM      3  N   UNL     1       1.951   8.076  19.212  0.00  0.00    +0.000 N 
ATOM      4  C   UNL     1       1.788   9.456  18.734  0.00  0.00    +0.000 C 
ATOM      5  C   UNL     1       0.499  10.087  19.295  0.00  0.00    +0.000 C 
ATOM      6  N   UNL     1       0.523   9.968  20.766  0.00  0.00    +0.000 N 
ATOM      7  C   UNL     1       0.539   8.575  21.227  0.00  0.00    +0.000 C 
ATOM      8  C   UNL     1       1.814   7.907  20.669  0.00  0.00    +0.000 C 
ENDROOT
BRANCH   1  11
ATOM      9  N   UNL     1       3.420   3.647  18.903  0.00  0.00    +0.000 N 
ATOM     10  C   UNL     1       3.773   5.044  19.020  0.00  0.00    +0.000 C 
ATOM     11  C   UNL     1       2.421   5.709  18.817  0.00  0.00    +0.000 C 
ATOM     12  C   UNL     1       1.739   4.828  17.776  0.00  0.00    +0.000 C 
ATOM     13  C   UNL     1       2.303   3.481  18.115  0.00  0.00    +0.000 C 
ATOM     14  O   UNL     1       1.847   2.429  17.721  0.00  0.00    +0.000 OA
BRANCH   9  16
ATOM     15  C   UNL     1       4.291   2.180  20.677  0.00  0.00    +0.000 C 
ATOM     16  C   UNL     1       4.341   2.566  19.213  0.00  0.00    +0.000 C 
ENDBRANCH   9  16
ENDBRANCH   1  11
BRANCH   6  17
ATOM     17  C   UNL     1      -0.019  10.975  21.553  0.00  0.00    +0.000 A 
ATOM     18  C   UNL     1      -0.986  10.645  22.529  0.00  0.00    +0.000 A 
ATOM     19  C   UNL     1      -1.689  11.611  23.256  0.00  0.00    +0.000 A 
ATOM     20  C   UNL     1      -1.441  12.952  23.031  0.00  0.00    +0.000 A 
ATOM     21  C   UNL     1      -0.447  13.317  22.129  0.00  0.00    +0.000 A 
ATOM     22  C   UNL     1       0.273  12.351  21.403  0.00  0.00    +0.000 A 
BRANCH  22  23
ATOM     23  O   UNL     1       1.271  12.923  20.652  0.00  0.00    +0.000 OA
ATOM     24  C   UNL     1       0.932  14.010  19.811  0.00  0.00    +0.000 C 
ENDBRANCH  22  23
ENDBRANCH   6  17
TORSDOF 4
ENDMDL
