MODEL 1
REMARK VINA RESULT:      -8.9      0.000      0.000
REMARK  Name = 
REMARK  11 active torsions:
REMARK  status: ('A' for Active; 'I' for Inactive)
REMARK    1  A    between atoms: C_1  and  O_2
REMARK    2  A    between atoms: O_2  and  C_3
REMARK    3  A    between atoms: C_6  and  C_7
REMARK    4  A    between atoms: C_7  and  N_8
REMARK    5  A    between atoms: N_8  and  C_9
REMARK    6  A    between atoms: C_11  and  C_12
REMARK    7  A    between atoms: C_15  and  C_16
REMARK    8  A    between atoms: N_18  and  C_19
REMARK    9  A    between atoms: N_18  and  C_20
REMARK   10  A    between atoms: C_30  and  O_31
REMARK   11  A    between atoms: O_31  and  C_32
REMARK                            x       y       z     vdW  Elec       q    Type
REMARK                         _______ _______ _______ _____ _____    ______ ____
ROOT
ATOM      1  C   UNL     1       3.372   5.512  20.183  0.00  0.00    +0.000 A 
ATOM      2  N   UNL     1       4.664   5.557  19.807  0.00  0.00    +0.000 NA
ATOM      3  C   UNL     1       5.093   4.499  19.097  0.00  0.00    +0.000 A 
ATOM      4  N   UNL     1       4.700   3.264  19.474  0.00  0.00    +0.000 NA
ATOM      5  C   UNL     1       3.406   3.171  19.733  0.00  0.00    +0.000 A 
ATOM      6  C   UNL     1       2.753   2.034  19.274  0.00  0.00    +0.000 A 
ATOM      7  C   UNL     1       1.369   1.959  19.184  0.00  0.00    +0.000 A 
ATOM      8  C   UNL     1       0.612   2.976  19.736  0.00  0.00    +0.000 A 
ATOM      9  C   UNL     1       1.240   4.117  20.240  0.00  0.00    +0.000 A 
ATOM     10  C   UNL     1       2.642   4.290  20.137  0.00  0.00    +0.000 A 
ENDROOT
BRANCH   3  11
ATOM     11  C   UNL     1       4.801   4.709  17.601  0.00  0.00    +0.000 A 
ATOM     12  C   UNL     1       4.716   3.601  16.736  0.00  0.00    +0.000 A 
ATOM     13  C   UNL     1       5.325   3.642  15.473  0.00  0.00    +0.000 A 
ATOM     14  C   UNL     1       6.051   4.768  15.079  0.00  0.00    +0.000 A 
ATOM     15  C   UNL     1       5.890   5.937  15.830  0.00  0.00    +0.000 A 
ATOM     16  C   UNL     1       5.144   5.939  17.012  0.00  0.00    +0.000 A 
BRANCH  14  17
ATOM     17  C   UNL     1       6.953   4.867  13.889  0.00  0.00    +0.000 C 
ATOM     18  O   UNL     1       7.960   5.569  14.029  0.00  0.00    +0.000 OA
ATOM     19  N   UNL     1       6.707   4.209  12.679  0.00  0.00    +0.000 N 
ATOM     20  C   UNL     1       5.672   3.223  12.406  0.00  0.00    +0.000 C 
ATOM     21  C   UNL     1       7.520   4.592  11.535  0.00  0.00    +0.000 C 
ENDBRANCH  14  17
ENDBRANCH   3  11
BRANCH   1  22
ATOM     22  N   UNL     1       2.735   6.743  19.958  0.00  0.00    +0.000 N 
ATOM     23  H   UNL     1       1.924   6.638  20.566  0.00  0.00    +0.000 HD
BRANCH  22  24
ATOM     24  C   UNL     1       2.134   7.130  18.680  0.00  0.00    +0.000 C 
BRANCH  24  28
ATOM     25  C   UNL     1       1.322  11.397  19.047  0.00  0.00    +0.000 A 
ATOM     26  C   UNL     1       1.971  10.854  17.943  0.00  0.00    +0.000 A 
ATOM     27  C   UNL     1       2.164   9.479  17.838  0.00  0.00    +0.000 A 
ATOM     28  C   UNL     1       1.729   8.596  18.838  0.00  0.00    +0.000 A 
ATOM     29  C   UNL     1       1.051   9.140  19.947  0.00  0.00    +0.000 A 
ATOM     30  C   UNL     1       0.873  10.539  20.051  0.00  0.00    +0.000 A 
BRANCH  25  32
ATOM     31  C   UNL     1       2.248  13.530  18.446  0.00  0.00    +0.000 C 
ATOM     32  O   UNL     1       1.193  12.755  19.001  0.00  0.00    +0.000 OA
ENDBRANCH  25  32
BRANCH  29  33
ATOM     33  O   UNL     1       0.620   8.269  20.923  0.00  0.00    +0.000 OA
ATOM     34  C   UNL     1      -0.223   8.843  21.926  0.00  0.00    +0.000 C 
ENDBRANCH  29  33
ENDBRANCH  24  28
ENDBRANCH  22  24
ENDBRANCH   1  22
TORSDOF 7
ENDMDL
MODEL 2
REMARK VINA RESULT:      -8.9      1.275      1.452
REMARK  Name = 
REMARK  11 active torsions:
REMARK  status: ('A' for Active; 'I' for Inactive)
REMARK    1  A    between atoms: C_1  and  O_2
REMARK    2  A    between atoms: O_2  and  C_3
REMARK    3  A    between atoms: C_6  and  C_7
REMARK    4  A    between atoms: C_7  and  N_8
REMARK    5  A    between atoms: N_8  and  C_9
REMARK    6  A    between atoms: C_11  and  C_12
REMARK    7  A    between atoms: C_15  and  C_16
REMARK    8  A    between atoms: N_18  and  C_19
REMARK    9  A    between atoms: N_18  and  C_20
REMARK   10  A    between atoms: C_30  and  O_31
REMARK   11  A    between atoms: O_31  and  C_32
REMARK                            x       y       z     vdW  Elec       q    Type
REMARK                         _______ _______ _______ _____ _____    ______ ____
ROOT
ATOM      1  C   UNL     1       2.838   5.806  19.741  0.00  0.00    +0.000 A 
ATOM      2  N   UNL     1       4.108   6.101  19.402  0.00  0.00    +0.000 NA
ATOM      3  C   UNL     1       4.824   5.074  18.911  0.00  0.00    +0.000 A 
ATOM      4  N   UNL     1       4.705   3.863  19.496  0.00  0.00    +0.000 NA
ATOM      5  C   UNL     1       3.453   3.503  19.728  0.00  0.00    +0.000 A 
ATOM      6  C   UNL     1       3.120   2.179  19.465  0.00  0.00    +0.000 A 
ATOM      7  C   UNL     1       1.803   1.755  19.347  0.00  0.00    +0.000 A 
ATOM      8  C   UNL     1       0.790   2.635  19.681  0.00  0.00    +0.000 A 
ATOM      9  C   UNL     1       1.094   3.965  19.987  0.00  0.00    +0.000 A 
ATOM     10  C   UNL     1       2.421   4.454  19.896  0.00  0.00    +0.000 A 
ENDROOT
BRANCH   3  11
ATOM     11  C   UNL     1       4.603   4.949  17.394  0.00  0.00    +0.000 A 
ATOM     12  C   UNL     1       4.784   3.708  16.754  0.00  0.00    +0.000 A 
ATOM     13  C   UNL     1       5.460   3.637  15.527  0.00  0.00    +0.000 A 
ATOM     14  C   UNL     1       5.991   4.793  14.950  0.00  0.00    +0.000 A 
ATOM     15  C   UNL     1       5.565   6.024  15.459  0.00  0.00    +0.000 A 
ATOM     16  C   UNL     1       4.752   6.094  16.593  0.00  0.00    +0.000 A 
BRANCH  14  17
ATOM     17  C   UNL     1       6.938   4.848  13.793  0.00  0.00    +0.000 C 
ATOM     18  O   UNL     1       7.970   5.506  13.968  0.00  0.00    +0.000 OA
ATOM     19  N   UNL     1       6.708   4.197  12.576  0.00  0.00    +0.000 N 
ATOM     20  C   UNL     1       5.642   3.256  12.268  0.00  0.00    +0.000 C 
ATOM     21  C   UNL     1       7.579   4.540  11.462  0.00  0.00    +0.000 C 
ENDBRANCH  14  17
ENDBRANCH   3  11
BRANCH   1  22
ATOM     22  N   UNL     1       1.949   6.788  19.276  0.00  0.00    +0.000 N 
ATOM     23  H   UNL     1       1.643   6.355  18.405  0.00  0.00    +0.000 HD
BRANCH  22  24
ATOM     24  C   UNL     1       2.361   8.125  18.845  0.00  0.00    +0.000 C 
BRANCH  24  28
ATOM     25  C   UNL     1      -0.949  10.930  19.267  0.00  0.00    +0.000 A 
ATOM     26  C   UNL     1      -0.513  10.472  18.028  0.00  0.00    +0.000 A 
ATOM     27  C   UNL     1       0.513   9.535  17.938  0.00  0.00    +0.000 A 
ATOM     28  C   UNL     1       1.152   9.030  19.081  0.00  0.00    +0.000 A 
ATOM     29  C   UNL     1       0.698   9.473  20.338  0.00  0.00    +0.000 A 
ATOM     30  C   UNL     1      -0.336  10.436  20.419  0.00  0.00    +0.000 A 
BRANCH  25  32
ATOM     31  C   UNL     1      -3.107  11.525  18.399  0.00  0.00    +0.000 C 
ATOM     32  O   UNL     1      -1.970  11.832  19.196  0.00  0.00    +0.000 OA
ENDBRANCH  25  32
BRANCH  29  33
ATOM     33  O   UNL     1       1.322   8.970  21.458  0.00  0.00    +0.000 OA
ATOM     34  C   UNL     1       0.675   9.256  22.700  0.00  0.00    +0.000 C 
ENDBRANCH  29  33
ENDBRANCH  24  28
ENDBRANCH  22  24
ENDBRANCH   1  22
TORSDOF 7
ENDMDL
MODEL 3
REMARK VINA RESULT:      -8.9      2.563      6.844
REMARK  Name = 
REMARK  11 active torsions:
REMARK  status: ('A' for Active; 'I' for Inactive)
REMARK    1  A    between atoms: C_1  and  O_2
REMARK    2  A    between atoms: O_2  and  C_3
REMARK    3  A    between atoms: C_6  and  C_7
REMARK    4  A    between atoms: C_7  and  N_8
REMARK    5  A    between atoms: N_8  and  C_9
REMARK    6  A    between atoms: C_11  and  C_12
REMARK    7  A    between atoms: C_15  and  C_16
REMARK    8  A    between atoms: N_18  and  C_19
REMARK    9  A    between atoms: N_18  and  C_20
REMARK   10  A    between atoms: C_30  and  O_31
REMARK   11  A    between atoms: O_31  and  C_32
REMARK                            x       y       z     vdW  Elec       q    Type
REMARK                         _______ _______ _______ _____ _____    ______ ____
ROOT
ATOM      1  C   UNL     1       3.976   3.687  18.333  0.00  0.00    +0.000 A 
ATOM      2  N   UNL     1       3.509   4.561  17.421  0.00  0.00    +0.000 NA
ATOM      3  C   UNL     1       2.356   5.172  17.748  0.00  0.00    +0.000 A 
ATOM      4  N   UNL     1       1.377   4.442  18.324  0.00  0.00    +0.000 NA
ATOM      5  C   UNL     1       1.800   3.662  19.306  0.00  0.00    +0.000 A 
ATOM      6  C   UNL     1       0.999   3.590  20.440  0.00  0.00    +0.000 A 
ATOM      7  C   UNL     1       1.468   3.089  21.648  0.00  0.00    +0.000 A 
ATOM      8  C   UNL     1       2.708   2.477  21.676  0.00  0.00    +0.000 A 
ATOM      9  C   UNL     1       3.522   2.499  20.541  0.00  0.00    +0.000 A 
ATOM     10  C   UNL     1       3.134   3.199  19.372  0.00  0.00    +0.000 A 
ENDROOT
BRANCH   3  11
ATOM     11  C   UNL     1       2.641   6.426  18.592  0.00  0.00    +0.000 A 
ATOM     12  C   UNL     1       2.099   6.544  19.886  0.00  0.00    +0.000 A 
ATOM     13  C   UNL     1       1.537   7.758  20.310  0.00  0.00    +0.000 A 
ATOM     14  C   UNL     1       1.478   8.847  19.438  0.00  0.00    +0.000 A 
ATOM     15  C   UNL     1       2.255   8.788  18.276  0.00  0.00    +0.000 A 
ATOM     16  C   UNL     1       2.953   7.628  17.932  0.00  0.00    +0.000 A 
BRANCH  14  17
ATOM     17  C   UNL     1       0.699  10.107  19.649  0.00  0.00    +0.000 C 
ATOM     18  O   UNL     1       1.127  10.868  20.523  0.00  0.00    +0.000 OA
ATOM     19  N   UNL     1      -0.441  10.441  18.911  0.00  0.00    +0.000 N 
ATOM     20  C   UNL     1      -0.973   9.747  17.747  0.00  0.00    +0.000 C 
ATOM     21  C   UNL     1      -1.240  11.560  19.387  0.00  0.00    +0.000 C 
ENDBRANCH  14  17
ENDBRANCH   3  11
BRANCH   1  22
ATOM     22  N   UNL     1       5.354   3.857  18.539  0.00  0.00    +0.000 N 
ATOM     23  H   UNL     1       5.361   4.797  18.933  0.00  0.00    +0.000 HD
BRANCH  22  24
ATOM     24  C   UNL     1       6.336   3.951  17.457  0.00  0.00    +0.000 C 
BRANCH  24  28
ATOM     25  C   UNL     1       8.238   7.763  18.380  0.00  0.00    +0.000 A 
ATOM     26  C   UNL     1       8.234   6.696  19.273  0.00  0.00    +0.000 A 
ATOM     27  C   UNL     1       7.662   5.477  18.921  0.00  0.00    +0.000 A 
ATOM     28  C   UNL     1       7.061   5.280  17.667  0.00  0.00    +0.000 A 
ATOM     29  C   UNL     1       7.084   6.350  16.751  0.00  0.00    +0.000 A 
ATOM     30  C   UNL     1       7.655   7.590  17.125  0.00  0.00    +0.000 A 
BRANCH  25  32
ATOM     31  C   UNL     1       8.623  10.126  18.206  0.00  0.00    +0.000 C 
ATOM     32  O   UNL     1       8.848   8.885  18.861  0.00  0.00    +0.000 OA
ENDBRANCH  25  32
BRANCH  29  33
ATOM     33  O   UNL     1       6.500   6.152  15.521  0.00  0.00    +0.000 OA
ATOM     34  C   UNL     1       5.168   6.656  15.387  0.00  0.00    +0.000 C 
ENDBRANCH  29  33
ENDBRANCH  24  28
ENDBRANCH  22  24
ENDBRANCH   1  22
TORSDOF 7
ENDMDL
MODEL 4
REMARK VINA RESULT:      -8.8      1.265      2.266
REMARK  Name = 
REMARK  11 active torsions:
REMARK  status: ('A' for Active; 'I' for Inactive)
REMARK    1  A    between atoms: C_1  and  O_2
REMARK    2  A    between atoms: O_2  and  C_3
REMARK    3  A    between atoms: C_6  and  C_7
REMARK    4  A    between atoms: C_7  and  N_8
REMARK    5  A    between atoms: N_8  and  C_9
REMARK    6  A    between atoms: C_11  and  C_12
REMARK    7  A    between atoms: C_15  and  C_16
REMARK    8  A    between atoms: N_18  and  C_19
REMARK    9  A    between atoms: N_18  and  C_20
REMARK   10  A    between atoms: C_30  and  O_31
REMARK   11  A    between atoms: O_31  and  C_32
REMARK                            x       y       z     vdW  Elec       q    Type
REMARK                         _______ _______ _______ _____ _____    ______ ____
ROOT
ATOM      1  C   UNL     1       2.596   5.971  19.823  0.00  0.00    +0.000 A 
ATOM      2  N   UNL     1       3.858   6.306  19.493  0.00  0.00    +0.000 NA
ATOM      3  C   UNL     1       4.631   5.289  19.071  0.00  0.00    +0.000 A 
ATOM      4  N   UNL     1       4.555   4.107  19.719  0.00  0.00    +0.000 NA
ATOM      5  C   UNL     1       3.315   3.702  19.948  0.00  0.00    +0.000 A 
ATOM      6  C   UNL     1       3.049   2.352  19.751  0.00  0.00    +0.000 A 
ATOM      7  C   UNL     1       1.755   1.861  19.634  0.00  0.00    +0.000 A 
ATOM      8  C   UNL     1       0.697   2.710  19.900  0.00  0.00    +0.000 A 
ATOM      9  C   UNL     1       0.933   4.066  20.138  0.00  0.00    +0.000 A 
ATOM     10  C   UNL     1       2.238   4.611  20.045  0.00  0.00    +0.000 A 
ENDROOT
BRANCH   3  11
ATOM     11  C   UNL     1       4.446   5.072  17.560  0.00  0.00    +0.000 A 
ATOM     12  C   UNL     1       4.690   3.806  16.994  0.00  0.00    +0.000 A 
ATOM     13  C   UNL     1       5.395   3.695  15.785  0.00  0.00    +0.000 A 
ATOM     14  C   UNL     1       5.892   4.838  15.155  0.00  0.00    +0.000 A 
ATOM     15  C   UNL     1       5.407   6.077  15.587  0.00  0.00    +0.000 A 
ATOM     16  C   UNL     1       4.568   6.177  16.699  0.00  0.00    +0.000 A 
BRANCH  14  17
ATOM     17  C   UNL     1       6.861   4.868  14.015  0.00  0.00    +0.000 C 
ATOM     18  O   UNL     1       7.903   5.503  14.207  0.00  0.00    +0.000 OA
ATOM     19  N   UNL     1       6.638   4.218  12.797  0.00  0.00    +0.000 N 
ATOM     20  C   UNL     1       5.556   3.300  12.472  0.00  0.00    +0.000 C 
ATOM     21  C   UNL     1       7.536   4.538  11.697  0.00  0.00    +0.000 C 
ENDBRANCH  14  17
ENDBRANCH   3  11
BRANCH   1  22
ATOM     22  N   UNL     1       1.673   6.884  19.289  0.00  0.00    +0.000 N 
ATOM     23  H   UNL     1       1.527   6.472  18.368  0.00  0.00    +0.000 HD
BRANCH  22  24
ATOM     24  C   UNL     1       1.992   8.278  18.974  0.00  0.00    +0.000 C 
BRANCH  24  28
ATOM     25  C   UNL     1      -0.053  10.351  22.218  0.00  0.00    +0.000 A 
ATOM     26  C   UNL     1       0.773   9.255  22.438  0.00  0.00    +0.000 A 
ATOM     27  C   UNL     1       1.451   8.652  21.382  0.00  0.00    +0.000 A 
ATOM     28  C   UNL     1       1.319   9.114  20.063  0.00  0.00    +0.000 A 
ATOM     29  C   UNL     1       0.501  10.239  19.839  0.00  0.00    +0.000 A 
ATOM     30  C   UNL     1      -0.195  10.835  20.917  0.00  0.00    +0.000 A 
BRANCH  25  32
ATOM     31  C   UNL     1      -1.912  11.462  23.256  0.00  0.00    +0.000 C 
ATOM     32  O   UNL     1      -0.636  10.842  23.350  0.00  0.00    +0.000 OA
ENDBRANCH  25  32
BRANCH  29  33
ATOM     33  O   UNL     1       0.379  10.694  18.545  0.00  0.00    +0.000 OA
ATOM     34  C   UNL     1      -0.717  11.581  18.308  0.00  0.00    +0.000 C 
ENDBRANCH  29  33
ENDBRANCH  24  28
ENDBRANCH  22  24
ENDBRANCH   1  22
TORSDOF 7
ENDMDL
MODEL 5
REMARK VINA RESULT:      -8.8      2.483      7.056
REMARK  Name = 
REMARK  11 active torsions:
REMARK  status: ('A' for Active; 'I' for Inactive)
REMARK    1  A    between atoms: C_1  and  O_2
REMARK    2  A    between atoms: O_2  and  C_3
REMARK    3  A    between atoms: C_6  and  C_7
REMARK    4  A    between atoms: C_7  and  N_8
REMARK    5  A    between atoms: N_8  and  C_9
REMARK    6  A    between atoms: C_11  and  C_12
REMARK    7  A    between atoms: C_15  and  C_16
REMARK    8  A    between atoms: N_18  and  C_19
REMARK    9  A    between atoms: N_18  and  C_20
REMARK   10  A    between atoms: C_30  and  O_31
REMARK   11  A    between atoms: O_31  and  C_32
REMARK                            x       y       z     vdW  Elec       q    Type
REMARK                         _______ _______ _______ _____ _____    ______ ____
ROOT
ATOM      1  C   UNL     1       3.991   3.594  18.313  0.00  0.00    +0.000 A 
ATOM      2  N   UNL     1       3.517   4.474  17.410  0.00  0.00    +0.000 NA
ATOM      3  C   UNL     1       2.364   5.079  17.748  0.00  0.00    +0.000 A 
ATOM      4  N   UNL     1       1.390   4.341  18.323  0.00  0.00    +0.000 NA
ATOM      5  C   UNL     1       1.821   3.555  19.298  0.00  0.00    +0.000 A 
ATOM      6  C   UNL     1       1.026   3.473  20.435  0.00  0.00    +0.000 A 
ATOM      7  C   UNL     1       1.502   2.964  21.636  0.00  0.00    +0.000 A 
ATOM      8  C   UNL     1       2.743   2.355  21.654  0.00  0.00    +0.000 A 
ATOM      9  C   UNL     1       3.552   2.388  20.515  0.00  0.00    +0.000 A 
ATOM     10  C   UNL     1       3.156   3.096  19.353  0.00  0.00    +0.000 A 
ENDROOT
BRANCH   3  11
ATOM     11  C   UNL     1       2.649   6.327  18.600  0.00  0.00    +0.000 A 
ATOM     12  C   UNL     1       2.276   6.356  19.957  0.00  0.00    +0.000 A 
ATOM     13  C   UNL     1       1.673   7.501  20.501  0.00  0.00    +0.000 A 
ATOM     14  C   UNL     1       1.406   8.606  19.690  0.00  0.00    +0.000 A 
ATOM     15  C   UNL     1       2.024   8.653  18.437  0.00  0.00    +0.000 A 
ATOM     16  C   UNL     1       2.767   7.572  17.956  0.00  0.00    +0.000 A 
BRANCH  14  17
ATOM     17  C   UNL     1       0.557   9.783  20.053  0.00  0.00    +0.000 C 
ATOM     18  O   UNL     1       0.085  10.424  19.107  0.00  0.00    +0.000 OA
ATOM     19  N   UNL     1       0.282  10.158  21.372  0.00  0.00    +0.000 N 
ATOM     20  C   UNL     1       0.614   9.425  22.584  0.00  0.00    +0.000 C 
ATOM     21  C   UNL     1      -0.339  11.458  21.581  0.00  0.00    +0.000 C 
ENDBRANCH  14  17
ENDBRANCH   3  11
BRANCH   1  22
ATOM     22  N   UNL     1       5.369   3.767  18.514  0.00  0.00    +0.000 N 
ATOM     23  H   UNL     1       5.376   4.700  18.923  0.00  0.00    +0.000 HD
BRANCH  22  24
ATOM     24  C   UNL     1       6.345   3.882  17.428  0.00  0.00    +0.000 C 
BRANCH  24  28
ATOM     25  C   UNL     1       8.197   7.714  18.366  0.00  0.00    +0.000 A 
ATOM     26  C   UNL     1       8.225   6.637  19.246  0.00  0.00    +0.000 A 
ATOM     27  C   UNL     1       7.669   5.413  18.888  0.00  0.00    +0.000 A 
ATOM     28  C   UNL     1       7.051   5.221  17.642  0.00  0.00    +0.000 A 
ATOM     29  C   UNL     1       7.041   6.302  16.739  0.00  0.00    +0.000 A 
ATOM     30  C   UNL     1       7.597   7.546  17.118  0.00  0.00    +0.000 A 
BRANCH  25  32
ATOM     31  C   UNL     1       8.598  10.074  18.171  0.00  0.00    +0.000 C 
ATOM     32  O   UNL     1       8.796   8.841  18.850  0.00  0.00    +0.000 OA
ENDBRANCH  25  32
BRANCH  29  33
ATOM     33  O   UNL     1       6.440   6.108  15.515  0.00  0.00    +0.000 OA
ATOM     34  C   UNL     1       5.116   6.634  15.394  0.00  0.00    +0.000 C 
ENDBRANCH  29  33
ENDBRANCH  24  28
ENDBRANCH  22  24
ENDBRANCH   1  22
TORSDOF 7
ENDMDL
MODEL 6
REMARK VINA RESULT:      -8.7      2.766      6.759
REMARK  Name = 
REMARK  11 active torsions:
REMARK  status: ('A' for Active; 'I' for Inactive)
REMARK    1  A    between atoms: C_1  and  O_2
REMARK    2  A    between atoms: O_2  and  C_3
REMARK    3  A    between atoms: C_6  and  C_7
REMARK    4  A    between atoms: C_7  and  N_8
REMARK    5  A    between atoms: N_8  and  C_9
REMARK    6  A    between atoms: C_11  and  C_12
REMARK    7  A    between atoms: C_15  and  C_16
REMARK    8  A    between atoms: N_18  and  C_19
REMARK    9  A    between atoms: N_18  and  C_20
REMARK   10  A    between atoms: C_30  and  O_31
REMARK   11  A    between atoms: O_31  and  C_32
REMARK                            x       y       z     vdW  Elec       q    Type
REMARK                         _______ _______ _______ _____ _____    ______ ____
ROOT
ATOM      1  C   UNL     1       3.980   3.730  18.192  0.00  0.00    +0.000 A 
ATOM      2  N   UNL     1       3.478   4.610  17.305  0.00  0.00    +0.000 NA
ATOM      3  C   UNL     1       2.338   5.216  17.679  0.00  0.00    +0.000 A 
ATOM      4  N   UNL     1       1.382   4.480  18.284  0.00  0.00    +0.000 NA
ATOM      5  C   UNL     1       1.842   3.693  19.245  0.00  0.00    +0.000 A 
ATOM      6  C   UNL     1       1.083   3.611  20.406  0.00  0.00    +0.000 A 
ATOM      7  C   UNL     1       1.596   3.100  21.592  0.00  0.00    +0.000 A 
ATOM      8  C   UNL     1       2.837   2.491  21.570  0.00  0.00    +0.000 A 
ATOM      9  C   UNL     1       3.610   2.524  20.406  0.00  0.00    +0.000 A 
ATOM     10  C   UNL     1       3.178   3.232  19.257  0.00  0.00    +0.000 A 
ENDROOT
BRANCH   3  11
ATOM     11  C   UNL     1       2.651   6.464  18.522  0.00  0.00    +0.000 A 
ATOM     12  C   UNL     1       2.183   6.557  19.847  0.00  0.00    +0.000 A 
ATOM     13  C   UNL     1       1.627   7.757  20.318  0.00  0.00    +0.000 A 
ATOM     14  C   UNL     1       1.501   8.855  19.466  0.00  0.00    +0.000 A 
ATOM     15  C   UNL     1       2.212   8.824  18.261  0.00  0.00    +0.000 A 
ATOM     16  C   UNL     1       2.906   7.679  17.862  0.00  0.00    +0.000 A 
BRANCH  14  17
ATOM     17  C   UNL     1       0.717  10.100  19.738  0.00  0.00    +0.000 C 
ATOM     18  O   UNL     1       1.125  10.805  20.667  0.00  0.00    +0.000 OA
ATOM     19  N   UNL     1      -0.408  10.479  18.998  0.00  0.00    +0.000 N 
ATOM     20  C   UNL     1      -0.913   9.860  17.782  0.00  0.00    +0.000 C 
ATOM     21  C   UNL     1      -1.218  11.567  19.526  0.00  0.00    +0.000 C 
ENDBRANCH  14  17
ENDBRANCH   3  11
BRANCH   1  22
ATOM     22  N   UNL     1       5.364   3.901  18.349  0.00  0.00    +0.000 N 
ATOM     23  H   UNL     1       5.376   4.729  18.944  0.00  0.00    +0.000 HD
BRANCH  22  24
ATOM     24  C   UNL     1       6.270   4.272  17.260  0.00  0.00    +0.000 C 
BRANCH  24  28
ATOM     25  C   UNL     1       7.805   8.302  17.896  0.00  0.00    +0.000 A 
ATOM     26  C   UNL     1       6.808   8.022  16.967  0.00  0.00    +0.000 A 
ATOM     27  C   UNL     1       6.307   6.730  16.831  0.00  0.00    +0.000 A 
ATOM     28  C   UNL     1       6.791   5.667  17.608  0.00  0.00    +0.000 A 
ATOM     29  C   UNL     1       7.784   5.951  18.566  0.00  0.00    +0.000 A 
ATOM     30  C   UNL     1       8.296   7.264  18.687  0.00  0.00    +0.000 A 
BRANCH  25  32
ATOM     31  C   UNL     1       9.049  10.059  18.959  0.00  0.00    +0.000 C 
ATOM     32  O   UNL     1       8.181   9.613  17.925  0.00  0.00    +0.000 OA
ENDBRANCH  25  32
BRANCH  29  33
ATOM     33  O   UNL     1       8.252   4.906  19.332  0.00  0.00    +0.000 OA
ATOM     34  C   UNL     1       8.476   5.210  20.711  0.00  0.00    +0.000 C 
ENDBRANCH  29  33
ENDBRANCH  24  28
ENDBRANCH  22  24
ENDBRANCH   1  22
TORSDOF 7
ENDMDL
MODEL 7
REMARK VINA RESULT:      -8.5      1.175      2.152
REMARK  Name = 
REMARK  11 active torsions:
REMARK  status: ('A' for Active; 'I' for Inactive)
REMARK    1  A    between atoms: C_1  and  O_2
REMARK    2  A    between atoms: O_2  and  C_3
REMARK    3  A    between atoms: C_6  and  C_7
REMARK    4  A    between atoms: C_7  and  N_8
REMARK    5  A    between atoms: N_8  and  C_9
REMARK    6  A    between atoms: C_11  and  C_12
REMARK    7  A    between atoms: C_15  and  C_16
REMARK    8  A    between atoms: N_18  and  C_19
REMARK    9  A    between atoms: N_18  and  C_20
REMARK   10  A    between atoms: C_30  and  O_31
REMARK   11  A    between atoms: O_31  and  C_32
REMARK                            x       y       z     vdW  Elec       q    Type
REMARK                         _______ _______ _______ _____ _____    ______ ____
ROOT
ATOM      1  C   UNL     1       2.703   6.146  19.755  0.00  0.00    +0.000 A 
ATOM      2  N   UNL     1       3.971   6.430  19.402  0.00  0.00    +0.000 NA
ATOM      3  C   UNL     1       4.710   5.375  19.015  0.00  0.00    +0.000 A 
ATOM      4  N   UNL     1       4.606   4.222  19.710  0.00  0.00    +0.000 NA
ATOM      5  C   UNL     1       3.357   3.863  19.963  0.00  0.00    +0.000 A 
ATOM      6  C   UNL     1       3.050   2.515  19.822  0.00  0.00    +0.000 A 
ATOM      7  C   UNL     1       1.742   2.058  19.734  0.00  0.00    +0.000 A 
ATOM      8  C   UNL     1       0.711   2.947  19.975  0.00  0.00    +0.000 A 
ATOM      9  C   UNL     1       0.988   4.304  20.158  0.00  0.00    +0.000 A 
ATOM     10  C   UNL     1       2.307   4.807  20.034  0.00  0.00    +0.000 A 
ENDROOT
BRANCH   3  11
ATOM     11  C   UNL     1       4.506   5.105  17.515  0.00  0.00    +0.000 A 
ATOM     12  C   UNL     1       4.763   3.825  16.987  0.00  0.00    +0.000 A 
ATOM     13  C   UNL     1       5.451   3.687  15.772  0.00  0.00    +0.000 A 
ATOM     14  C   UNL     1       5.917   4.816  15.096  0.00  0.00    +0.000 A 
ATOM     15  C   UNL     1       5.418   6.060  15.494  0.00  0.00    +0.000 A 
ATOM     16  C   UNL     1       4.594   6.182  16.616  0.00  0.00    +0.000 A 
BRANCH  14  17
ATOM     17  C   UNL     1       6.868   4.825  13.940  0.00  0.00    +0.000 C 
ATOM     18  O   UNL     1       7.915   5.461  14.105  0.00  0.00    +0.000 OA
ATOM     19  N   UNL     1       6.624   4.156  12.736  0.00  0.00    +0.000 N 
ATOM     20  C   UNL     1       5.535   3.237  12.444  0.00  0.00    +0.000 C 
ATOM     21  C   UNL     1       7.504   4.456  11.617  0.00  0.00    +0.000 C 
ENDBRANCH  14  17
ENDBRANCH   3  11
BRANCH   1  22
ATOM     22  N   UNL     1       1.802   7.063  19.193  0.00  0.00    +0.000 N 
ATOM     23  H   UNL     1       1.505   6.541  18.370  0.00  0.00    +0.000 HD
BRANCH  22  24
ATOM     24  C   UNL     1       2.198   8.357  18.631  0.00  0.00    +0.000 C 
BRANCH  24  28
ATOM     25  C   UNL     1      -0.409  11.131  20.755  0.00  0.00    +0.000 A 
ATOM     26  C   UNL     1      -0.350   9.776  21.065  0.00  0.00    +0.000 A 
ATOM     27  C   UNL     1       0.534   8.932  20.400  0.00  0.00    +0.000 A 
ATOM     28  C   UNL     1       1.385   9.406  19.389  0.00  0.00    +0.000 A 
ATOM     29  C   UNL     1       1.345  10.782  19.087  0.00  0.00    +0.000 A 
ATOM     30  C   UNL     1       0.432  11.628  19.760  0.00  0.00    +0.000 A 
BRANCH  25  32
ATOM     31  C   UNL     1      -1.230  11.769  22.919  0.00  0.00    +0.000 C 
ATOM     32  O   UNL     1      -1.311  11.831  21.501  0.00  0.00    +0.000 OA
ENDBRANCH  25  32
BRANCH  29  33
ATOM     33  O   UNL     1       2.186  11.244  18.100  0.00  0.00    +0.000 OA
ATOM     34  C   UNL     1       2.468  12.646  18.143  0.00  0.00    +0.000 C 
ENDBRANCH  29  33
ENDBRANCH  24  28
ENDBRANCH  22  24
ENDBRANCH   1  22
TORSDOF 7
ENDMDL
MODEL 8
REMARK VINA RESULT:      -8.0      1.209      1.861
REMARK  Name = 
REMARK  11 active torsions:
REMARK  status: ('A' for Active; 'I' for Inactive)
REMARK    1  A    between atoms: C_1  and  O_2
REMARK    2  A    between atoms: O_2  and  C_3
REMARK    3  A    between atoms: C_6  and  C_7
REMARK    4  A    between atoms: C_7  and  N_8
REMARK    5  A    between atoms: N_8  and  C_9
REMARK    6  A    between atoms: C_11  and  C_12
REMARK    7  A    between atoms: C_15  and  C_16
REMARK    8  A    between atoms: N_18  and  C_19
REMARK    9  A    between atoms: N_18  and  C_20
REMARK   10  A    between atoms: C_30  and  O_31
REMARK   11  A    between atoms: O_31  and  C_32
REMARK                            x       y       z     vdW  Elec       q    Type
REMARK                         _______ _______ _______ _____ _____    ______ ____
ROOT
ATOM      1  C   UNL     1       3.047   5.472  20.226  0.00  0.00    +0.000 A 
ATOM      2  N   UNL     1       4.354   5.565  19.915  0.00  0.00    +0.000 NA
ATOM      3  C   UNL     1       4.848   4.539  19.199  0.00  0.00    +0.000 A 
ATOM      4  N   UNL     1       4.475   3.283  19.526  0.00  0.00    +0.000 NA
ATOM      5  C   UNL     1       3.173   3.146  19.719  0.00  0.00    +0.000 A 
ATOM      6  C   UNL     1       2.577   2.003  19.200  0.00  0.00    +0.000 A 
ATOM      7  C   UNL     1       1.202   1.890  19.041  0.00  0.00    +0.000 A 
ATOM      8  C   UNL     1       0.389   2.870  19.581  0.00  0.00    +0.000 A 
ATOM      9  C   UNL     1       0.957   4.015  20.144  0.00  0.00    +0.000 A 
ATOM     10  C   UNL     1       2.358   4.232  20.113  0.00  0.00    +0.000 A 
ENDROOT
BRANCH   3  11
ATOM     11  C   UNL     1       4.622   4.780  17.698  0.00  0.00    +0.000 A 
ATOM     12  C   UNL     1       4.520   3.688  16.814  0.00  0.00    +0.000 A 
ATOM     13  C   UNL     1       5.178   3.717  15.575  0.00  0.00    +0.000 A 
ATOM     14  C   UNL     1       5.967   4.815  15.224  0.00  0.00    +0.000 A 
ATOM     15  C   UNL     1       5.829   5.980  15.985  0.00  0.00    +0.000 A 
ATOM     16  C   UNL     1       5.040   6.001  17.138  0.00  0.00    +0.000 A 
BRANCH  14  17
ATOM     17  C   UNL     1       6.916   4.888  14.069  0.00  0.00    +0.000 C 
ATOM     18  O   UNL     1       7.946   5.544  14.255  0.00  0.00    +0.000 OA
ATOM     19  N   UNL     1       6.688   4.255  12.843  0.00  0.00    +0.000 N 
ATOM     20  C   UNL     1       5.623   3.317  12.519  0.00  0.00    +0.000 C 
ATOM     21  C   UNL     1       7.559   4.615  11.734  0.00  0.00    +0.000 C 
ENDBRANCH  14  17
ENDBRANCH   3  11
BRANCH   1  22
ATOM     22  N   UNL     1       2.384   6.689  20.002  0.00  0.00    +0.000 N 
ATOM     23  H   UNL     1       3.170   7.271  19.716  0.00  0.00    +0.000 HD
BRANCH  22  24
ATOM     24  C   UNL     1       1.759   7.486  21.060  0.00  0.00    +0.000 C 
BRANCH  24  28
ATOM     25  C   UNL     1      -0.390  10.803  19.222  0.00  0.00    +0.000 A 
ATOM     26  C   UNL     1      -0.439  10.548  20.589  0.00  0.00    +0.000 A 
ATOM     27  C   UNL     1       0.304   9.511  21.146  0.00  0.00    +0.000 A 
ATOM     28  C   UNL     1       1.114   8.680  20.357  0.00  0.00    +0.000 A 
ATOM     29  C   UNL     1       1.185   8.948  18.976  0.00  0.00    +0.000 A 
ATOM     30  C   UNL     1       0.414   9.995  18.418  0.00  0.00    +0.000 A 
BRANCH  25  32
ATOM     31  C   UNL     1      -2.185  11.646  17.868  0.00  0.00    +0.000 C 
ATOM     32  O   UNL     1      -1.158  11.860  18.828  0.00  0.00    +0.000 OA
ENDBRANCH  25  32
BRANCH  29  33
ATOM     33  O   UNL     1       1.985   8.134  18.206  0.00  0.00    +0.000 OA
ATOM     34  C   UNL     1       2.998   8.807  17.453  0.00  0.00    +0.000 C 
ENDBRANCH  29  33
ENDBRANCH  24  28
ENDBRANCH  22  24
ENDBRANCH   1  22
TORSDOF 7
ENDMDL
MODEL 9
REMARK VINA RESULT:      -7.9      1.043      1.770
REMARK  Name = 
REMARK  11 active torsions:
REMARK  status: ('A' for Active; 'I' for Inactive)
REMARK    1  A    between atoms: C_1  and  O_2
REMARK    2  A    between atoms: O_2  and  C_3
REMARK    3  A    between atoms: C_6  and  C_7
REMARK    4  A    between atoms: C_7  and  N_8
REMARK    5  A    between atoms: N_8  and  C_9
REMARK    6  A    between atoms: C_11  and  C_12
REMARK    7  A    between atoms: C_15  and  C_16
REMARK    8  A    between atoms: N_18  and  C_19
REMARK    9  A    between atoms: N_18  and  C_20
REMARK   10  A    between atoms: C_30  and  O_31
REMARK   11  A    between atoms: O_31  and  C_32
REMARK                            x       y       z     vdW  Elec       q    Type
REMARK                         _______ _______ _______ _____ _____    ______ ____
ROOT
ATOM      1  C   UNL     1       2.984   5.279  20.300  0.00  0.00    +0.000 A 
ATOM      2  N   UNL     1       4.289   5.492  20.046  0.00  0.00    +0.000 NA
ATOM      3  C   UNL     1       4.875   4.581  19.248  0.00  0.00    +0.000 A 
ATOM      4  N   UNL     1       4.583   3.276  19.432  0.00  0.00    +0.000 NA
ATOM      5  C   UNL     1       3.288   3.033  19.564  0.00  0.00    +0.000 A 
ATOM      6  C   UNL     1       2.790   1.912  18.910  0.00  0.00    +0.000 A 
ATOM      7  C   UNL     1       1.432   1.724  18.692  0.00  0.00    +0.000 A 
ATOM      8  C   UNL     1       0.537   2.585  19.300  0.00  0.00    +0.000 A 
ATOM      9  C   UNL     1       1.006   3.702  19.996  0.00  0.00    +0.000 A 
ATOM     10  C   UNL     1       2.388   4.014  20.038  0.00  0.00    +0.000 A 
ENDROOT
BRANCH   3  11
ATOM     11  C   UNL     1       4.675   4.962  17.772  0.00  0.00    +0.000 A 
ATOM     12  C   UNL     1       4.391   3.965  16.818  0.00  0.00    +0.000 A 
ATOM     13  C   UNL     1       5.031   3.978  15.570  0.00  0.00    +0.000 A 
ATOM     14  C   UNL     1       5.982   4.958  15.278  0.00  0.00    +0.000 A 
ATOM     15  C   UNL     1       6.042   6.073  16.120  0.00  0.00    +0.000 A 
ATOM     16  C   UNL     1       5.278   6.137  17.289  0.00  0.00    +0.000 A 
BRANCH  14  17
ATOM     17  C   UNL     1       6.919   4.961  14.111  0.00  0.00    +0.000 C 
ATOM     18  O   UNL     1       7.974   5.585  14.265  0.00  0.00    +0.000 OA
ATOM     19  N   UNL     1       6.653   4.298  12.908  0.00  0.00    +0.000 N 
ATOM     20  C   UNL     1       5.552   3.391  12.626  0.00  0.00    +0.000 C 
ATOM     21  C   UNL     1       7.523   4.593  11.779  0.00  0.00    +0.000 C 
ENDBRANCH  14  17
ENDBRANCH   3  11
BRANCH   1  22
ATOM     22  N   UNL     1       2.244   6.466  20.178  0.00  0.00    +0.000 N 
ATOM     23  H   UNL     1       2.968   7.151  20.389  0.00  0.00    +0.000 HD
BRANCH  22  24
ATOM     24  C   UNL     1       1.160   6.849  21.085  0.00  0.00    +0.000 C 
BRANCH  24  28
ATOM     25  C   UNL     1       0.410  11.133  20.796  0.00  0.00    +0.000 A 
ATOM     26  C   UNL     1       0.059  10.389  21.917  0.00  0.00    +0.000 A 
ATOM     27  C   UNL     1       0.364   9.033  21.994  0.00  0.00    +0.000 A 
ATOM     28  C   UNL     1       1.018   8.365  20.947  0.00  0.00    +0.000 A 
ATOM     29  C   UNL     1       1.396   9.120  19.819  0.00  0.00    +0.000 A 
ATOM     30  C   UNL     1       1.068  10.494  19.745  0.00  0.00    +0.000 A 
BRANCH  25  32
ATOM     31  C   UNL     1       1.079  13.425  21.050  0.00  0.00    +0.000 C 
ATOM     32  O   UNL     1       0.060  12.450  20.874  0.00  0.00    +0.000 OA
ENDBRANCH  25  32
BRANCH  29  33
ATOM     33  O   UNL     1       2.043   8.463  18.797  0.00  0.00    +0.000 OA
ATOM     34  C   UNL     1       1.834   9.006  17.491  0.00  0.00    +0.000 C 
ENDBRANCH  29  33
ENDBRANCH  24  28
ENDBRANCH  22  24
ENDBRANCH   1  22
TORSDOF 7
ENDMDL
