MODEL 1
REMARK VINA RESULT:      -7.4      0.000      0.000
REMARK  Name = 
REMARK  7 active torsions:
REMARK  status: ('A' for Active; 'I' for Inactive)
REMARK    1  A    between atoms: N_13  and  C_14
REMARK    2  A    between atoms: C_14  and  C_15
REMARK    3  A    between atoms: C_15  and  C_16
REMARK    4  A    between atoms: C_16  and  C_17
REMARK    5  A    between atoms: C_17  and  C_18
REMARK    6  A    between atoms: C_18  and  C_19
REMARK    7  A    between atoms: C_19  and  N_20
REMARK                            x       y       z     vdW  Elec       q    Type
REMARK                         _______ _______ _______ _____ _____    ______ ____
ROOT
ATOM      1  C   UNL     1       1.538   2.031  18.662  0.00  0.00    +0.000 A 
ATOM      2  C   UNL     1       1.028   2.898  19.622  0.00  0.00    +0.000 A 
ATOM      3  C   UNL     1       1.488   4.215  19.716  0.00  0.00    +0.000 A 
ATOM      4  C   UNL     1       2.482   4.637  18.817  0.00  0.00    +0.000 A 
ATOM      5  C   UNL     1       3.007   3.784  17.844  0.00  0.00    +0.000 A 
ATOM      6  C   UNL     1       2.524   2.461  17.770  0.00  0.00    +0.000 A 
ATOM      7  C   UNL     1       3.983   4.521  17.100  0.00  0.00    +0.000 A 
ATOM      8  C   UNL     1       4.826   4.201  16.016  0.00  0.00    +0.000 A 
ATOM      9  C   UNL     1       5.691   5.171  15.499  0.00  0.00    +0.000 A 
ATOM     10  C   UNL     1       5.724   6.450  16.044  0.00  0.00    +0.000 A 
ATOM     11  C   UNL     1       4.898   6.793  17.118  0.00  0.00    +0.000 A 
ATOM     12  C   UNL     1       4.035   5.809  17.633  0.00  0.00    +0.000 A 
ATOM     13  N   UNL     1       3.120   5.852  18.668  0.00  0.00    +0.000 N 
ENDROOT
BRANCH  13  14
ATOM     14  C   UNL     1       2.871   7.029  19.486  0.00  0.00    +0.000 C 
BRANCH  14  15
ATOM     15  C   UNL     1       1.723   7.871  18.930  0.00  0.00    +0.000 C 
BRANCH  15  16
ATOM     16  C   UNL     1       2.155   8.803  17.798  0.00  0.00    +0.000 C 
BRANCH  16  17
ATOM     17  C   UNL     1       1.888  10.276  18.106  0.00  0.00    +0.000 C 
BRANCH  17  18
ATOM     18  C   UNL     1       0.645  10.441  18.974  0.00  0.00    +0.000 C 
BRANCH  18  19
ATOM     19  C   UNL     1       0.887  11.455  20.089  0.00  0.00    +0.000 C 
BRANCH  19  20
ATOM     20  N   UNL     1       0.375  10.977  21.353  0.00  0.00    +0.000 N 
ATOM     21  C   UNL     1      -0.682  11.459  22.057  0.00  0.00    +0.000 A 
ATOM     22  N   UNL     1      -0.869  10.719  23.125  0.00  0.00    +0.000 NA
ATOM     23  C   UNL     1       0.118   9.778  23.021  0.00  0.00    +0.000 A 
ATOM     24  N   UNL     1       0.907   9.898  21.952  0.00  0.00    +0.000 NA
ENDBRANCH  19  20
ENDBRANCH  18  19
ENDBRANCH  17  18
ENDBRANCH  16  17
ENDBRANCH  15  16
ENDBRANCH  14  15
ENDBRANCH  13  14
TORSDOF 7
ENDMDL
MODEL 2
REMARK VINA RESULT:      -7.2      0.794      3.435
REMARK  Name = 
REMARK  7 active torsions:
REMARK  status: ('A' for Active; 'I' for Inactive)
REMARK    1  A    between atoms: N_13  and  C_14
REMARK    2  A    between atoms: C_14  and  C_15
REMARK    3  A    between atoms: C_15  and  C_16
REMARK    4  A    between atoms: C_16  and  C_17
REMARK    5  A    between atoms: C_17  and  C_18
REMARK    6  A    between atoms: C_18  and  C_19
REMARK    7  A    between atoms: C_19  and  N_20
REMARK                            x       y       z     vdW  Elec       q    Type
REMARK                         _______ _______ _______ _____ _____    ______ ____
ROOT
ATOM      1  C   UNL     1       6.225   4.808  15.403  0.00  0.00    +0.000 A 
ATOM      2  C   UNL     1       6.111   6.161  15.705  0.00  0.00    +0.000 A 
ATOM      3  C   UNL     1       5.124   6.619  16.582  0.00  0.00    +0.000 A 
ATOM      4  C   UNL     1       4.247   5.677  17.147  0.00  0.00    +0.000 A 
ATOM      5  C   UNL     1       4.343   4.315  16.859  0.00  0.00    +0.000 A 
ATOM      6  C   UNL     1       5.350   3.878  15.972  0.00  0.00    +0.000 A 
ATOM      7  C   UNL     1       3.318   3.641  17.595  0.00  0.00    +0.000 A 
ATOM      8  C   UNL     1       2.929   2.290  17.709  0.00  0.00    +0.000 A 
ATOM      9  C   UNL     1       1.855   1.944  18.537  0.00  0.00    +0.000 A 
ATOM     10  C   UNL     1       1.170   2.921  19.249  0.00  0.00    +0.000 A 
ATOM     11  C   UNL     1       1.537   4.267  19.155  0.00  0.00    +0.000 A 
ATOM     12  C   UNL     1       2.614   4.605  18.318  0.00  0.00    +0.000 A 
ATOM     13  N   UNL     1       3.195   5.825  18.028  0.00  0.00    +0.000 N 
ENDROOT
BRANCH  13  14
ATOM     14  C   UNL     1       2.748   7.092  18.586  0.00  0.00    +0.000 C 
BRANCH  14  15
ATOM     15  C   UNL     1       2.002   7.935  17.552  0.00  0.00    +0.000 C 
BRANCH  15  16
ATOM     16  C   UNL     1       1.833   9.393  17.975  0.00  0.00    +0.000 C 
BRANCH  16  17
ATOM     17  C   UNL     1       0.391   9.887  17.844  0.00  0.00    +0.000 C 
BRANCH  17  18
ATOM     18  C   UNL     1      -0.118  10.457  19.164  0.00  0.00    +0.000 C 
BRANCH  18  19
ATOM     19  C   UNL     1       0.717   9.953  20.337  0.00  0.00    +0.000 C 
BRANCH  19  20
ATOM     20  N   UNL     1       0.065  10.218  21.599  0.00  0.00    +0.000 N 
ATOM     21  C   UNL     1       0.402   9.740  22.825  0.00  0.00    +0.000 A 
ATOM     22  N   UNL     1      -0.396  10.259  23.729  0.00  0.00    +0.000 NA
ATOM     23  C   UNL     1      -1.216  11.065  22.988  0.00  0.00    +0.000 A 
ATOM     24  N   UNL     1      -0.972  11.070  21.676  0.00  0.00    +0.000 NA
ENDBRANCH  19  20
ENDBRANCH  18  19
ENDBRANCH  17  18
ENDBRANCH  16  17
ENDBRANCH  15  16
ENDBRANCH  14  15
ENDBRANCH  13  14
TORSDOF 7
ENDMDL
MODEL 3
REMARK VINA RESULT:      -7.2      1.003      3.482
REMARK  Name = 
REMARK  7 active torsions:
REMARK  status: ('A' for Active; 'I' for Inactive)
REMARK    1  A    between atoms: N_13  and  C_14
REMARK    2  A    between atoms: C_14  and  C_15
REMARK    3  A    between atoms: C_15  and  C_16
REMARK    4  A    between atoms: C_16  and  C_17
REMARK    5  A    between atoms: C_17  and  C_18
REMARK    6  A    between atoms: C_18  and  C_19
REMARK    7  A    between atoms: C_19  and  N_20
REMARK                            x       y       z     vdW  Elec       q    Type
REMARK                         _______ _______ _______ _____ _____    ______ ____
ROOT
ATOM      1  C   UNL     1       5.752   4.808  15.646  0.00  0.00    +0.000 A 
ATOM      2  C   UNL     1       5.685   6.168  15.927  0.00  0.00    +0.000 A 
ATOM      3  C   UNL     1       4.768   6.665  16.857  0.00  0.00    +0.000 A 
ATOM      4  C   UNL     1       3.913   5.753  17.498  0.00  0.00    +0.000 A 
ATOM      5  C   UNL     1       3.963   4.383  17.234  0.00  0.00    +0.000 A 
ATOM      6  C   UNL     1       4.900   3.908  16.291  0.00  0.00    +0.000 A 
ATOM      7  C   UNL     1       2.976   3.745  18.050  0.00  0.00    +0.000 A 
ATOM      8  C   UNL     1       2.568   2.406  18.218  0.00  0.00    +0.000 A 
ATOM      9  C   UNL     1       1.546   2.099  19.122  0.00  0.00    +0.000 A 
ATOM     10  C   UNL     1       0.929   3.104  19.858  0.00  0.00    +0.000 A 
ATOM     11  C   UNL     1       1.315   4.439  19.711  0.00  0.00    +0.000 A 
ATOM     12  C   UNL     1       2.341   4.738  18.797  0.00  0.00    +0.000 A 
ATOM     13  N   UNL     1       2.925   5.940  18.444  0.00  0.00    +0.000 N 
ENDROOT
BRANCH  13  14
ATOM     14  C   UNL     1       2.541   7.226  19.004  0.00  0.00    +0.000 C 
BRANCH  14  15
ATOM     15  C   UNL     1       1.636   8.010  18.054  0.00  0.00    +0.000 C 
BRANCH  15  16
ATOM     16  C   UNL     1       2.132   9.430  17.787  0.00  0.00    +0.000 C 
BRANCH  16  17
ATOM     17  C   UNL     1       1.362  10.488  18.578  0.00  0.00    +0.000 C 
BRANCH  17  18
ATOM     18  C   UNL     1      -0.057  10.021  18.886  0.00  0.00    +0.000 C 
BRANCH  18  19
ATOM     19  C   UNL     1      -0.279   9.901  20.391  0.00  0.00    +0.000 C 
BRANCH  19  20
ATOM     20  N   UNL     1      -0.631  11.176  20.974  0.00  0.00    +0.000 N 
ATOM     21  C   UNL     1      -1.620  12.021  20.586  0.00  0.00    +0.000 A 
ATOM     22  N   UNL     1      -1.661  13.048  21.403  0.00  0.00    +0.000 NA
ATOM     23  C   UNL     1      -0.658  12.773  22.290  0.00  0.00    +0.000 A 
ATOM     24  N   UNL     1       0.003  11.636  22.066  0.00  0.00    +0.000 NA
ENDBRANCH  19  20
ENDBRANCH  18  19
ENDBRANCH  17  18
ENDBRANCH  16  17
ENDBRANCH  15  16
ENDBRANCH  14  15
ENDBRANCH  13  14
TORSDOF 7
ENDMDL
MODEL 4
REMARK VINA RESULT:      -7.2      3.885      6.677
REMARK  Name = 
REMARK  7 active torsions:
REMARK  status: ('A' for Active; 'I' for Inactive)
REMARK    1  A    between atoms: N_13  and  C_14
REMARK    2  A    between atoms: C_14  and  C_15
REMARK    3  A    between atoms: C_15  and  C_16
REMARK    4  A    between atoms: C_16  and  C_17
REMARK    5  A    between atoms: C_17  and  C_18
REMARK    6  A    between atoms: C_18  and  C_19
REMARK    7  A    between atoms: C_19  and  N_20
REMARK                            x       y       z     vdW  Elec       q    Type
REMARK                         _______ _______ _______ _____ _____    ______ ____
ROOT
ATOM      1  C   UNL     1      -0.756  10.073  23.330  0.00  0.00    +0.000 A 
ATOM      2  C   UNL     1      -1.267  11.253  22.799  0.00  0.00    +0.000 A 
ATOM      3  C   UNL     1      -0.996  11.623  21.479  0.00  0.00    +0.000 A 
ATOM      4  C   UNL     1      -0.190  10.773  20.703  0.00  0.00    +0.000 A 
ATOM      5  C   UNL     1       0.333   9.584  21.214  0.00  0.00    +0.000 A 
ATOM      6  C   UNL     1       0.042   9.232  22.549  0.00  0.00    +0.000 A 
ATOM      7  C   UNL     1       1.094   8.961  20.174  0.00  0.00    +0.000 A 
ATOM      8  C   UNL     1       1.838   7.765  20.094  0.00  0.00    +0.000 A 
ATOM      9  C   UNL     1       2.483   7.427  18.900  0.00  0.00    +0.000 A 
ATOM     10  C   UNL     1       2.395   8.260  17.790  0.00  0.00    +0.000 A 
ATOM     11  C   UNL     1       1.663   9.450  17.843  0.00  0.00    +0.000 A 
ATOM     12  C   UNL     1       1.022   9.782  19.048  0.00  0.00    +0.000 A 
ATOM     13  N   UNL     1       0.242  10.869  19.396  0.00  0.00    +0.000 N 
ENDROOT
BRANCH  13  14
ATOM     14  C   UNL     1      -0.076  11.964  18.492  0.00  0.00    +0.000 C 
BRANCH  14  15
ATOM     15  C   UNL     1      -1.549  11.952  18.085  0.00  0.00    +0.000 C 
BRANCH  15  16
ATOM     16  C   UNL     1      -1.972  10.653  17.400  0.00  0.00    +0.000 C 
BRANCH  16  17
ATOM     17  C   UNL     1      -3.374  10.197  17.805  0.00  0.00    +0.000 C 
BRANCH  17  18
ATOM     18  C   UNL     1      -4.254  11.385  18.178  0.00  0.00    +0.000 C 
BRANCH  18  19
ATOM     19  C   UNL     1      -5.726  11.080  17.916  0.00  0.00    +0.000 C 
BRANCH  19  20
ATOM     20  N   UNL     1      -6.406  10.689  19.130  0.00  0.00    +0.000 N 
ATOM     21  C   UNL     1      -6.615  11.438  20.243  0.00  0.00    +0.000 A 
ATOM     22  N   UNL     1      -7.323  10.748  21.106  0.00  0.00    +0.000 NA
ATOM     23  C   UNL     1      -7.526   9.562  20.456  0.00  0.00    +0.000 A 
ATOM     24  N   UNL     1      -6.980   9.479  19.242  0.00  0.00    +0.000 NA
ENDBRANCH  19  20
ENDBRANCH  18  19
ENDBRANCH  17  18
ENDBRANCH  16  17
ENDBRANCH  15  16
ENDBRANCH  14  15
ENDBRANCH  13  14
TORSDOF 7
ENDMDL
MODEL 5
REMARK VINA RESULT:      -7.1      2.509      4.484
REMARK  Name = 
REMARK  7 active torsions:
REMARK  status: ('A' for Active; 'I' for Inactive)
REMARK    1  A    between atoms: N_13  and  C_14
REMARK    2  A    between atoms: C_14  and  C_15
REMARK    3  A    between atoms: C_15  and  C_16
REMARK    4  A    between atoms: C_16  and  C_17
REMARK    5  A    between atoms: C_17  and  C_18
REMARK    6  A    between atoms: C_18  and  C_19
REMARK    7  A    between atoms: C_19  and  N_20
REMARK                            x       y       z     vdW  Elec       q    Type
REMARK                         _______ _______ _______ _____ _____    ______ ____
ROOT
ATOM      1  C   UNL     1       5.326   5.350  15.802  0.00  0.00    +0.000 A 
ATOM      2  C   UNL     1       5.293   6.647  16.303  0.00  0.00    +0.000 A 
ATOM      3  C   UNL     1       4.448   6.986  17.363  0.00  0.00    +0.000 A 
ATOM      4  C   UNL     1       3.628   5.982  17.906  0.00  0.00    +0.000 A 
ATOM      5  C   UNL     1       3.645   4.673  17.421  0.00  0.00    +0.000 A 
ATOM      6  C   UNL     1       4.509   4.357  16.351  0.00  0.00    +0.000 A 
ATOM      7  C   UNL     1       2.709   3.912  18.190  0.00  0.00    +0.000 A 
ATOM      8  C   UNL     1       2.299   2.562  18.167  0.00  0.00    +0.000 A 
ATOM      9  C   UNL     1       1.338   2.113  19.079  0.00  0.00    +0.000 A 
ATOM     10  C   UNL     1       0.785   2.985  20.009  0.00  0.00    +0.000 A 
ATOM     11  C   UNL     1       1.174   4.327  20.053  0.00  0.00    +0.000 A 
ATOM     12  C   UNL     1       2.138   4.770  19.130  0.00  0.00    +0.000 A 
ATOM     13  N   UNL     1       2.710   6.013  18.936  0.00  0.00    +0.000 N 
ENDROOT
BRANCH  13  14
ATOM     14  C   UNL     1       2.380   7.192  19.722  0.00  0.00    +0.000 C 
BRANCH  14  15
ATOM     15  C   UNL     1       1.859   8.330  18.844  0.00  0.00    +0.000 C 
BRANCH  15  16
ATOM     16  C   UNL     1       0.949   9.300  19.597  0.00  0.00    +0.000 C 
BRANCH  16  17
ATOM     17  C   UNL     1       1.108  10.748  19.130  0.00  0.00    +0.000 C 
BRANCH  17  18
ATOM     18  C   UNL     1      -0.218  11.316  18.636  0.00  0.00    +0.000 C 
BRANCH  18  19
ATOM     19  C   UNL     1      -1.311  10.252  18.656  0.00  0.00    +0.000 C 
BRANCH  19  20
ATOM     20  N   UNL     1      -2.298  10.493  17.627  0.00  0.00    +0.000 N 
ATOM     21  C   UNL     1      -3.456  11.193  17.736  0.00  0.00    +0.000 A 
ATOM     22  N   UNL     1      -4.050  11.237  16.566  0.00  0.00    +0.000 NA
ATOM     23  C   UNL     1      -3.194  10.537  15.762  0.00  0.00    +0.000 A 
ATOM     24  N   UNL     1      -2.106  10.060  16.369  0.00  0.00    +0.000 NA
ENDBRANCH  19  20
ENDBRANCH  18  19
ENDBRANCH  17  18
ENDBRANCH  16  17
ENDBRANCH  15  16
ENDBRANCH  14  15
ENDBRANCH  13  14
TORSDOF 7
ENDMDL
MODEL 6
REMARK VINA RESULT:      -7.1      0.813      1.008
REMARK  Name = 
REMARK  7 active torsions:
REMARK  status: ('A' for Active; 'I' for Inactive)
REMARK    1  A    between atoms: N_13  and  C_14
REMARK    2  A    between atoms: C_14  and  C_15
REMARK    3  A    between atoms: C_15  and  C_16
REMARK    4  A    between atoms: C_16  and  C_17
REMARK    5  A    between atoms: C_17  and  C_18
REMARK    6  A    between atoms: C_18  and  C_19
REMARK    7  A    between atoms: C_19  and  N_20
REMARK                            x       y       z     vdW  Elec       q    Type
REMARK                         _______ _______ _______ _____ _____    ______ ____
ROOT
ATOM      1  C   UNL     1       1.605   2.069  18.963  0.00  0.00    +0.000 A 
ATOM      2  C   UNL     1       1.051   3.070  19.754  0.00  0.00    +0.000 A 
ATOM      3  C   UNL     1       1.464   4.399  19.624  0.00  0.00    +0.000 A 
ATOM      4  C   UNL     1       2.458   4.695  18.676  0.00  0.00    +0.000 A 
ATOM      5  C   UNL     1       3.028   3.708  17.870  0.00  0.00    +0.000 A 
ATOM      6  C   UNL     1       2.591   2.374  18.020  0.00  0.00    +0.000 A 
ATOM      7  C   UNL     1       3.990   4.340  17.021  0.00  0.00    +0.000 A 
ATOM      8  C   UNL     1       4.861   3.869  16.017  0.00  0.00    +0.000 A 
ATOM      9  C   UNL     1       5.701   4.767  15.348  0.00  0.00    +0.000 A 
ATOM     10  C   UNL     1       5.682   6.120  15.666  0.00  0.00    +0.000 A 
ATOM     11  C   UNL     1       4.827   6.613  16.656  0.00  0.00    +0.000 A 
ATOM     12  C   UNL     1       3.990   5.702  17.324  0.00  0.00    +0.000 A 
ATOM     13  N   UNL     1       3.057   5.889  18.327  0.00  0.00    +0.000 N 
ENDROOT
BRANCH  13  14
ATOM     14  C   UNL     1       2.755   7.179  18.926  0.00  0.00    +0.000 C 
BRANCH  14  15
ATOM     15  C   UNL     1       1.630   7.899  18.183  0.00  0.00    +0.000 C 
BRANCH  15  16
ATOM     16  C   UNL     1       1.972   9.346  17.832  0.00  0.00    +0.000 C 
BRANCH  16  17
ATOM     17  C   UNL     1       1.429  10.349  18.850  0.00  0.00    +0.000 C 
BRANCH  17  18
ATOM     18  C   UNL     1       0.401   9.699  19.770  0.00  0.00    +0.000 C 
BRANCH  18  19
ATOM     19  C   UNL     1       0.795   9.863  21.235  0.00  0.00    +0.000 C 
BRANCH  19  20
ATOM     20  N   UNL     1      -0.069  10.804  21.910  0.00  0.00    +0.000 N 
ATOM     21  C   UNL     1      -0.193  12.136  21.672  0.00  0.00    +0.000 A 
ATOM     22  N   UNL     1      -1.125  12.632  22.452  0.00  0.00    +0.000 NA
ATOM     23  C   UNL     1      -1.549  11.540  23.156  0.00  0.00    +0.000 A 
ATOM     24  N   UNL     1      -0.929  10.397  22.859  0.00  0.00    +0.000 NA
ENDBRANCH  19  20
ENDBRANCH  18  19
ENDBRANCH  17  18
ENDBRANCH  16  17
ENDBRANCH  15  16
ENDBRANCH  14  15
ENDBRANCH  13  14
TORSDOF 7
ENDMDL
MODEL 7
REMARK VINA RESULT:      -7.0      1.997      2.338
REMARK  Name = 
REMARK  7 active torsions:
REMARK  status: ('A' for Active; 'I' for Inactive)
REMARK    1  A    between atoms: N_13  and  C_14
REMARK    2  A    between atoms: C_14  and  C_15
REMARK    3  A    between atoms: C_15  and  C_16
REMARK    4  A    between atoms: C_16  and  C_17
REMARK    5  A    between atoms: C_17  and  C_18
REMARK    6  A    between atoms: C_18  and  C_19
REMARK    7  A    between atoms: C_19  and  N_20
REMARK                            x       y       z     vdW  Elec       q    Type
REMARK                         _______ _______ _______ _____ _____    ______ ____
ROOT
ATOM      1  C   UNL     1       1.522   2.090  19.142  0.00  0.00    +0.000 A 
ATOM      2  C   UNL     1       0.917   3.091  19.895  0.00  0.00    +0.000 A 
ATOM      3  C   UNL     1       1.294   4.429  19.746  0.00  0.00    +0.000 A 
ATOM      4  C   UNL     1       2.303   4.734  18.817  0.00  0.00    +0.000 A 
ATOM      5  C   UNL     1       2.923   3.747  18.049  0.00  0.00    +0.000 A 
ATOM      6  C   UNL     1       2.522   2.405  18.218  0.00  0.00    +0.000 A 
ATOM      7  C   UNL     1       3.888   4.390  17.210  0.00  0.00    +0.000 A 
ATOM      8  C   UNL     1       4.798   3.923  16.239  0.00  0.00    +0.000 A 
ATOM      9  C   UNL     1       5.628   4.831  15.572  0.00  0.00    +0.000 A 
ATOM     10  C   UNL     1       5.561   6.190  15.858  0.00  0.00    +0.000 A 
ATOM     11  C   UNL     1       4.666   6.678  16.815  0.00  0.00    +0.000 A 
ATOM     12  C   UNL     1       3.839   5.757  17.481  0.00  0.00    +0.000 A 
ATOM     13  N   UNL     1       2.875   5.937  18.456  0.00  0.00    +0.000 N 
ENDROOT
BRANCH  13  14
ATOM     14  C   UNL     1       2.519   7.231  19.018  0.00  0.00    +0.000 C 
BRANCH  14  15
ATOM     15  C   UNL     1       1.846   8.132  17.983  0.00  0.00    +0.000 C 
BRANCH  15  16
ATOM     16  C   UNL     1       1.699   9.579  18.452  0.00  0.00    +0.000 C 
BRANCH  16  17
ATOM     17  C   UNL     1       0.516   9.780  19.400  0.00  0.00    +0.000 C 
BRANCH  17  18
ATOM     18  C   UNL     1       0.319  11.255  19.731  0.00  0.00    +0.000 C 
BRANCH  18  19
ATOM     19  C   UNL     1      -0.405  11.979  18.600  0.00  0.00    +0.000 C 
BRANCH  19  20
ATOM     20  N   UNL     1      -1.838  11.946  18.789  0.00  0.00    +0.000 N 
ATOM     21  C   UNL     1      -2.552  12.477  19.814  0.00  0.00    +0.000 A 
ATOM     22  N   UNL     1      -3.834  12.292  19.594  0.00  0.00    +0.000 NA
ATOM     23  C   UNL     1      -3.846  11.634  18.396  0.00  0.00    +0.000 A 
ATOM     24  N   UNL     1      -2.645  11.398  17.865  0.00  0.00    +0.000 NA
ENDBRANCH  19  20
ENDBRANCH  18  19
ENDBRANCH  17  18
ENDBRANCH  16  17
ENDBRANCH  15  16
ENDBRANCH  14  15
ENDBRANCH  13  14
TORSDOF 7
ENDMDL
MODEL 8
REMARK VINA RESULT:      -7.0      1.434      1.605
REMARK  Name = 
REMARK  7 active torsions:
REMARK  status: ('A' for Active; 'I' for Inactive)
REMARK    1  A    between atoms: N_13  and  C_14
REMARK    2  A    between atoms: C_14  and  C_15
REMARK    3  A    between atoms: C_15  and  C_16
REMARK    4  A    between atoms: C_16  and  C_17
REMARK    5  A    between atoms: C_17  and  C_18
REMARK    6  A    between atoms: C_18  and  C_19
REMARK    7  A    between atoms: C_19  and  N_20
REMARK                            x       y       z     vdW  Elec       q    Type
REMARK                         _______ _______ _______ _____ _____    ______ ____
ROOT
ATOM      1  C   UNL     1       2.510   2.839  20.587  0.00  0.00    +0.000 A 
ATOM      2  C   UNL     1       1.401   3.588  20.207  0.00  0.00    +0.000 A 
ATOM      3  C   UNL     1       1.541   4.711  19.387  0.00  0.00    +0.000 A 
ATOM      4  C   UNL     1       2.831   5.065  18.960  0.00  0.00    +0.000 A 
ATOM      5  C   UNL     1       3.959   4.328  19.326  0.00  0.00    +0.000 A 
ATOM      6  C   UNL     1       3.790   3.197  20.153  0.00  0.00    +0.000 A 
ATOM      7  C   UNL     1       5.099   4.947  18.723  0.00  0.00    +0.000 A 
ATOM      8  C   UNL     1       6.480   4.660  18.730  0.00  0.00    +0.000 A 
ATOM      9  C   UNL     1       7.363   5.479  18.018  0.00  0.00    +0.000 A 
ATOM     10  C   UNL     1       6.889   6.573  17.303  0.00  0.00    +0.000 A 
ATOM     11  C   UNL     1       5.525   6.878  17.279  0.00  0.00    +0.000 A 
ATOM     12  C   UNL     1       4.647   6.051  18.000  0.00  0.00    +0.000 A 
ATOM     13  N   UNL     1       3.275   6.100  18.161  0.00  0.00    +0.000 N 
ENDROOT
BRANCH  13  14
ATOM     14  C   UNL     1       2.421   7.113  17.561  0.00  0.00    +0.000 C 
BRANCH  14  15
ATOM     15  C   UNL     1       2.192   8.293  18.505  0.00  0.00    +0.000 C 
BRANCH  15  16
ATOM     16  C   UNL     1       1.316   9.388  17.896  0.00  0.00    +0.000 C 
BRANCH  16  17
ATOM     17  C   UNL     1       1.490  10.741  18.588  0.00  0.00    +0.000 C 
BRANCH  17  18
ATOM     18  C   UNL     1       0.147  11.307  19.036  0.00  0.00    +0.000 C 
BRANCH  18  19
ATOM     19  C   UNL     1      -0.715  10.225  19.682  0.00  0.00    +0.000 C 
BRANCH  19  20
ATOM     20  N   UNL     1      -0.479  10.146  21.106  0.00  0.00    +0.000 N 
ATOM     21  C   UNL     1      -0.548  11.151  22.016  0.00  0.00    +0.000 A 
ATOM     22  N   UNL     1      -0.326  10.668  23.217  0.00  0.00    +0.000 NA
ATOM     23  C   UNL     1      -0.127   9.336  22.978  0.00  0.00    +0.000 A 
ATOM     24  N   UNL     1      -0.209   8.970  21.698  0.00  0.00    +0.000 NA
ENDBRANCH  19  20
ENDBRANCH  18  19
ENDBRANCH  17  18
ENDBRANCH  16  17
ENDBRANCH  15  16
ENDBRANCH  14  15
ENDBRANCH  13  14
TORSDOF 7
ENDMDL
MODEL 9
REMARK VINA RESULT:      -7.0      1.806      4.120
REMARK  Name = 
REMARK  7 active torsions:
REMARK  status: ('A' for Active; 'I' for Inactive)
REMARK    1  A    between atoms: N_13  and  C_14
REMARK    2  A    between atoms: C_14  and  C_15
REMARK    3  A    between atoms: C_15  and  C_16
REMARK    4  A    between atoms: C_16  and  C_17
REMARK    5  A    between atoms: C_17  and  C_18
REMARK    6  A    between atoms: C_18  and  C_19
REMARK    7  A    between atoms: C_19  and  N_20
REMARK                            x       y       z     vdW  Elec       q    Type
REMARK                         _______ _______ _______ _____ _____    ______ ____
ROOT
ATOM      1  C   UNL     1       5.721   4.869  15.556  0.00  0.00    +0.000 A 
ATOM      2  C   UNL     1       5.717   6.203  15.948  0.00  0.00    +0.000 A 
ATOM      3  C   UNL     1       4.833   6.661  16.929  0.00  0.00    +0.000 A 
ATOM      4  C   UNL     1       3.945   5.737  17.506  0.00  0.00    +0.000 A 
ATOM      5  C   UNL     1       3.931   4.393  17.129  0.00  0.00    +0.000 A 
ATOM      6  C   UNL     1       4.835   3.957  16.138  0.00  0.00    +0.000 A 
ATOM      7  C   UNL     1       2.925   3.734  17.904  0.00  0.00    +0.000 A 
ATOM      8  C   UNL     1       2.460   2.404  17.968  0.00  0.00    +0.000 A 
ATOM      9  C   UNL     1       1.435   2.068  18.859  0.00  0.00    +0.000 A 
ATOM     10  C   UNL     1       0.871   3.035  19.683  0.00  0.00    +0.000 A 
ATOM     11  C   UNL     1       1.314   4.360  19.640  0.00  0.00    +0.000 A 
ATOM     12  C   UNL     1       2.343   4.688  18.739  0.00  0.00    +0.000 A 
ATOM     13  N   UNL     1       2.976   5.889  18.477  0.00  0.00    +0.000 N 
ENDROOT
BRANCH  13  14
ATOM     14  C   UNL     1       2.656   7.140  19.146  0.00  0.00    +0.000 C 
BRANCH  14  15
ATOM     15  C   UNL     1       1.976   8.129  18.200  0.00  0.00    +0.000 C 
BRANCH  15  16
ATOM     16  C   UNL     1       1.320   9.302  18.928  0.00  0.00    +0.000 C 
BRANCH  16  17
ATOM     17  C   UNL     1       0.180   9.935  18.130  0.00  0.00    +0.000 C 
BRANCH  17  18
ATOM     18  C   UNL     1      -0.320  11.211  18.799  0.00  0.00    +0.000 C 
BRANCH  18  19
ATOM     19  C   UNL     1       0.712  11.753  19.784  0.00  0.00    +0.000 C 
BRANCH  19  20
ATOM     20  N   UNL     1       1.413  12.892  19.235  0.00  0.00    +0.000 N 
ATOM     21  C   UNL     1       1.176  14.207  19.476  0.00  0.00    +0.000 A 
ATOM     22  N   UNL     1       2.065  14.934  18.838  0.00  0.00    +0.000 NA
ATOM     23  C   UNL     1       2.837  13.994  18.214  0.00  0.00    +0.000 A 
ATOM     24  N   UNL     1       2.474  12.728  18.427  0.00  0.00    +0.000 NA
ENDBRANCH  19  20
ENDBRANCH  18  19
ENDBRANCH  17  18
ENDBRANCH  16  17
ENDBRANCH  15  16
ENDBRANCH  14  15
ENDBRANCH  13  14
TORSDOF 7
ENDMDL
