MODEL 1
REMARK VINA RESULT:      -6.6      0.000      0.000
REMARK  Name = 
REMARK  5 active torsions:
REMARK  status: ('A' for Active; 'I' for Inactive)
REMARK    1  A    between atoms: C_1  and  C_2
REMARK    2  A    between atoms: N_4  and  C_5
REMARK    3  A    between atoms: C_9  and  C_10
REMARK    4  A    between atoms: C_20  and  C_21
REMARK    5  A    between atoms: C_23  and  C_24
REMARK                            x       y       z     vdW  Elec       q    Type
REMARK                         _______ _______ _______ _____ _____    ______ ____
ROOT
ATOM      1  C   UNL     1       2.998   5.148  17.657  0.00  0.00    +0.000 A 
ATOM      2  S   UNL     1       4.222   4.409  16.717  0.00  0.00    +0.000 S 
ATOM      3  C   UNL     1       5.350   5.649  16.941  0.00  0.00    +0.000 A 
ATOM      4  C   UNL     1       4.828   6.713  17.684  0.00  0.00    +0.000 A 
ATOM      5  C   UNL     1       3.342   6.457  18.083  0.00  0.00    +0.000 A 
ATOM      6  C   UNL     1       5.839   7.859  17.986  0.00  0.00    +0.000 C 
ATOM      7  C   UNL     1       7.123   7.823  17.055  0.00  0.00    +0.000 C 
ATOM      8  C   UNL     1       8.259   8.757  17.515  0.00  0.00    +0.000 C 
ATOM      9  N   UNL     1       7.700   6.471  16.959  0.00  0.00    +0.000 NA
ATOM     10  C   UNL     1       6.750   5.543  16.323  0.00  0.00    +0.000 C 
ATOM     11  C   UNL     1       7.335   4.127  16.432  0.00  0.00    +0.000 C 
ATOM     12  H   UNL     1       7.946   6.131  17.887  0.00  0.00    +0.000 HD
ENDROOT
BRANCH   5  13
ATOM     13  C   UNL     1       2.375   7.484  18.947  0.00  0.00    +0.000 A 
ATOM     14  N   UNL     1       1.980   7.372  20.219  0.00  0.00    +0.000 NA
ATOM     15  C   UNL     1       1.135   8.477  20.635  0.00  0.00    +0.000 A 
ATOM     16  C   UNL     1       0.530   8.729  21.887  0.00  0.00    +0.000 A 
ATOM     17  N   UNL     1      -0.211   9.854  22.155  0.00  0.00    +0.000 NA
ATOM     18  C   UNL     1      -0.399  10.761  21.178  0.00  0.00    +0.000 A 
ATOM     19  C   UNL     1       0.118  10.627  19.901  0.00  0.00    +0.000 A 
ATOM     20  C   UNL     1       0.904   9.448  19.648  0.00  0.00    +0.000 A 
ATOM     21  S   UNL     1       1.736   8.948  18.206  0.00  0.00    +0.000 S 
ENDBRANCH   5  13
BRANCH   1  25
ATOM     22  C   UNL     1       0.513   2.725  19.132  0.00  0.00    +0.000 C 
ATOM     23  C   UNL     1       1.881   3.363  18.867  0.00  0.00    +0.000 C 
ATOM     24  O   UNL     1       2.820   3.146  19.660  0.00  0.00    +0.000 OA
ATOM     25  N   UNL     1       1.953   4.207  17.767  0.00  0.00    +0.000 N 
ATOM     26  H   UNL     1       1.044   4.621  17.556  0.00  0.00    +0.000 HD
ENDBRANCH   1  25
TORSDOF 2
ENDMDL
MODEL 2
REMARK VINA RESULT:      -6.5      0.884      1.247
REMARK  Name = 
REMARK  5 active torsions:
REMARK  status: ('A' for Active; 'I' for Inactive)
REMARK    1  A    between atoms: C_1  and  C_2
REMARK    2  A    between atoms: N_4  and  C_5
REMARK    3  A    between atoms: C_9  and  C_10
REMARK    4  A    between atoms: C_20  and  C_21
REMARK    5  A    between atoms: C_23  and  C_24
REMARK                            x       y       z     vdW  Elec       q    Type
REMARK                         _______ _______ _______ _____ _____    ______ ____
ROOT
ATOM      1  C   UNL     1       2.945   5.052  17.658  0.00  0.00    +0.000 A 
ATOM      2  S   UNL     1       4.138   4.352  16.650  0.00  0.00    +0.000 S 
ATOM      3  C   UNL     1       5.276   5.579  16.892  0.00  0.00    +0.000 A 
ATOM      4  C   UNL     1       4.780   6.611  17.695  0.00  0.00    +0.000 A 
ATOM      5  C   UNL     1       3.306   6.341  18.128  0.00  0.00    +0.000 A 
ATOM      6  C   UNL     1       5.803   7.742  18.013  0.00  0.00    +0.000 C 
ATOM      7  C   UNL     1       7.058   7.743  17.042  0.00  0.00    +0.000 C 
ATOM      8  C   UNL     1       8.210   8.655  17.506  0.00  0.00    +0.000 C 
ATOM      9  N   UNL     1       7.628   6.396  16.871  0.00  0.00    +0.000 NA
ATOM     10  C   UNL     1       6.656   5.497  16.226  0.00  0.00    +0.000 C 
ATOM     11  C   UNL     1       7.240   4.077  16.258  0.00  0.00    +0.000 C 
ATOM     12  H   UNL     1       7.901   6.016  17.777  0.00  0.00    +0.000 HD
ENDROOT
BRANCH   5  13
ATOM     13  C   UNL     1       2.370   7.332  19.064  0.00  0.00    +0.000 A 
ATOM     14  N   UNL     1       1.922   8.559  18.777  0.00  0.00    +0.000 NA
ATOM     15  C   UNL     1       1.119   9.120  19.848  0.00  0.00    +0.000 A 
ATOM     16  C   UNL     1       0.466  10.371  19.927  0.00  0.00    +0.000 A 
ATOM     17  N   UNL     1      -0.310  10.752  20.994  0.00  0.00    +0.000 NA
ATOM     18  C   UNL     1      -0.446   9.910  22.037  0.00  0.00    +0.000 A 
ATOM     19  C   UNL     1       0.156   8.665  22.098  0.00  0.00    +0.000 A 
ATOM     20  C   UNL     1       0.952   8.282  20.961  0.00  0.00    +0.000 A 
ATOM     21  S   UNL     1       1.823   6.810  20.654  0.00  0.00    +0.000 S 
ENDBRANCH   5  13
BRANCH   1  25
ATOM     22  C   UNL     1       0.494   2.579  19.107  0.00  0.00    +0.000 C 
ATOM     23  C   UNL     1       1.857   3.225  18.830  0.00  0.00    +0.000 C 
ATOM     24  O   UNL     1       2.815   2.977  19.589  0.00  0.00    +0.000 OA
ATOM     25  N   UNL     1       1.901   4.109  17.760  0.00  0.00    +0.000 N 
ATOM     26  H   UNL     1       0.988   4.532  17.589  0.00  0.00    +0.000 HD
ENDBRANCH   1  25
TORSDOF 2
ENDMDL
MODEL 3
REMARK VINA RESULT:      -6.5      3.293      8.057
REMARK  Name = 
REMARK  5 active torsions:
REMARK  status: ('A' for Active; 'I' for Inactive)
REMARK    1  A    between atoms: C_1  and  C_2
REMARK    2  A    between atoms: N_4  and  C_5
REMARK    3  A    between atoms: C_9  and  C_10
REMARK    4  A    between atoms: C_20  and  C_21
REMARK    5  A    between atoms: C_23  and  C_24
REMARK                            x       y       z     vdW  Elec       q    Type
REMARK                         _______ _______ _______ _____ _____    ______ ____
ROOT
ATOM      1  C   UNL     1      -0.444  10.548  20.612  0.00  0.00    +0.000 A 
ATOM      2  S   UNL     1      -1.740  11.660  20.498  0.00  0.00    +0.000 S 
ATOM      3  C   UNL     1      -2.126  11.275  18.897  0.00  0.00    +0.000 A 
ATOM      4  C   UNL     1      -1.248  10.332  18.352  0.00  0.00    +0.000 A 
ATOM      5  C   UNL     1      -0.149   9.915  19.377  0.00  0.00    +0.000 A 
ATOM      6  C   UNL     1      -1.590   9.881  16.901  0.00  0.00    +0.000 C 
ATOM      7  C   UNL     1      -2.592  10.864  16.159  0.00  0.00    +0.000 C 
ATOM      8  C   UNL     1      -3.167  10.300  14.846  0.00  0.00    +0.000 C 
ATOM      9  N   UNL     1      -3.743  11.223  17.004  0.00  0.00    +0.000 NA
ATOM     10  C   UNL     1      -3.302  11.967  18.196  0.00  0.00    +0.000 C 
ATOM     11  C   UNL     1      -4.518  12.136  19.119  0.00  0.00    +0.000 C 
ATOM     12  H   UNL     1      -4.242  10.381  17.288  0.00  0.00    +0.000 HD
ENDROOT
BRANCH   5  13
ATOM     13  C   UNL     1       1.078   8.839  19.104  0.00  0.00    +0.000 A 
ATOM     14  N   UNL     1       1.434   7.787  19.848  0.00  0.00    +0.000 NA
ATOM     15  C   UNL     1       2.564   7.068  19.286  0.00  0.00    +0.000 A 
ATOM     16  C   UNL     1       3.224   5.913  19.759  0.00  0.00    +0.000 A 
ATOM     17  N   UNL     1       4.258   5.306  19.089  0.00  0.00    +0.000 NA
ATOM     18  C   UNL     1       4.690   5.842  17.931  0.00  0.00    +0.000 A 
ATOM     19  C   UNL     1       4.146   6.983  17.367  0.00  0.00    +0.000 A 
ATOM     20  C   UNL     1       3.054   7.592  18.080  0.00  0.00    +0.000 A 
ATOM     21  S   UNL     1       2.103   8.991  17.682  0.00  0.00    +0.000 S 
ENDBRANCH   5  13
BRANCH   1  25
ATOM     22  C   UNL     1       0.724   9.367  23.997  0.00  0.00    +0.000 C 
ATOM     23  C   UNL     1      -0.153   9.417  22.741  0.00  0.00    +0.000 C 
ATOM     24  O   UNL     1      -0.874   8.437  22.459  0.00  0.00    +0.000 OA
ATOM     25  N   UNL     1      -0.025  10.557  21.959  0.00  0.00    +0.000 N 
ATOM     26  H   UNL     1       0.898  10.981  22.067  0.00  0.00    +0.000 HD
ENDBRANCH   1  25
TORSDOF 2
ENDMDL
MODEL 4
REMARK VINA RESULT:      -6.3      4.264      7.884
REMARK  Name = 
REMARK  5 active torsions:
REMARK  status: ('A' for Active; 'I' for Inactive)
REMARK    1  A    between atoms: C_1  and  C_2
REMARK    2  A    between atoms: N_4  and  C_5
REMARK    3  A    between atoms: C_9  and  C_10
REMARK    4  A    between atoms: C_20  and  C_21
REMARK    5  A    between atoms: C_23  and  C_24
REMARK                            x       y       z     vdW  Elec       q    Type
REMARK                         _______ _______ _______ _____ _____    ______ ____
ROOT
ATOM      1  C   UNL     1      -0.694  11.795  18.961  0.00  0.00    +0.000 A 
ATOM      2  S   UNL     1      -1.066  13.454  19.163  0.00  0.00    +0.000 S 
ATOM      3  C   UNL     1       0.527  13.988  18.963  0.00  0.00    +0.000 A 
ATOM      4  C   UNL     1       1.425  12.928  18.800  0.00  0.00    +0.000 A 
ATOM      5  C   UNL     1       0.699  11.549  18.864  0.00  0.00    +0.000 A 
ATOM      6  C   UNL     1       2.900  13.354  18.541  0.00  0.00    +0.000 C 
ATOM      7  C   UNL     1       3.194  14.865  18.929  0.00  0.00    +0.000 C 
ATOM      8  C   UNL     1       4.550  15.392  18.422  0.00  0.00    +0.000 C 
ATOM      9  N   UNL     1       2.164  15.780  18.409  0.00  0.00    +0.000 NA
ATOM     10  C   UNL     1       0.853  15.486  19.012  0.00  0.00    +0.000 C 
ATOM     11  C   UNL     1      -0.198  16.340  18.286  0.00  0.00    +0.000 C 
ATOM     12  H   UNL     1       2.104  15.697  17.395  0.00  0.00    +0.000 HD
ENDROOT
BRANCH   5  13
ATOM     13  C   UNL     1       1.417  10.065  18.732  0.00  0.00    +0.000 A 
ATOM     14  N   UNL     1       2.200   9.610  17.748  0.00  0.00    +0.000 NA
ATOM     15  C   UNL     1       2.651   8.250  17.982  0.00  0.00    +0.000 A 
ATOM     16  C   UNL     1       3.488   7.429  17.195  0.00  0.00    +0.000 A 
ATOM     17  N   UNL     1       3.876   6.166  17.570  0.00  0.00    +0.000 NA
ATOM     18  C   UNL     1       3.426   5.663  18.735  0.00  0.00    +0.000 A 
ATOM     19  C   UNL     1       2.584   6.352  19.590  0.00  0.00    +0.000 A 
ATOM     20  C   UNL     1       2.203   7.679  19.183  0.00  0.00    +0.000 A 
ATOM     21  S   UNL     1       1.204   8.851  19.989  0.00  0.00    +0.000 S 
ENDBRANCH   5  13
BRANCH   1  25
ATOM     22  C   UNL     1      -3.567   9.669  17.757  0.00  0.00    +0.000 C 
ATOM     23  C   UNL     1      -2.514  10.782  17.712  0.00  0.00    +0.000 C 
ATOM     24  O   UNL     1      -2.203  11.284  16.612  0.00  0.00    +0.000 OA
ATOM     25  N   UNL     1      -1.927  11.110  18.926  0.00  0.00    +0.000 N 
ATOM     26  H   UNL     1      -1.940  10.319  19.572  0.00  0.00    +0.000 HD
ENDBRANCH   1  25
TORSDOF 2
ENDMDL
MODEL 5
REMARK VINA RESULT:      -6.2      3.342      8.103
REMARK  Name = 
REMARK  5 active torsions:
REMARK  status: ('A' for Active; 'I' for Inactive)
REMARK    1  A    between atoms: C_1  and  C_2
REMARK    2  A    between atoms: N_4  and  C_5
REMARK    3  A    between atoms: C_9  and  C_10
REMARK    4  A    between atoms: C_20  and  C_21
REMARK    5  A    between atoms: C_23  and  C_24
REMARK                            x       y       z     vdW  Elec       q    Type
REMARK                         _______ _______ _______ _____ _____    ______ ____
ROOT
ATOM      1  C   UNL     1      -0.221  10.486  20.563  0.00  0.00    +0.000 A 
ATOM      2  S   UNL     1      -1.499  11.621  20.480  0.00  0.00    +0.000 S 
ATOM      3  C   UNL     1      -1.940  11.232  18.894  0.00  0.00    +0.000 A 
ATOM      4  C   UNL     1      -1.095  10.271  18.330  0.00  0.00    +0.000 A 
ATOM      5  C   UNL     1       0.027   9.840  19.325  0.00  0.00    +0.000 A 
ATOM      6  C   UNL     1      -1.488   9.816  16.893  0.00  0.00    +0.000 C 
ATOM      7  C   UNL     1      -2.494  10.812  16.174  0.00  0.00    +0.000 C 
ATOM      8  C   UNL     1      -3.118  10.250  14.882  0.00  0.00    +0.000 C 
ATOM      9  N   UNL     1      -3.613  11.197  17.051  0.00  0.00    +0.000 NA
ATOM     10  C   UNL     1      -3.124  11.941  18.224  0.00  0.00    +0.000 C 
ATOM     11  C   UNL     1      -4.309  12.137  19.181  0.00  0.00    +0.000 C 
ATOM     12  H   UNL     1      -4.119  10.366  17.355  0.00  0.00    +0.000 HD
ENDROOT
BRANCH   5  13
ATOM     13  C   UNL     1       1.225   8.741  19.024  0.00  0.00    +0.000 A 
ATOM     14  N   UNL     1       2.036   8.674  17.963  0.00  0.00    +0.000 NA
ATOM     15  C   UNL     1       2.973   7.568  18.052  0.00  0.00    +0.000 A 
ATOM     16  C   UNL     1       3.986   7.168  17.152  0.00  0.00    +0.000 A 
ATOM     17  N   UNL     1       4.840   6.120  17.393  0.00  0.00    +0.000 NA
ATOM     18  C   UNL     1       4.703   5.414  18.532  0.00  0.00    +0.000 A 
ATOM     19  C   UNL     1       3.740   5.685  19.488  0.00  0.00    +0.000 A 
ATOM     20  C   UNL     1       2.866   6.797  19.221  0.00  0.00    +0.000 A 
ATOM     21  S   UNL     1       1.577   7.461  20.179  0.00  0.00    +0.000 S 
ENDBRANCH   5  13
BRANCH   1  25
ATOM     22  C   UNL     1       0.845   9.308  23.983  0.00  0.00    +0.000 C 
ATOM     23  C   UNL     1      -0.052   9.438  22.747  0.00  0.00    +0.000 C 
ATOM     24  O   UNL     1      -0.935   8.580  22.540  0.00  0.00    +0.000 OA
ATOM     25  N   UNL     1       0.238  10.496  21.897  0.00  0.00    +0.000 N 
ATOM     26  H   UNL     1       1.222  10.764  21.959  0.00  0.00    +0.000 HD
ENDBRANCH   1  25
TORSDOF 2
ENDMDL
MODEL 6
REMARK VINA RESULT:      -6.1      6.012     11.417
REMARK  Name = 
REMARK  5 active torsions:
REMARK  status: ('A' for Active; 'I' for Inactive)
REMARK    1  A    between atoms: C_1  and  C_2
REMARK    2  A    between atoms: N_4  and  C_5
REMARK    3  A    between atoms: C_9  and  C_10
REMARK    4  A    between atoms: C_20  and  C_21
REMARK    5  A    between atoms: C_23  and  C_24
REMARK                            x       y       z     vdW  Elec       q    Type
REMARK                         _______ _______ _______ _____ _____    ______ ____
ROOT
ATOM      1  C   UNL     1      -4.320  13.090  22.896  0.00  0.00    +0.000 A 
ATOM      2  S   UNL     1      -5.139  14.320  23.759  0.00  0.00    +0.000 S 
ATOM      3  C   UNL     1      -3.734  15.026  24.381  0.00  0.00    +0.000 A 
ATOM      4  C   UNL     1      -2.581  14.322  24.018  0.00  0.00    +0.000 A 
ATOM      5  C   UNL     1      -2.924  13.072  23.150  0.00  0.00    +0.000 A 
ATOM      6  C   UNL     1      -1.245  14.959  24.501  0.00  0.00    +0.000 C 
ATOM      7  C   UNL     1      -1.443  16.028  25.658  0.00  0.00    +0.000 C 
ATOM      8  C   UNL     1      -0.189  16.874  25.952  0.00  0.00    +0.000 C 
ATOM      9  N   UNL     1      -2.530  16.975  25.357  0.00  0.00    +0.000 NA
ATOM     10  C   UNL     1      -3.822  16.273  25.269  0.00  0.00    +0.000 C 
ATOM     11  C   UNL     1      -4.867  17.280  24.766  0.00  0.00    +0.000 C 
ATOM     12  H   UNL     1      -2.338  17.457  24.480  0.00  0.00    +0.000 HD
ENDROOT
BRANCH   5  13
ATOM     13  C   UNL     1      -1.839  11.982  22.542  0.00  0.00    +0.000 A 
ATOM     14  N   UNL     1      -1.118  11.074  23.209  0.00  0.00    +0.000 NA
ATOM     15  C   UNL     1      -0.273  10.285  22.330  0.00  0.00    +0.000 A 
ATOM     16  C   UNL     1       0.619   9.235  22.641  0.00  0.00    +0.000 A 
ATOM     17  N   UNL     1       1.324   8.537  21.691  0.00  0.00    +0.000 NA
ATOM     18  C   UNL     1       1.186   8.875  20.395  0.00  0.00    +0.000 A 
ATOM     19  C   UNL     1       0.363   9.898  19.955  0.00  0.00    +0.000 A 
ATOM     20  C   UNL     1      -0.377  10.605  20.968  0.00  0.00    +0.000 A 
ATOM     21  S   UNL     1      -1.520  11.905  20.813  0.00  0.00    +0.000 S 
ENDBRANCH   5  13
BRANCH   1  25
ATOM     22  C   UNL     1      -6.145  11.605  19.949  0.00  0.00    +0.000 C 
ATOM     23  C   UNL     1      -5.411  12.674  20.767  0.00  0.00    +0.000 C 
ATOM     24  O   UNL     1      -4.918  13.659  20.181  0.00  0.00    +0.000 OA
ATOM     25  N   UNL     1      -5.296  12.421  22.127  0.00  0.00    +0.000 N 
ATOM     26  H   UNL     1      -5.313  11.420  22.323  0.00  0.00    +0.000 HD
ENDBRANCH   1  25
TORSDOF 2
ENDMDL
MODEL 7
REMARK VINA RESULT:      -6.0      4.890      8.327
REMARK  Name = 
REMARK  5 active torsions:
REMARK  status: ('A' for Active; 'I' for Inactive)
REMARK    1  A    between atoms: C_1  and  C_2
REMARK    2  A    between atoms: N_4  and  C_5
REMARK    3  A    between atoms: C_9  and  C_10
REMARK    4  A    between atoms: C_20  and  C_21
REMARK    5  A    between atoms: C_23  and  C_24
REMARK                            x       y       z     vdW  Elec       q    Type
REMARK                         _______ _______ _______ _____ _____    ______ ____
ROOT
ATOM      1  C   UNL     1      -0.434  13.334  18.978  0.00  0.00    +0.000 A 
ATOM      2  S   UNL     1      -0.419  15.045  18.955  0.00  0.00    +0.000 S 
ATOM      3  C   UNL     1       1.257  15.177  18.769  0.00  0.00    +0.000 A 
ATOM      4  C   UNL     1       1.891  13.930  18.783  0.00  0.00    +0.000 A 
ATOM      5  C   UNL     1       0.868  12.770  18.982  0.00  0.00    +0.000 A 
ATOM      6  C   UNL     1       3.430  13.976  18.547  0.00  0.00    +0.000 C 
ATOM      7  C   UNL     1       4.054  15.420  18.760  0.00  0.00    +0.000 C 
ATOM      8  C   UNL     1       5.505  15.557  18.260  0.00  0.00    +0.000 C 
ATOM      9  N   UNL     1       3.272  16.467  18.080  0.00  0.00    +0.000 NA
ATOM     10  C   UNL     1       1.916  16.556  18.649  0.00  0.00    +0.000 C 
ATOM     11  C   UNL     1       1.105  17.522  17.773  0.00  0.00    +0.000 C 
ATOM     12  H   UNL     1       3.215  16.266  17.083  0.00  0.00    +0.000 HD
ENDROOT
BRANCH   5  13
ATOM     13  C   UNL     1       1.229  11.158  19.069  0.00  0.00    +0.000 A 
ATOM     14  N   UNL     1       1.809  10.390  18.141  0.00  0.00    +0.000 NA
ATOM     15  C   UNL     1       1.969   9.015  18.581  0.00  0.00    +0.000 A 
ATOM     16  C   UNL     1       2.537   7.912  17.906  0.00  0.00    +0.000 A 
ATOM     17  N   UNL     1       2.668   6.667  18.472  0.00  0.00    +0.000 NA
ATOM     18  C   UNL     1       2.216   6.467  19.724  0.00  0.00    +0.000 A 
ATOM     19  C   UNL     1       1.620   7.455  20.489  0.00  0.00    +0.000 A 
ATOM     20  C   UNL     1       1.507   8.755  19.881  0.00  0.00    +0.000 A 
ATOM     21  S   UNL     1       0.860  10.235  20.522  0.00  0.00    +0.000 S 
ENDBRANCH   5  13
BRANCH   1  25
ATOM     22  C   UNL     1      -3.979  12.709  20.100  0.00  0.00    +0.000 C 
ATOM     23  C   UNL     1      -2.448  12.664  20.157  0.00  0.00    +0.000 C 
ATOM     24  O   UNL     1      -1.884  12.443  21.248  0.00  0.00    +0.000 OA
ATOM     25  N   UNL     1      -1.790  12.944  18.968  0.00  0.00    +0.000 N 
ATOM     26  H   UNL     1      -2.353  13.544  18.363  0.00  0.00    +0.000 HD
ENDBRANCH   1  25
TORSDOF 2
ENDMDL
MODEL 8
REMARK VINA RESULT:      -6.0      5.953     11.332
REMARK  Name = 
REMARK  5 active torsions:
REMARK  status: ('A' for Active; 'I' for Inactive)
REMARK    1  A    between atoms: C_1  and  C_2
REMARK    2  A    between atoms: N_4  and  C_5
REMARK    3  A    between atoms: C_9  and  C_10
REMARK    4  A    between atoms: C_20  and  C_21
REMARK    5  A    between atoms: C_23  and  C_24
REMARK                            x       y       z     vdW  Elec       q    Type
REMARK                         _______ _______ _______ _____ _____    ______ ____
ROOT
ATOM      1  C   UNL     1      -4.356  12.980  22.702  0.00  0.00    +0.000 A 
ATOM      2  S   UNL     1      -5.129  14.156  23.676  0.00  0.00    +0.000 S 
ATOM      3  C   UNL     1      -3.693  14.870  24.214  0.00  0.00    +0.000 A 
ATOM      4  C   UNL     1      -2.559  14.207  23.733  0.00  0.00    +0.000 A 
ATOM      5  C   UNL     1      -2.944  12.984  22.845  0.00  0.00    +0.000 A 
ATOM      6  C   UNL     1      -1.201  14.857  24.135  0.00  0.00    +0.000 C 
ATOM      7  C   UNL     1      -1.329  15.876  25.345  0.00  0.00    +0.000 C 
ATOM      8  C   UNL     1      -0.073  16.738  25.574  0.00  0.00    +0.000 C 
ATOM      9  N   UNL     1      -2.455  16.808  25.169  0.00  0.00    +0.000 NA
ATOM     10  C   UNL     1      -3.736  16.080  25.155  0.00  0.00    +0.000 C 
ATOM     11  C   UNL     1      -4.837  17.081  24.776  0.00  0.00    +0.000 C 
ATOM     12  H   UNL     1      -2.344  17.327  24.300  0.00  0.00    +0.000 HD
ENDROOT
BRANCH   5  13
ATOM     13  C   UNL     1      -1.890  11.944  22.111  0.00  0.00    +0.000 A 
ATOM     14  N   UNL     1      -1.548  11.889  20.819  0.00  0.00    +0.000 NA
ATOM     15  C   UNL     1      -0.583  10.839  20.546  0.00  0.00    +0.000 A 
ATOM     16  C   UNL     1       0.026  10.468  19.326  0.00  0.00    +0.000 A 
ATOM     17  N   UNL     1       0.970   9.476  19.224  0.00  0.00    +0.000 NA
ATOM     18  C   UNL     1       1.326   8.796  20.331  0.00  0.00    +0.000 A 
ATOM     19  C   UNL     1       0.791   9.043  21.584  0.00  0.00    +0.000 A 
ATOM     20  C   UNL     1      -0.184  10.098  21.669  0.00  0.00    +0.000 A 
ATOM     21  S   UNL     1      -1.042  10.718  23.047  0.00  0.00    +0.000 S 
ENDBRANCH   5  13
BRANCH   1  25
ATOM     22  C   UNL     1      -6.333  11.486  19.859  0.00  0.00    +0.000 C 
ATOM     23  C   UNL     1      -5.545  12.553  20.628  0.00  0.00    +0.000 C 
ATOM     24  O   UNL     1      -5.059  13.519  20.006  0.00  0.00    +0.000 OA
ATOM     25  N   UNL     1      -5.376  12.319  21.986  0.00  0.00    +0.000 N 
ATOM     26  H   UNL     1      -5.404  11.321  22.198  0.00  0.00    +0.000 HD
ENDBRANCH   1  25
TORSDOF 2
ENDMDL
MODEL 9
REMARK VINA RESULT:      -6.0      7.610     10.383
REMARK  Name = 
REMARK  5 active torsions:
REMARK  status: ('A' for Active; 'I' for Inactive)
REMARK    1  A    between atoms: C_1  and  C_2
REMARK    2  A    between atoms: N_4  and  C_5
REMARK    3  A    between atoms: C_9  and  C_10
REMARK    4  A    between atoms: C_20  and  C_21
REMARK    5  A    between atoms: C_23  and  C_24
REMARK                            x       y       z     vdW  Elec       q    Type
REMARK                         _______ _______ _______ _____ _____    ______ ____
ROOT
ATOM      1  C   UNL     1      -3.364  11.978  18.144  0.00  0.00    +0.000 A 
ATOM      2  S   UNL     1      -4.995  11.539  18.421  0.00  0.00    +0.000 S 
ATOM      3  C   UNL     1      -5.048  12.152  19.997  0.00  0.00    +0.000 A 
ATOM      4  C   UNL     1      -3.811  12.659  20.410  0.00  0.00    +0.000 A 
ATOM      5  C   UNL     1      -2.728  12.499  19.300  0.00  0.00    +0.000 A 
ATOM      6  C   UNL     1      -3.809  13.303  21.829  0.00  0.00    +0.000 C 
ATOM      7  C   UNL     1      -5.068  12.894  22.705  0.00  0.00    +0.000 C 
ATOM      8  C   UNL     1      -5.239  13.730  23.987  0.00  0.00    +0.000 C 
ATOM      9  N   UNL     1      -6.328  13.011  21.952  0.00  0.00    +0.000 NA
ATOM     10  C   UNL     1      -6.344  12.077  20.813  0.00  0.00    +0.000 C 
ATOM     11  C   UNL     1      -7.589  12.389  19.970  0.00  0.00    +0.000 C 
ATOM     12  H   UNL     1      -6.445  13.966  21.616  0.00  0.00    +0.000 HD
ENDROOT
BRANCH   5  13
ATOM     13  C   UNL     1      -1.143  12.958  19.413  0.00  0.00    +0.000 A 
ATOM     14  N   UNL     1      -0.409  13.621  18.514  0.00  0.00    +0.000 NA
ATOM     15  C   UNL     1       0.950  13.851  18.970  0.00  0.00    +0.000 A 
ATOM     16  C   UNL     1       2.019  14.514  18.325  0.00  0.00    +0.000 A 
ATOM     17  N   UNL     1       3.249  14.703  18.904  0.00  0.00    +0.000 NA
ATOM     18  C   UNL     1       3.471  14.219  20.141  0.00  0.00    +0.000 A 
ATOM     19  C   UNL     1       2.519  13.532  20.875  0.00  0.00    +0.000 A 
ATOM     20  C   UNL     1       1.233  13.359  20.254  0.00  0.00    +0.000 A 
ATOM     21  S   UNL     1      -0.206  12.595  20.859  0.00  0.00    +0.000 S 
ENDBRANCH   5  13
BRANCH   1  25
ATOM     22  C   UNL     1      -2.801  10.104  14.920  0.00  0.00    +0.000 C 
ATOM     23  C   UNL     1      -2.618  10.462  16.399  0.00  0.00    +0.000 C 
ATOM     24  O   UNL     1      -2.111   9.624  17.173  0.00  0.00    +0.000 OA
ATOM     25  N   UNL     1      -3.101  11.706  16.785  0.00  0.00    +0.000 N 
ATOM     26  H   UNL     1      -3.866  12.011  16.181  0.00  0.00    +0.000 HD
ENDBRANCH   1  25
TORSDOF 2
ENDMDL
