MODEL 1
REMARK VINA RESULT:      -7.5      0.000      0.000
REMARK  Name = 
REMARK  3 active torsions:
REMARK  status: ('A' for Active; 'I' for Inactive)
REMARK    1  A    between atoms: C_2  and  O_3
REMARK    2  A    between atoms: C_2  and  C_4
REMARK    3  A    between atoms: C_4  and  C_5
REMARK                            x       y       z     vdW  Elec       q    Type
REMARK                         _______ _______ _______ _____ _____    ______ ____
ROOT
ATOM      1  C   UNL     1       6.762   4.525  17.254  0.00  0.00    +0.000 A 
ATOM      2  C   UNL     1       6.938   4.924  15.919  0.00  0.00    +0.000 A 
ATOM      3  C   UNL     1       5.877   4.874  15.011  0.00  0.00    +0.000 A 
ATOM      4  C   UNL     1       4.624   4.433  15.427  0.00  0.00    +0.000 A 
ATOM      5  C   UNL     1       4.435   4.051  16.758  0.00  0.00    +0.000 A 
ATOM      6  C   UNL     1       3.117   3.602  17.222  0.00  0.00    +0.000 A 
ATOM      7  O   UNL     1       2.152   3.534  16.471  0.00  0.00    +0.000 OA
ATOM      8  C   UNL     1       3.003   3.237  18.637  0.00  0.00    +0.000 A 
ATOM      9  C   UNL     1       1.795   2.816  19.192  0.00  0.00    +0.000 A 
ATOM     10  C   UNL     1       1.758   2.487  20.543  0.00  0.00    +0.000 A 
ATOM     11  C   UNL     1       2.930   2.597  21.278  0.00  0.00    +0.000 A 
ATOM     12  N   UNL     1       4.109   3.012  20.759  0.00  0.00    +0.000 NA
ATOM     13  C   UNL     1       4.125   3.323  19.444  0.00  0.00    +0.000 A 
ATOM     14  O   UNL     1       5.351   3.752  18.994  0.00  0.00    +0.000 OA
ATOM     15  C   UNL     1       5.490   4.097  17.671  0.00  0.00    +0.000 A 
ENDROOT
BRANCH   1  16
ATOM     16  C   UNL     1       7.935   4.591  18.208  0.00  0.00    +0.000 C 
BRANCH  16  18
ATOM     17  O   UNL     1       8.105   6.948  18.693  0.00  0.00    +0.000 OA
ATOM     18  C   UNL     1       7.922   5.809  19.100  0.00  0.00    +0.000 C 
BRANCH  18  19
ATOM     19  O   UNL     1       7.712   5.539  20.408  0.00  0.00    +0.000 OA
ATOM     20  H   UNL     1       8.456   5.082  20.844  0.00  0.00    +0.000 HD
ENDBRANCH  18  19
ENDBRANCH  16  18
ENDBRANCH   1  16
TORSDOF 3
ENDMDL
MODEL 2
REMARK VINA RESULT:      -7.5      1.367      1.463
REMARK  Name = 
REMARK  3 active torsions:
REMARK  status: ('A' for Active; 'I' for Inactive)
REMARK    1  A    between atoms: C_2  and  O_3
REMARK    2  A    between atoms: C_2  and  C_4
REMARK    3  A    between atoms: C_4  and  C_5
REMARK                            x       y       z     vdW  Elec       q    Type
REMARK                         _______ _______ _______ _____ _____    ______ ____
ROOT
ATOM      1  C   UNL     1       6.645   5.067  17.479  0.00  0.00    +0.000 A 
ATOM      2  C   UNL     1       7.154   4.764  16.206  0.00  0.00    +0.000 A 
ATOM      3  C   UNL     1       6.374   4.088  15.264  0.00  0.00    +0.000 A 
ATOM      4  C   UNL     1       5.070   3.713  15.580  0.00  0.00    +0.000 A 
ATOM      5  C   UNL     1       4.549   4.026  16.838  0.00  0.00    +0.000 A 
ATOM      6  C   UNL     1       3.171   3.658  17.183  0.00  0.00    +0.000 A 
ATOM      7  O   UNL     1       2.442   3.062  16.401  0.00  0.00    +0.000 OA
ATOM      8  C   UNL     1       2.699   4.041  18.518  0.00  0.00    +0.000 A 
ATOM      9  C   UNL     1       1.403   3.760  18.947  0.00  0.00    +0.000 A 
ATOM     10  C   UNL     1       1.020   4.154  20.224  0.00  0.00    +0.000 A 
ATOM     11  C   UNL     1       1.951   4.813  21.014  0.00  0.00    +0.000 A 
ATOM     12  N   UNL     1       3.211   5.102  20.613  0.00  0.00    +0.000 NA
ATOM     13  C   UNL     1       3.564   4.707  19.369  0.00  0.00    +0.000 A 
ATOM     14  O   UNL     1       4.850   5.050  19.026  0.00  0.00    +0.000 OA
ATOM     15  C   UNL     1       5.323   4.701  17.784  0.00  0.00    +0.000 A 
ENDROOT
BRANCH   1  16
ATOM     16  C   UNL     1       7.521   5.799  18.472  0.00  0.00    +0.000 C 
BRANCH  16  18
ATOM     17  O   UNL     1       7.283   7.790  17.131  0.00  0.00    +0.000 OA
ATOM     18  C   UNL     1       7.786   7.238  18.100  0.00  0.00    +0.000 C 
BRANCH  18  19
ATOM     19  O   UNL     1       8.654   7.873  18.920  0.00  0.00    +0.000 OA
ATOM     20  H   UNL     1       8.279   8.655  19.367  0.00  0.00    +0.000 HD
ENDBRANCH  18  19
ENDBRANCH  16  18
ENDBRANCH   1  16
TORSDOF 3
ENDMDL
MODEL 3
REMARK VINA RESULT:      -7.4      1.579      1.739
REMARK  Name = 
REMARK  3 active torsions:
REMARK  status: ('A' for Active; 'I' for Inactive)
REMARK    1  A    between atoms: C_2  and  O_3
REMARK    2  A    between atoms: C_2  and  C_4
REMARK    3  A    between atoms: C_4  and  C_5
REMARK                            x       y       z     vdW  Elec       q    Type
REMARK                         _______ _______ _______ _____ _____    ______ ____
ROOT
ATOM      1  C   UNL     1       6.194   5.713  16.906  0.00  0.00    +0.000 A 
ATOM      2  C   UNL     1       6.744   5.189  15.725  0.00  0.00    +0.000 A 
ATOM      3  C   UNL     1       6.133   4.120  15.064  0.00  0.00    +0.000 A 
ATOM      4  C   UNL     1       4.960   3.566  15.570  0.00  0.00    +0.000 A 
ATOM      5  C   UNL     1       4.396   4.093  16.734  0.00  0.00    +0.000 A 
ATOM      6  C   UNL     1       3.149   3.536  17.273  0.00  0.00    +0.000 A 
ATOM      7  O   UNL     1       2.572   2.598  16.739  0.00  0.00    +0.000 OA
ATOM      8  C   UNL     1       2.618   4.160  18.489  0.00  0.00    +0.000 A 
ATOM      9  C   UNL     1       1.431   3.728  19.078  0.00  0.00    +0.000 A 
ATOM     10  C   UNL     1       0.983   4.366  20.229  0.00  0.00    +0.000 A 
ATOM     11  C   UNL     1       1.742   5.410  20.738  0.00  0.00    +0.000 A 
ATOM     12  N   UNL     1       2.892   5.850  20.176  0.00  0.00    +0.000 NA
ATOM     13  C   UNL     1       3.312   5.214  19.059  0.00  0.00    +0.000 A 
ATOM     14  O   UNL     1       4.475   5.727  18.537  0.00  0.00    +0.000 OA
ATOM     15  C   UNL     1       5.000   5.160  17.401  0.00  0.00    +0.000 A 
ENDROOT
BRANCH   1  16
ATOM     16  C   UNL     1       6.884   6.870  17.595  0.00  0.00    +0.000 C 
BRANCH  16  18
ATOM     17  O   UNL     1       7.939   5.301  19.094  0.00  0.00    +0.000 OA
ATOM     18  C   UNL     1       7.869   6.441  18.657  0.00  0.00    +0.000 C 
BRANCH  18  19
ATOM     19  O   UNL     1       8.665   7.435  19.111  0.00  0.00    +0.000 OA
ATOM     20  H   UNL     1       9.363   7.137  19.724  0.00  0.00    +0.000 HD
ENDBRANCH  18  19
ENDBRANCH  16  18
ENDBRANCH   1  16
TORSDOF 3
ENDMDL
MODEL 4
REMARK VINA RESULT:      -7.3      2.473      2.862
REMARK  Name = 
REMARK  3 active torsions:
REMARK  status: ('A' for Active; 'I' for Inactive)
REMARK    1  A    between atoms: C_2  and  O_3
REMARK    2  A    between atoms: C_2  and  C_4
REMARK    3  A    between atoms: C_4  and  C_5
REMARK                            x       y       z     vdW  Elec       q    Type
REMARK                         _______ _______ _______ _____ _____    ______ ____
ROOT
ATOM      1  C   UNL     1       4.949   5.346  16.670  0.00  0.00    +0.000 A 
ATOM      2  C   UNL     1       4.953   6.610  16.059  0.00  0.00    +0.000 A 
ATOM      3  C   UNL     1       4.195   7.661  16.582  0.00  0.00    +0.000 A 
ATOM      4  C   UNL     1       3.430   7.464  17.729  0.00  0.00    +0.000 A 
ATOM      5  C   UNL     1       3.434   6.215  18.354  0.00  0.00    +0.000 A 
ATOM      6  C   UNL     1       2.649   5.993  19.575  0.00  0.00    +0.000 A 
ATOM      7  O   UNL     1       1.964   6.875  20.077  0.00  0.00    +0.000 OA
ATOM      8  C   UNL     1       2.725   4.658  20.175  0.00  0.00    +0.000 A 
ATOM      9  C   UNL     1       2.039   4.339  21.346  0.00  0.00    +0.000 A 
ATOM     10  C   UNL     1       2.157   3.053  21.862  0.00  0.00    +0.000 A 
ATOM     11  C   UNL     1       2.958   2.145  21.186  0.00  0.00    +0.000 A 
ATOM     12  N   UNL     1       3.640   2.438  20.054  0.00  0.00    +0.000 NA
ATOM     13  C   UNL     1       3.508   3.692  19.566  0.00  0.00    +0.000 A 
ATOM     14  O   UNL     1       4.242   3.920  18.426  0.00  0.00    +0.000 OA
ATOM     15  C   UNL     1       4.188   5.160  17.837  0.00  0.00    +0.000 A 
ENDROOT
BRANCH   1  16
ATOM     16  C   UNL     1       5.781   4.232  16.074  0.00  0.00    +0.000 C 
BRANCH  16  18
ATOM     17  O   UNL     1       7.739   5.145  15.000  0.00  0.00    +0.000 OA
ATOM     18  C   UNL     1       7.249   4.566  15.961  0.00  0.00    +0.000 C 
BRANCH  18  19
ATOM     19  O   UNL     1       7.997   4.150  17.007  0.00  0.00    +0.000 OA
ATOM     20  H   UNL     1       7.624   4.379  17.879  0.00  0.00    +0.000 HD
ENDBRANCH  18  19
ENDBRANCH  16  18
ENDBRANCH   1  16
TORSDOF 3
ENDMDL
MODEL 5
REMARK VINA RESULT:      -7.3      2.701      5.773
REMARK  Name = 
REMARK  3 active torsions:
REMARK  status: ('A' for Active; 'I' for Inactive)
REMARK    1  A    between atoms: C_2  and  O_3
REMARK    2  A    between atoms: C_2  and  C_4
REMARK    3  A    between atoms: C_4  and  C_5
REMARK                            x       y       z     vdW  Elec       q    Type
REMARK                         _______ _______ _______ _____ _____    ______ ____
ROOT
ATOM      1  C   UNL     1       2.190   4.385  20.000  0.00  0.00    +0.000 A 
ATOM      2  C   UNL     1       1.449   5.251  20.821  0.00  0.00    +0.000 A 
ATOM      3  C   UNL     1       1.497   6.635  20.630  0.00  0.00    +0.000 A 
ATOM      4  C   UNL     1       2.278   7.171  19.609  0.00  0.00    +0.000 A 
ATOM      5  C   UNL     1       3.004   6.315  18.776  0.00  0.00    +0.000 A 
ATOM      6  C   UNL     1       3.818   6.859  17.683  0.00  0.00    +0.000 A 
ATOM      7  O   UNL     1       3.900   8.062  17.469  0.00  0.00    +0.000 OA
ATOM      8  C   UNL     1       4.533   5.890  16.846  0.00  0.00    +0.000 A 
ATOM      9  C   UNL     1       5.320   6.291  15.767  0.00  0.00    +0.000 A 
ATOM     10  C   UNL     1       5.968   5.318  15.014  0.00  0.00    +0.000 A 
ATOM     11  C   UNL     1       5.799   3.989  15.373  0.00  0.00    +0.000 A 
ATOM     12  N   UNL     1       5.033   3.580  16.411  0.00  0.00    +0.000 NA
ATOM     13  C   UNL     1       4.413   4.541  17.132  0.00  0.00    +0.000 A 
ATOM     14  O   UNL     1       3.641   4.049  18.157  0.00  0.00    +0.000 OA
ATOM     15  C   UNL     1       2.962   4.933  18.962  0.00  0.00    +0.000 A 
ENDROOT
BRANCH   1  16
ATOM     16  C   UNL     1       2.115   2.893  20.239  0.00  0.00    +0.000 C 
BRANCH  16  18
ATOM     17  O   UNL     1       0.307   2.157  18.822  0.00  0.00    +0.000 OA
ATOM     18  C   UNL     1       1.500   2.127  19.093  0.00  0.00    +0.000 C 
BRANCH  18  19
ATOM     19  O   UNL     1       2.377   1.373  18.393  0.00  0.00    +0.000 OA
ATOM     20  H   UNL     1       3.305   1.664  18.475  0.00  0.00    +0.000 HD
ENDBRANCH  18  19
ENDBRANCH  16  18
ENDBRANCH   1  16
TORSDOF 3
ENDMDL
MODEL 6
REMARK VINA RESULT:      -7.3      4.887      5.675
REMARK  Name = 
REMARK  3 active torsions:
REMARK  status: ('A' for Active; 'I' for Inactive)
REMARK    1  A    between atoms: C_2  and  O_3
REMARK    2  A    between atoms: C_2  and  C_4
REMARK    3  A    between atoms: C_4  and  C_5
REMARK                            x       y       z     vdW  Elec       q    Type
REMARK                         _______ _______ _______ _____ _____    ______ ____
ROOT
ATOM      1  C   UNL     1       1.053   8.417  20.293  0.00  0.00    +0.000 A 
ATOM      2  C   UNL     1       1.117   9.520  19.425  0.00  0.00    +0.000 A 
ATOM      3  C   UNL     1       1.882   9.468  18.257  0.00  0.00    +0.000 A 
ATOM      4  C   UNL     1       2.587   8.311  17.936  0.00  0.00    +0.000 A 
ATOM      5  C   UNL     1       2.515   7.203  18.785  0.00  0.00    +0.000 A 
ATOM      6  C   UNL     1       3.235   5.967  18.455  0.00  0.00    +0.000 A 
ATOM      7  O   UNL     1       3.923   5.864  17.447  0.00  0.00    +0.000 OA
ATOM      8  C   UNL     1       3.090   4.848  19.391  0.00  0.00    +0.000 A 
ATOM      9  C   UNL     1       3.711   3.620  19.169  0.00  0.00    +0.000 A 
ATOM     10  C   UNL     1       3.529   2.600  20.097  0.00  0.00    +0.000 A 
ATOM     11  C   UNL     1       2.732   2.854  21.204  0.00  0.00    +0.000 A 
ATOM     12  N   UNL     1       2.114   4.036  21.432  0.00  0.00    +0.000 NA
ATOM     13  C   UNL     1       2.306   5.016  20.520  0.00  0.00    +0.000 A 
ATOM     14  O   UNL     1       1.634   6.179  20.810  0.00  0.00    +0.000 OA
ATOM     15  C   UNL     1       1.754   7.247  19.954  0.00  0.00    +0.000 A 
ENDROOT
BRANCH   1  16
ATOM     16  C   UNL     1       0.216   8.511  21.550  0.00  0.00    +0.000 C 
BRANCH  16  18
ATOM     17  O   UNL     1       0.223  10.032  23.423  0.00  0.00    +0.000 OA
ATOM     18  C   UNL     1       0.856   9.332  22.644  0.00  0.00    +0.000 C 
BRANCH  18  19
ATOM     19  O   UNL     1       2.205   9.253  22.682  0.00  0.00    +0.000 OA
ATOM     20  H   UNL     1       2.590   8.684  21.989  0.00  0.00    +0.000 HD
ENDBRANCH  18  19
ENDBRANCH  16  18
ENDBRANCH   1  16
TORSDOF 3
ENDMDL
MODEL 7
REMARK VINA RESULT:      -7.2      2.316      4.945
REMARK  Name = 
REMARK  3 active torsions:
REMARK  status: ('A' for Active; 'I' for Inactive)
REMARK    1  A    between atoms: C_2  and  O_3
REMARK    2  A    between atoms: C_2  and  C_4
REMARK    3  A    between atoms: C_4  and  C_5
REMARK                            x       y       z     vdW  Elec       q    Type
REMARK                         _______ _______ _______ _____ _____    ______ ____
ROOT
ATOM      1  C   UNL     1       3.039   3.281  19.820  0.00  0.00    +0.000 A 
ATOM      2  C   UNL     1       1.743   3.119  19.303  0.00  0.00    +0.000 A 
ATOM      3  C   UNL     1       1.297   3.896  18.231  0.00  0.00    +0.000 A 
ATOM      4  C   UNL     1       2.144   4.839  17.654  0.00  0.00    +0.000 A 
ATOM      5  C   UNL     1       3.442   4.994  18.150  0.00  0.00    +0.000 A 
ATOM      6  C   UNL     1       4.357   5.969  17.543  0.00  0.00    +0.000 A 
ATOM      7  O   UNL     1       4.021   6.679  16.604  0.00  0.00    +0.000 OA
ATOM      8  C   UNL     1       5.704   6.053  18.114  0.00  0.00    +0.000 A 
ATOM      9  C   UNL     1       6.663   6.928  17.606  0.00  0.00    +0.000 A 
ATOM     10  C   UNL     1       7.924   6.956  18.193  0.00  0.00    +0.000 A 
ATOM     11  C   UNL     1       8.168   6.105  19.261  0.00  0.00    +0.000 A 
ATOM     12  N   UNL     1       7.254   5.242  19.763  0.00  0.00    +0.000 NA
ATOM     13  C   UNL     1       6.034   5.234  19.180  0.00  0.00    +0.000 A 
ATOM     14  O   UNL     1       5.166   4.322  19.731  0.00  0.00    +0.000 OA
ATOM     15  C   UNL     1       3.893   4.222  19.221  0.00  0.00    +0.000 A 
ENDROOT
BRANCH   1  16
ATOM     16  C   UNL     1       3.485   2.423  20.983  0.00  0.00    +0.000 C 
BRANCH  16  18
ATOM     17  O   UNL     1       5.567   1.325  21.511  0.00  0.00    +0.000 OA
ATOM     18  C   UNL     1       4.704   1.583  20.684  0.00  0.00    +0.000 C 
BRANCH  18  19
ATOM     19  O   UNL     1       4.782   1.151  19.405  0.00  0.00    +0.000 OA
ATOM     20  H   UNL     1       5.069   0.223  19.316  0.00  0.00    +0.000 HD
ENDBRANCH  18  19
ENDBRANCH  16  18
ENDBRANCH   1  16
TORSDOF 3
ENDMDL
MODEL 8
REMARK VINA RESULT:      -7.1      2.578      5.312
REMARK  Name = 
REMARK  3 active torsions:
REMARK  status: ('A' for Active; 'I' for Inactive)
REMARK    1  A    between atoms: C_2  and  O_3
REMARK    2  A    between atoms: C_2  and  C_4
REMARK    3  A    between atoms: C_4  and  C_5
REMARK                            x       y       z     vdW  Elec       q    Type
REMARK                         _______ _______ _______ _____ _____    ______ ____
ROOT
ATOM      1  C   UNL     1       2.630   3.601  19.640  0.00  0.00    +0.000 A 
ATOM      2  C   UNL     1       1.829   4.294  20.561  0.00  0.00    +0.000 A 
ATOM      3  C   UNL     1       1.727   5.687  20.516  0.00  0.00    +0.000 A 
ATOM      4  C   UNL     1       2.419   6.406  19.544  0.00  0.00    +0.000 A 
ATOM      5  C   UNL     1       3.205   5.722  18.612  0.00  0.00    +0.000 A 
ATOM      6  C   UNL     1       3.926   6.459  17.567  0.00  0.00    +0.000 A 
ATOM      7  O   UNL     1       3.877   7.679  17.480  0.00  0.00    +0.000 OA
ATOM      8  C   UNL     1       4.712   5.663  16.620  0.00  0.00    +0.000 A 
ATOM      9  C   UNL     1       5.421   6.253  15.575  0.00  0.00    +0.000 A 
ATOM     10  C   UNL     1       6.145   5.438  14.712  0.00  0.00    +0.000 A 
ATOM     11  C   UNL     1       6.124   4.068  14.931  0.00  0.00    +0.000 A 
ATOM     12  N   UNL     1       5.435   3.475  15.934  0.00  0.00    +0.000 NA
ATOM     13  C   UNL     1       4.741   4.286  16.764  0.00  0.00    +0.000 A 
ATOM     14  O   UNL     1       4.054   3.612  17.746  0.00  0.00    +0.000 OA
ATOM     15  C   UNL     1       3.311   4.332  18.651  0.00  0.00    +0.000 A 
ENDROOT
BRANCH   1  16
ATOM     16  C   UNL     1       2.717   2.093  19.721  0.00  0.00    +0.000 C 
BRANCH  16  18
ATOM     17  O   UNL     1       4.972   1.865  20.549  0.00  0.00    +0.000 OA
ATOM     18  C   UNL     1       4.133   1.567  19.710  0.00  0.00    +0.000 C 
BRANCH  18  19
ATOM     19  O   UNL     1       4.413   0.746  18.673  0.00  0.00    +0.000 OA
ATOM     20  H   UNL     1       3.633   0.291  18.303  0.00  0.00    +0.000 HD
ENDBRANCH  18  19
ENDBRANCH  16  18
ENDBRANCH   1  16
TORSDOF 3
ENDMDL
MODEL 9
REMARK VINA RESULT:      -7.1      1.128      1.192
REMARK  Name = 
REMARK  3 active torsions:
REMARK  status: ('A' for Active; 'I' for Inactive)
REMARK    1  A    between atoms: C_2  and  O_3
REMARK    2  A    between atoms: C_2  and  C_4
REMARK    3  A    between atoms: C_4  and  C_5
REMARK                            x       y       z     vdW  Elec       q    Type
REMARK                         _______ _______ _______ _____ _____    ______ ____
ROOT
ATOM      1  C   UNL     1       6.157   5.534  17.556  0.00  0.00    +0.000 A 
ATOM      2  C   UNL     1       6.595   5.505  16.222  0.00  0.00    +0.000 A 
ATOM      3  C   UNL     1       5.850   4.851  15.238  0.00  0.00    +0.000 A 
ATOM      4  C   UNL     1       4.652   4.224  15.571  0.00  0.00    +0.000 A 
ATOM      5  C   UNL     1       4.199   4.263  16.893  0.00  0.00    +0.000 A 
ATOM      6  C   UNL     1       2.930   3.625  17.262  0.00  0.00    +0.000 A 
ATOM      7  O   UNL     1       2.236   3.036  16.443  0.00  0.00    +0.000 OA
ATOM      8  C   UNL     1       2.522   3.729  18.666  0.00  0.00    +0.000 A 
ATOM      9  C   UNL     1       1.326   3.179  19.126  0.00  0.00    +0.000 A 
ATOM     10  C   UNL     1       0.999   3.317  20.471  0.00  0.00    +0.000 A 
ATOM     11  C   UNL     1       1.882   4.000  21.294  0.00  0.00    +0.000 A 
ATOM     12  N   UNL     1       3.043   4.549  20.865  0.00  0.00    +0.000 NA
ATOM     13  C   UNL     1       3.344   4.401  19.555  0.00  0.00    +0.000 A 
ATOM     14  O   UNL     1       4.527   4.997  19.190  0.00  0.00    +0.000 OA
ATOM     15  C   UNL     1       4.939   4.913  17.882  0.00  0.00    +0.000 A 
ENDROOT
BRANCH   1  16
ATOM     16  C   UNL     1       6.992   6.250  18.595  0.00  0.00    +0.000 C 
BRANCH  16  18
ATOM     17  O   UNL     1       8.595   4.455  18.766  0.00  0.00    +0.000 OA
ATOM     18  C   UNL     1       7.965   5.348  19.316  0.00  0.00    +0.000 C 
BRANCH  18  19
ATOM     19  O   UNL     1       8.072   5.591  20.642  0.00  0.00    +0.000 OA
ATOM     20  H   UNL     1       8.983   5.523  20.986  0.00  0.00    +0.000 HD
ENDBRANCH  18  19
ENDBRANCH  16  18
ENDBRANCH   1  16
TORSDOF 3
ENDMDL
