MODEL 1
REMARK VINA RESULT:      -6.5      0.000      0.000
REMARK  Name = 
REMARK  5 active torsions:
REMARK  status: ('A' for Active; 'I' for Inactive)
REMARK    1  A    between atoms: C_2  and  C_13
REMARK    2  A    between atoms: N_3  and  O_4
REMARK    3  A    between atoms: O_4  and  C_5
REMARK    4  A    between atoms: C_5  and  C_7
REMARK    5  A    between atoms: C_7  and  C_8
REMARK                            x       y       z     vdW  Elec       q    Type
REMARK                         _______ _______ _______ _____ _____    ______ ____
ROOT
ATOM      1  N   UNL     1       5.426   3.532  16.678  0.00  0.00    +0.000 NA
ATOM      2  C   UNL     1       5.653   4.040  17.851  0.00  0.00    +0.000 C 
ATOM      3  N   UNL     1       5.269   3.396  19.006  0.00  0.00    +0.000 N 
ATOM      4  H   UNL     1       4.966   2.626  16.829  0.00  0.00    +0.000 HD
ATOM      5  H   UNL     1       5.172   3.958  19.849  0.00  0.00    +0.000 HD
ENDROOT
BRANCH   2   6
ATOM      6  C   UNL     1       6.361   5.353  17.930  0.00  0.00    +0.000 A 
ATOM      7  C   UNL     1       5.893   6.427  17.163  0.00  0.00    +0.000 A 
ATOM      8  C   UNL     1       6.543   7.662  17.202  0.00  0.00    +0.000 A 
ATOM      9  C   UNL     1       7.674   7.818  18.003  0.00  0.00    +0.000 A 
ATOM     10 BR   UNL     1       8.572   9.481  18.041  0.00  0.00    +0.000 Br
ATOM     11  C   UNL     1       8.151   6.755  18.770  0.00  0.00    +0.000 A 
ATOM     12  C   UNL     1       7.497   5.519  18.733  0.00  0.00    +0.000 A 
ENDBRANCH   2   6
BRANCH   3  13
ATOM     13  O   UNL     1       4.198   2.506  18.812  0.00  0.00    +0.000 OA
BRANCH  13  14
ATOM     14  C   UNL     1       3.192   2.690  19.728  0.00  0.00    +0.000 C 
ATOM     15  O   UNL     1       3.267   2.407  20.920  0.00  0.00    +0.000 OA
BRANCH  14  16
ATOM     16  C   UNL     1       2.000   3.348  19.082  0.00  0.00    +0.000 C 
BRANCH  16  17
ATOM     17  C   UNL     1       2.160   4.834  19.045  0.00  0.00    +0.000 A 
ATOM     18  C   UNL     1       2.351   5.646  17.944  0.00  0.00    +0.000 A 
ATOM     19  C   UNL     1       2.418   7.026  18.294  0.00  0.00    +0.000 A 
ATOM     20  C   UNL     1       2.278   7.222  19.649  0.00  0.00    +0.000 A 
ATOM     21  S   UNL     1       2.066   5.749  20.490  0.00  0.00    +0.000 S 
ENDBRANCH  16  17
ENDBRANCH  14  16
ENDBRANCH  13  14
ENDBRANCH   3  13
TORSDOF 5
ENDMDL
MODEL 2
REMARK VINA RESULT:      -6.5      3.096      3.978
REMARK  Name = 
REMARK  5 active torsions:
REMARK  status: ('A' for Active; 'I' for Inactive)
REMARK    1  A    between atoms: C_2  and  C_13
REMARK    2  A    between atoms: N_3  and  O_4
REMARK    3  A    between atoms: O_4  and  C_5
REMARK    4  A    between atoms: C_5  and  C_7
REMARK    5  A    between atoms: C_7  and  C_8
REMARK                            x       y       z     vdW  Elec       q    Type
REMARK                         _______ _______ _______ _____ _____    ______ ____
ROOT
ATOM      1  N   UNL     1       5.825   3.969  18.947  0.00  0.00    +0.000 NA
ATOM      2  C   UNL     1       5.477   4.887  18.097  0.00  0.00    +0.000 C 
ATOM      3  N   UNL     1       4.797   6.019  18.492  0.00  0.00    +0.000 N 
ATOM      4  H   UNL     1       5.520   4.288  19.874  0.00  0.00    +0.000 HD
ATOM      5  H   UNL     1       4.276   6.527  17.781  0.00  0.00    +0.000 HD
ENDROOT
BRANCH   2   6
ATOM      6  C   UNL     1       5.841   4.699  16.661  0.00  0.00    +0.000 A 
ATOM      7  C   UNL     1       4.935   4.060  15.806  0.00  0.00    +0.000 A 
ATOM      8  C   UNL     1       5.254   3.853  14.462  0.00  0.00    +0.000 A 
ATOM      9  C   UNL     1       6.490   4.279  13.976  0.00  0.00    +0.000 A 
ATOM     10 BR   UNL     1       6.936   3.982  12.163  0.00  0.00    +0.000 Br
ATOM     11  C   UNL     1       7.402   4.916  14.819  0.00  0.00    +0.000 A 
ATOM     12  C   UNL     1       7.080   5.125  16.164  0.00  0.00    +0.000 A 
ENDBRANCH   2   6
BRANCH   3  13
ATOM     13  O   UNL     1       4.072   5.840  19.683  0.00  0.00    +0.000 OA
BRANCH  13  14
ATOM     14  C   UNL     1       2.784   6.304  19.587  0.00  0.00    +0.000 C 
ATOM     15  O   UNL     1       2.465   7.409  19.159  0.00  0.00    +0.000 OA
BRANCH  14  16
ATOM     16  C   UNL     1       1.805   5.241  20.018  0.00  0.00    +0.000 C 
BRANCH  16  17
ATOM     17  C   UNL     1       2.077   3.945  19.325  0.00  0.00    +0.000 A 
ATOM     18  C   UNL     1       1.937   3.646  17.984  0.00  0.00    +0.000 A 
ATOM     19  C   UNL     1       2.335   2.311  17.682  0.00  0.00    +0.000 A 
ATOM     20  C   UNL     1       2.762   1.635  18.802  0.00  0.00    +0.000 A 
ATOM     21  S   UNL     1       2.685   2.606  20.206  0.00  0.00    +0.000 S 
ENDBRANCH  16  17
ENDBRANCH  14  16
ENDBRANCH  13  14
ENDBRANCH   3  13
TORSDOF 5
ENDMDL
MODEL 3
REMARK VINA RESULT:      -6.4      2.935      3.928
REMARK  Name = 
REMARK  5 active torsions:
REMARK  status: ('A' for Active; 'I' for Inactive)
REMARK    1  A    between atoms: C_2  and  C_13
REMARK    2  A    between atoms: N_3  and  O_4
REMARK    3  A    between atoms: O_4  and  C_5
REMARK    4  A    between atoms: C_5  and  C_7
REMARK    5  A    between atoms: C_7  and  C_8
REMARK                            x       y       z     vdW  Elec       q    Type
REMARK                         _______ _______ _______ _____ _____    ______ ____
ROOT
ATOM      1  N   UNL     1       5.366   3.681  19.138  0.00  0.00    +0.000 NA
ATOM      2  C   UNL     1       5.225   4.712  18.363  0.00  0.00    +0.000 C 
ATOM      3  N   UNL     1       4.677   5.891  18.818  0.00  0.00    +0.000 N 
ATOM      4  H   UNL     1       5.027   3.957  20.068  0.00  0.00    +0.000 HD
ATOM      5  H   UNL     1       4.295   6.532  18.125  0.00  0.00    +0.000 HD
ENDROOT
BRANCH   2   6
ATOM      6  C   UNL     1       5.685   4.602  16.946  0.00  0.00    +0.000 A 
ATOM      7  C   UNL     1       6.988   4.998  16.620  0.00  0.00    +0.000 A 
ATOM      8  C   UNL     1       7.442   4.923  15.302  0.00  0.00    +0.000 A 
ATOM      9  C   UNL     1       6.584   4.460  14.305  0.00  0.00    +0.000 A 
ATOM     10 BR   UNL     1       7.186   4.379  12.514  0.00  0.00    +0.000 Br
ATOM     11  C   UNL     1       5.283   4.064  14.617  0.00  0.00    +0.000 A 
ATOM     12  C   UNL     1       4.830   4.137  15.939  0.00  0.00    +0.000 A 
ENDBRANCH   2   6
BRANCH   3  13
ATOM     13  O   UNL     1       3.831   5.715  19.927  0.00  0.00    +0.000 OA
BRANCH  13  14
ATOM     14  C   UNL     1       2.619   6.339  19.767  0.00  0.00    +0.000 C 
ATOM     15  O   UNL     1       2.467   7.475  19.330  0.00  0.00    +0.000 OA
BRANCH  14  16
ATOM     16  C   UNL     1       1.492   5.411  20.141  0.00  0.00    +0.000 C 
BRANCH  16  17
ATOM     17  C   UNL     1       1.678   4.061  19.524  0.00  0.00    +0.000 A 
ATOM     18  C   UNL     1       1.715   3.732  18.183  0.00  0.00    +0.000 A 
ATOM     19  C   UNL     1       1.955   2.343  17.973  0.00  0.00    +0.000 A 
ATOM     20  C   UNL     1       2.090   1.658  19.160  0.00  0.00    +0.000 A 
ATOM     21  S   UNL     1       1.930   2.686  20.515  0.00  0.00    +0.000 S 
ENDBRANCH  16  17
ENDBRANCH  14  16
ENDBRANCH  13  14
ENDBRANCH   3  13
TORSDOF 5
ENDMDL
MODEL 4
REMARK VINA RESULT:      -6.4      1.401      1.966
REMARK  Name = 
REMARK  5 active torsions:
REMARK  status: ('A' for Active; 'I' for Inactive)
REMARK    1  A    between atoms: C_2  and  C_13
REMARK    2  A    between atoms: N_3  and  O_4
REMARK    3  A    between atoms: O_4  and  C_5
REMARK    4  A    between atoms: C_5  and  C_7
REMARK    5  A    between atoms: C_7  and  C_8
REMARK                            x       y       z     vdW  Elec       q    Type
REMARK                         _______ _______ _______ _____ _____    ______ ____
ROOT
ATOM      1  N   UNL     1       4.007   2.006  17.789  0.00  0.00    +0.000 NA
ATOM      2  C   UNL     1       4.315   2.840  18.735  0.00  0.00    +0.000 C 
ATOM      3  N   UNL     1       3.888   2.653  20.032  0.00  0.00    +0.000 N 
ATOM      4  H   UNL     1       3.454   1.256  18.219  0.00  0.00    +0.000 HD
ATOM      5  H   UNL     1       3.872   3.466  20.644  0.00  0.00    +0.000 HD
ENDROOT
BRANCH   2   6
ATOM      6  C   UNL     1       5.165   4.020  18.393  0.00  0.00    +0.000 A 
ATOM      7  C   UNL     1       5.773   4.745  19.424  0.00  0.00    +0.000 A 
ATOM      8  C   UNL     1       6.559   5.863  19.137  0.00  0.00    +0.000 A 
ATOM      9  C   UNL     1       6.727   6.262  17.812  0.00  0.00    +0.000 A 
ATOM     10 BR   UNL     1       7.771   7.788  17.419  0.00  0.00    +0.000 Br
ATOM     11  C   UNL     1       6.125   5.548  16.775  0.00  0.00    +0.000 A 
ATOM     12  C   UNL     1       5.340   4.426  17.063  0.00  0.00    +0.000 A 
ENDBRANCH   2   6
BRANCH   3  13
ATOM     13  O   UNL     1       2.721   1.874  20.121  0.00  0.00    +0.000 OA
BRANCH  13  14
ATOM     14  C   UNL     1       1.724   2.504  20.824  0.00  0.00    +0.000 C 
ATOM     15  O   UNL     1       1.612   2.495  22.045  0.00  0.00    +0.000 OA
BRANCH  14  16
ATOM     16  C   UNL     1       0.818   3.265  19.890  0.00  0.00    +0.000 C 
BRANCH  16  17
ATOM     17  C   UNL     1       1.468   4.526  19.417  0.00  0.00    +0.000 A 
ATOM     18  C   UNL     1       1.686   4.940  18.117  0.00  0.00    +0.000 A 
ATOM     19  C   UNL     1       2.297   6.225  18.054  0.00  0.00    +0.000 A 
ATOM     20  C   UNL     1       2.527   6.749  19.306  0.00  0.00    +0.000 A 
ATOM     21  S   UNL     1       2.007   5.696  20.547  0.00  0.00    +0.000 S 
ENDBRANCH  16  17
ENDBRANCH  14  16
ENDBRANCH  13  14
ENDBRANCH   3  13
TORSDOF 5
ENDMDL
MODEL 5
REMARK VINA RESULT:      -6.3      3.378      4.981
REMARK  Name = 
REMARK  5 active torsions:
REMARK  status: ('A' for Active; 'I' for Inactive)
REMARK    1  A    between atoms: C_2  and  C_13
REMARK    2  A    between atoms: N_3  and  O_4
REMARK    3  A    between atoms: O_4  and  C_5
REMARK    4  A    between atoms: C_5  and  C_7
REMARK    5  A    between atoms: C_7  and  C_8
REMARK                            x       y       z     vdW  Elec       q    Type
REMARK                         _______ _______ _______ _____ _____    ______ ____
ROOT
ATOM      1  N   UNL     1       2.025   5.459  17.632  0.00  0.00    +0.000 NA
ATOM      2  C   UNL     1       2.811   6.349  18.156  0.00  0.00    +0.000 C 
ATOM      3  N   UNL     1       4.181   6.211  18.128  0.00  0.00    +0.000 N 
ATOM      4  H   UNL     1       2.626   4.734  17.221  0.00  0.00    +0.000 HD
ATOM      5  H   UNL     1       4.722   6.739  18.810  0.00  0.00    +0.000 HD
ENDROOT
BRANCH   2   6
ATOM      6  C   UNL     1       2.195   7.553  18.791  0.00  0.00    +0.000 A 
ATOM      7  C   UNL     1       1.860   7.510  20.150  0.00  0.00    +0.000 A 
ATOM      8  C   UNL     1       1.267   8.612  20.768  0.00  0.00    +0.000 A 
ATOM      9  C   UNL     1       0.999   9.758  20.020  0.00  0.00    +0.000 A 
ATOM     10 BR   UNL     1       0.176  11.245  20.847  0.00  0.00    +0.000 Br
ATOM     11  C   UNL     1       1.328   9.812  18.664  0.00  0.00    +0.000 A 
ATOM     12  C   UNL     1       1.924   8.708  18.046  0.00  0.00    +0.000 A 
ENDBRANCH   2   6
BRANCH   3  13
ATOM     13  O   UNL     1       4.599   4.874  18.010  0.00  0.00    +0.000 OA
BRANCH  13  14
ATOM     14  C   UNL     1       5.238   4.424  19.139  0.00  0.00    +0.000 C 
ATOM     15  O   UNL     1       6.077   5.057  19.771  0.00  0.00    +0.000 OA
BRANCH  14  16
ATOM     16  C   UNL     1       4.719   3.065  19.534  0.00  0.00    +0.000 C 
BRANCH  16  17
ATOM     17  C   UNL     1       3.256   3.114  19.839  0.00  0.00    +0.000 A 
ATOM     18  C   UNL     1       2.608   3.869  20.797  0.00  0.00    +0.000 A 
ATOM     19  C   UNL     1       1.195   3.686  20.765  0.00  0.00    +0.000 A 
ATOM     20  C   UNL     1       0.812   2.797  19.786  0.00  0.00    +0.000 A 
ATOM     21  S   UNL     1       2.150   2.190  18.913  0.00  0.00    +0.000 S 
ENDBRANCH  16  17
ENDBRANCH  14  16
ENDBRANCH  13  14
ENDBRANCH   3  13
TORSDOF 5
ENDMDL
MODEL 6
REMARK VINA RESULT:      -6.3      3.616      4.841
REMARK  Name = 
REMARK  5 active torsions:
REMARK  status: ('A' for Active; 'I' for Inactive)
REMARK    1  A    between atoms: C_2  and  C_13
REMARK    2  A    between atoms: N_3  and  O_4
REMARK    3  A    between atoms: O_4  and  C_5
REMARK    4  A    between atoms: C_5  and  C_7
REMARK    5  A    between atoms: C_7  and  C_8
REMARK                            x       y       z     vdW  Elec       q    Type
REMARK                         _______ _______ _______ _____ _____    ______ ____
ROOT
ATOM      1  N   UNL     1       8.567   7.426  19.040  0.00  0.00    +0.000 NA
ATOM      2  C   UNL     1       8.217   8.371  18.221  0.00  0.00    +0.000 C 
ATOM      3  N   UNL     1       7.426   8.121  17.122  0.00  0.00    +0.000 N 
ATOM      4  H   UNL     1       8.129   6.561  18.701  0.00  0.00    +0.000 HD
ATOM      5  H   UNL     1       7.451   8.796  16.360  0.00  0.00    +0.000 HD
ENDROOT
BRANCH   2   6
ATOM      6  C   UNL     1       8.684   9.762  18.503  0.00  0.00    +0.000 A 
ATOM      7  C   UNL     1       8.386  10.780  17.590  0.00  0.00    +0.000 A 
ATOM      8  C   UNL     1       8.823  12.086  17.817  0.00  0.00    +0.000 A 
ATOM      9  C   UNL     1       9.572  12.371  18.958  0.00  0.00    +0.000 A 
ATOM     10 BR   UNL     1      10.186  14.134  19.258  0.00  0.00    +0.000 Br
ATOM     11  C   UNL     1       9.877  11.365  19.875  0.00  0.00    +0.000 A 
ATOM     12  C   UNL     1       9.436  10.057  19.648  0.00  0.00    +0.000 A 
ENDBRANCH   2   6
BRANCH   3  13
ATOM     13  O   UNL     1       7.503   6.790  16.678  0.00  0.00    +0.000 OA
BRANCH  13  14
ATOM     14  C   UNL     1       6.265   6.218  16.519  0.00  0.00    +0.000 C 
ATOM     15  O   UNL     1       5.575   6.307  15.508  0.00  0.00    +0.000 OA
BRANCH  14  16
ATOM     16  C   UNL     1       5.895   5.407  17.735  0.00  0.00    +0.000 C 
BRANCH  16  17
ATOM     17  C   UNL     1       4.489   4.906  17.641  0.00  0.00    +0.000 A 
ATOM     18  C   UNL     1       4.047   3.686  17.171  0.00  0.00    +0.000 A 
ATOM     19  C   UNL     1       2.632   3.545  17.276  0.00  0.00    +0.000 A 
ATOM     20  C   UNL     1       2.043   4.664  17.820  0.00  0.00    +0.000 A 
ATOM     21  S   UNL     1       3.190   5.872  18.202  0.00  0.00    +0.000 S 
ENDBRANCH  16  17
ENDBRANCH  14  16
ENDBRANCH  13  14
ENDBRANCH   3  13
TORSDOF 5
ENDMDL
MODEL 7
REMARK VINA RESULT:      -6.3      3.355      4.856
REMARK  Name = 
REMARK  5 active torsions:
REMARK  status: ('A' for Active; 'I' for Inactive)
REMARK    1  A    between atoms: C_2  and  C_13
REMARK    2  A    between atoms: N_3  and  O_4
REMARK    3  A    between atoms: O_4  and  C_5
REMARK    4  A    between atoms: C_5  and  C_7
REMARK    5  A    between atoms: C_7  and  C_8
REMARK                            x       y       z     vdW  Elec       q    Type
REMARK                         _______ _______ _______ _____ _____    ______ ____
ROOT
ATOM      1  N   UNL     1       2.033   5.424  17.576  0.00  0.00    +0.000 NA
ATOM      2  C   UNL     1       2.807   6.308  18.129  0.00  0.00    +0.000 C 
ATOM      3  N   UNL     1       4.177   6.162  18.145  0.00  0.00    +0.000 N 
ATOM      4  H   UNL     1       2.643   4.697  17.183  0.00  0.00    +0.000 HD
ATOM      5  H   UNL     1       4.697   6.685  18.846  0.00  0.00    +0.000 HD
ENDROOT
BRANCH   2   6
ATOM      6  C   UNL     1       2.178   7.513  18.748  0.00  0.00    +0.000 A 
ATOM      7  C   UNL     1       1.927   8.637  17.951  0.00  0.00    +0.000 A 
ATOM      8  C   UNL     1       1.356   9.784  18.504  0.00  0.00    +0.000 A 
ATOM      9  C   UNL     1       1.045   9.810  19.863  0.00  0.00    +0.000 A 
ATOM     10 BR   UNL     1       0.293  11.369  20.622  0.00  0.00    +0.000 Br
ATOM     11  C   UNL     1       1.291   8.697  20.668  0.00  0.00    +0.000 A 
ATOM     12  C   UNL     1       1.860   7.546  20.112  0.00  0.00    +0.000 A 
ENDBRANCH   2   6
BRANCH   3  13
ATOM     13  O   UNL     1       4.591   4.824  18.036  0.00  0.00    +0.000 OA
BRANCH  13  14
ATOM     14  C   UNL     1       5.251   4.387  19.157  0.00  0.00    +0.000 C 
ATOM     15  O   UNL     1       6.112   5.022  19.757  0.00  0.00    +0.000 OA
BRANCH  14  16
ATOM     16  C   UNL     1       4.726   3.042  19.591  0.00  0.00    +0.000 C 
BRANCH  16  17
ATOM     17  C   UNL     1       3.258   3.101  19.869  0.00  0.00    +0.000 A 
ATOM     18  C   UNL     1       2.595   3.877  20.799  0.00  0.00    +0.000 A 
ATOM     19  C   UNL     1       1.182   3.696  20.747  0.00  0.00    +0.000 A 
ATOM     20  C   UNL     1       0.815   2.787  19.781  0.00  0.00    +0.000 A 
ATOM     21  S   UNL     1       2.166   2.159  18.945  0.00  0.00    +0.000 S 
ENDBRANCH  16  17
ENDBRANCH  14  16
ENDBRANCH  13  14
ENDBRANCH   3  13
TORSDOF 5
ENDMDL
MODEL 8
REMARK VINA RESULT:      -6.3      2.839      4.934
REMARK  Name = 
REMARK  5 active torsions:
REMARK  status: ('A' for Active; 'I' for Inactive)
REMARK    1  A    between atoms: C_2  and  C_13
REMARK    2  A    between atoms: N_3  and  O_4
REMARK    3  A    between atoms: O_4  and  C_5
REMARK    4  A    between atoms: C_5  and  C_7
REMARK    5  A    between atoms: C_7  and  C_8
REMARK                            x       y       z     vdW  Elec       q    Type
REMARK                         _______ _______ _______ _____ _____    ______ ____
ROOT
ATOM      1  N   UNL     1       2.595   4.859  21.364  0.00  0.00    +0.000 NA
ATOM      2  C   UNL     1       2.216   5.157  20.159  0.00  0.00    +0.000 C 
ATOM      3  N   UNL     1       2.003   4.186  19.206  0.00  0.00    +0.000 N 
ATOM      4  H   UNL     1       2.658   3.835  21.413  0.00  0.00    +0.000 HD
ATOM      5  H   UNL     1       2.029   4.471  18.229  0.00  0.00    +0.000 HD
ENDROOT
BRANCH   2   6
ATOM      6  C   UNL     1       1.999   6.595  19.819  0.00  0.00    +0.000 A 
ATOM      7  C   UNL     1       1.390   7.434  20.761  0.00  0.00    +0.000 A 
ATOM      8  C   UNL     1       1.158   8.779  20.467  0.00  0.00    +0.000 A 
ATOM      9  C   UNL     1       1.528   9.283  19.221  0.00  0.00    +0.000 A 
ATOM     10 BR   UNL     1       1.195  11.098  18.808  0.00  0.00    +0.000 Br
ATOM     11  C   UNL     1       2.134   8.457  18.273  0.00  0.00    +0.000 A 
ATOM     12  C   UNL     1       2.369   7.110  18.570  0.00  0.00    +0.000 A 
ENDBRANCH   2   6
BRANCH   3  13
ATOM     13  O   UNL     1       2.720   3.003  19.453  0.00  0.00    +0.000 OA
BRANCH  13  14
ATOM     14  C   UNL     1       3.343   2.522  18.328  0.00  0.00    +0.000 C 
ATOM     15  O   UNL     1       3.697   1.359  18.163  0.00  0.00    +0.000 OA
BRANCH  14  16
ATOM     16  C   UNL     1       3.473   3.608  17.290  0.00  0.00    +0.000 C 
BRANCH  16  17
ATOM     17  C   UNL     1       4.901   4.009  17.105  0.00  0.00    +0.000 A 
ATOM     18  C   UNL     1       5.663   3.953  15.955  0.00  0.00    +0.000 A 
ATOM     19  C   UNL     1       6.979   4.464  16.151  0.00  0.00    +0.000 A 
ATOM     20  C   UNL     1       7.179   4.890  17.444  0.00  0.00    +0.000 A 
ATOM     21  S   UNL     1       5.787   4.675  18.412  0.00  0.00    +0.000 S 
ENDBRANCH  16  17
ENDBRANCH  14  16
ENDBRANCH  13  14
ENDBRANCH   3  13
TORSDOF 5
ENDMDL
MODEL 9
REMARK VINA RESULT:      -6.3      3.709      4.990
REMARK  Name = 
REMARK  5 active torsions:
REMARK  status: ('A' for Active; 'I' for Inactive)
REMARK    1  A    between atoms: C_2  and  C_13
REMARK    2  A    between atoms: N_3  and  O_4
REMARK    3  A    between atoms: O_4  and  C_5
REMARK    4  A    between atoms: C_5  and  C_7
REMARK    5  A    between atoms: C_7  and  C_8
REMARK                            x       y       z     vdW  Elec       q    Type
REMARK                         _______ _______ _______ _____ _____    ______ ____
ROOT
ATOM      1  N   UNL     1       8.572   7.452  18.957  0.00  0.00    +0.000 NA
ATOM      2  C   UNL     1       8.164   8.436  18.214  0.00  0.00    +0.000 C 
ATOM      3  N   UNL     1       7.263   8.244  17.190  0.00  0.00    +0.000 N 
ATOM      4  H   UNL     1       8.084   6.609  18.631  0.00  0.00    +0.000 HD
ATOM      5  H   UNL     1       7.227   8.949  16.456  0.00  0.00    +0.000 HD
ENDROOT
BRANCH   2   6
ATOM      6  C   UNL     1       8.687   9.805  18.501  0.00  0.00    +0.000 A 
ATOM      7  C   UNL     1       9.421  10.023  19.673  0.00  0.00    +0.000 A 
ATOM      8  C   UNL     1       9.909  11.295  19.977  0.00  0.00    +0.000 A 
ATOM      9  C   UNL     1       9.651  12.356  19.110  0.00  0.00    +0.000 A 
ATOM     10 BR   UNL     1      10.289  14.085  19.528  0.00  0.00    +0.000 Br
ATOM     11  C   UNL     1       8.919  12.152  17.939  0.00  0.00    +0.000 A 
ATOM     12  C   UNL     1       8.433  10.876  17.633  0.00  0.00    +0.000 A 
ENDBRANCH   2   6
BRANCH   3  13
ATOM     13  O   UNL     1       7.265   6.930  16.691  0.00  0.00    +0.000 OA
BRANCH  13  14
ATOM     14  C   UNL     1       6.002   6.401  16.601  0.00  0.00    +0.000 C 
ATOM     15  O   UNL     1       5.351   6.310  15.566  0.00  0.00    +0.000 OA
BRANCH  14  16
ATOM     16  C   UNL     1       5.548   5.884  17.943  0.00  0.00    +0.000 C 
BRANCH  16  17
ATOM     17  C   UNL     1       4.232   5.183  17.832  0.00  0.00    +0.000 A 
ATOM     18  C   UNL     1       2.968   5.698  18.048  0.00  0.00    +0.000 A 
ATOM     19  C   UNL     1       1.943   4.738  17.804  0.00  0.00    +0.000 A 
ATOM     20  C   UNL     1       2.458   3.523  17.413  0.00  0.00    +0.000 A 
ATOM     21  S   UNL     1       4.165   3.543  17.340  0.00  0.00    +0.000 S 
ENDBRANCH  16  17
ENDBRANCH  14  16
ENDBRANCH  13  14
ENDBRANCH   3  13
TORSDOF 5
ENDMDL
