MODEL 1
REMARK VINA RESULT:      -8.5      0.000      0.000
REMARK  Name = 
REMARK  5 active torsions:
REMARK  status: ('A' for Active; 'I' for Inactive)
REMARK    1  A    between atoms: C_1  and  C_2
REMARK    2  A    between atoms: C_9  and  N_10
REMARK    3  A    between atoms: C_11  and  C_13
REMARK    4  A    between atoms: C_17  and  O_18
REMARK    5  A    between atoms: N_20  and  C_21
REMARK                            x       y       z     vdW  Elec       q    Type
REMARK                         _______ _______ _______ _____ _____    ______ ____
ROOT
ATOM      1  N   UNL     1       1.932   7.300  20.751  0.00  0.00    +0.000 N 
ATOM      2  C   UNL     1       2.374   6.819  19.525  0.00  0.00    +0.000 C 
ATOM      3  O   UNL     1       2.214   7.407  18.459  0.00  0.00    +0.000 OA
ATOM      4  H   UNL     1       2.126   6.770  21.586  0.00  0.00    +0.000 HD
ENDROOT
BRANCH   1  13
ATOM      5  C   UNL     1      -1.518  12.582  22.912  0.00  0.00    +0.000 C 
ATOM      6  C   UNL     1      -0.926  12.197  21.590  0.00  0.00    +0.000 A 
ATOM      7  C   UNL     1      -1.052  12.992  20.519  0.00  0.00    +0.000 A 
ATOM      8  C   UNL     1      -0.503  12.670  19.194  0.00  0.00    +0.000 A 
ATOM      9  O   UNL     1      -0.638  13.442  18.252  0.00  0.00    +0.000 OA
ATOM     10  O   UNL     1       0.158  11.467  19.077  0.00  0.00    +0.000 OA
ATOM     11  C   UNL     1       0.309  10.615  20.187  0.00  0.00    +0.000 A 
ATOM     12  C   UNL     1       1.002   9.435  19.934  0.00  0.00    +0.000 A 
ATOM     13  C   UNL     1       1.228   8.515  20.952  0.00  0.00    +0.000 A 
ATOM     14  C   UNL     1       0.738   8.811  22.231  0.00  0.00    +0.000 A 
ATOM     15  C   UNL     1       0.030  10.007  22.473  0.00  0.00    +0.000 A 
ATOM     16  C   UNL     1      -0.199  10.930  21.445  0.00  0.00    +0.000 A 
ENDBRANCH   1  13
BRANCH   2  17
ATOM     17  C   UNL     1       3.118   5.485  19.519  0.00  0.00    +0.000 A 
ATOM     18  C   UNL     1       4.422   5.474  19.180  0.00  0.00    +0.000 A 
ATOM     19  C   UNL     1       5.162   4.196  19.204  0.00  0.00    +0.000 A 
ATOM     20  O   UNL     1       6.328   4.125  18.830  0.00  0.00    +0.000 OA
ATOM     21  C   UNL     1       4.457   2.984  19.696  0.00  0.00    +0.000 A 
ATOM     22  C   UNL     1       3.176   3.121  20.039  0.00  0.00    +0.000 A 
ATOM     23  N   UNL     1       2.451   4.304  19.949  0.00  0.00    +0.000 N 
ATOM     24  C   UNL     1       1.022   4.295  20.315  0.00  0.00    +0.000 C 
BRANCH  21  25
ATOM     25  O   UNL     1       5.137   1.789  19.761  0.00  0.00    +0.000 OA
ATOM     26  H   UNL     1       4.455   1.123  19.991  0.00  0.00    +0.000 HD
ENDBRANCH  21  25
ENDBRANCH   2  17
TORSDOF 3
ENDMDL
MODEL 2
REMARK VINA RESULT:      -8.3      2.694      3.531
REMARK  Name = 
REMARK  5 active torsions:
REMARK  status: ('A' for Active; 'I' for Inactive)
REMARK    1  A    between atoms: C_1  and  C_2
REMARK    2  A    between atoms: C_9  and  N_10
REMARK    3  A    between atoms: C_11  and  C_13
REMARK    4  A    between atoms: C_17  and  O_18
REMARK    5  A    between atoms: N_20  and  C_21
REMARK                            x       y       z     vdW  Elec       q    Type
REMARK                         _______ _______ _______ _____ _____    ______ ____
ROOT
ATOM      1  N   UNL     1       2.695   7.565  17.847  0.00  0.00    +0.000 N 
ATOM      2  C   UNL     1       3.469   6.523  18.342  0.00  0.00    +0.000 C 
ATOM      3  O   UNL     1       3.515   6.204  19.527  0.00  0.00    +0.000 OA
ATOM      4  H   UNL     1       2.692   7.748  16.856  0.00  0.00    +0.000 HD
ENDROOT
BRANCH   1  13
ATOM      5  C   UNL     1      -1.501  12.097  20.362  0.00  0.00    +0.000 C 
ATOM      6  C   UNL     1      -0.657  11.015  20.964  0.00  0.00    +0.000 A 
ATOM      7  C   UNL     1      -0.639  10.809  22.288  0.00  0.00    +0.000 A 
ATOM      8  C   UNL     1       0.171   9.771  22.942  0.00  0.00    +0.000 A 
ATOM      9  O   UNL     1       0.139   9.620  24.158  0.00  0.00    +0.000 OA
ATOM     10  O   UNL     1       0.958   8.996  22.120  0.00  0.00    +0.000 OA
ATOM     11  C   UNL     1       0.955   9.187  20.725  0.00  0.00    +0.000 A 
ATOM     12  C   UNL     1       1.790   8.333  20.012  0.00  0.00    +0.000 A 
ATOM     13  C   UNL     1       1.866   8.414  18.626  0.00  0.00    +0.000 A 
ATOM     14  C   UNL     1       1.083   9.377  17.976  0.00  0.00    +0.000 A 
ATOM     15  C   UNL     1       0.247  10.242  18.711  0.00  0.00    +0.000 A 
ATOM     16  C   UNL     1       0.174  10.161  20.107  0.00  0.00    +0.000 A 
ENDBRANCH   1  13
BRANCH   2  17
ATOM     17  C   UNL     1       4.295   5.722  17.338  0.00  0.00    +0.000 A 
ATOM     18  C   UNL     1       5.455   6.245  16.892  0.00  0.00    +0.000 A 
ATOM     19  C   UNL     1       6.280   5.466  15.947  0.00  0.00    +0.000 A 
ATOM     20  O   UNL     1       7.304   5.932  15.457  0.00  0.00    +0.000 OA
ATOM     21  C   UNL     1       5.842   4.090  15.599  0.00  0.00    +0.000 A 
ATOM     22  C   UNL     1       4.695   3.663  16.128  0.00  0.00    +0.000 A 
ATOM     23  N   UNL     1       3.874   4.417  16.959  0.00  0.00    +0.000 N 
ATOM     24  C   UNL     1       2.604   3.832  17.428  0.00  0.00    +0.000 C 
BRANCH  21  25
ATOM     25  O   UNL     1       6.614   3.332  14.749  0.00  0.00    +0.000 OA
ATOM     26  H   UNL     1       6.690   3.868  13.932  0.00  0.00    +0.000 HD
ENDBRANCH  21  25
ENDBRANCH   2  17
TORSDOF 3
ENDMDL
MODEL 3
REMARK VINA RESULT:      -8.1      2.032      2.830
REMARK  Name = 
REMARK  5 active torsions:
REMARK  status: ('A' for Active; 'I' for Inactive)
REMARK    1  A    between atoms: C_1  and  C_2
REMARK    2  A    between atoms: C_9  and  N_10
REMARK    3  A    between atoms: C_11  and  C_13
REMARK    4  A    between atoms: C_17  and  O_18
REMARK    5  A    between atoms: N_20  and  C_21
REMARK                            x       y       z     vdW  Elec       q    Type
REMARK                         _______ _______ _______ _____ _____    ______ ____
ROOT
ATOM      1  N   UNL     1       2.522   6.491  19.276  0.00  0.00    +0.000 N 
ATOM      2  C   UNL     1       1.999   5.324  19.817  0.00  0.00    +0.000 C 
ATOM      3  O   UNL     1       0.971   5.277  20.486  0.00  0.00    +0.000 OA
ATOM      4  H   UNL     1       3.358   6.443  18.715  0.00  0.00    +0.000 HD
ENDROOT
BRANCH   1  13
ATOM      5  C   UNL     1       0.255  12.740  18.739  0.00  0.00    +0.000 C 
ATOM      6  C   UNL     1       0.285  11.738  19.852  0.00  0.00    +0.000 A 
ATOM      7  C   UNL     1      -0.210  12.033  21.062  0.00  0.00    +0.000 A 
ATOM      8  C   UNL     1      -0.204  11.099  22.196  0.00  0.00    +0.000 A 
ATOM      9  O   UNL     1      -0.683  11.420  23.278  0.00  0.00    +0.000 OA
ATOM     10  O   UNL     1       0.365   9.865  21.975  0.00  0.00    +0.000 OA
ATOM     11  C   UNL     1       0.888   9.526  20.713  0.00  0.00    +0.000 A 
ATOM     12  C   UNL     1       1.427   8.246  20.623  0.00  0.00    +0.000 A 
ATOM     13  C   UNL     1       1.964   7.788  19.426  0.00  0.00    +0.000 A 
ATOM     14  C   UNL     1       1.947   8.649  18.321  0.00  0.00    +0.000 A 
ATOM     15  C   UNL     1       1.404   9.947  18.427  0.00  0.00    +0.000 A 
ATOM     16  C   UNL     1       0.867  10.407  19.635  0.00  0.00    +0.000 A 
ENDBRANCH   1  13
BRANCH   2  17
ATOM     17  C   UNL     1       2.750   4.023  19.540  0.00  0.00    +0.000 A 
ATOM     18  C   UNL     1       3.573   3.537  20.489  0.00  0.00    +0.000 A 
ATOM     19  C   UNL     1       4.279   2.262  20.248  0.00  0.00    +0.000 A 
ATOM     20  O   UNL     1       5.095   1.821  21.050  0.00  0.00    +0.000 OA
ATOM     21  C   UNL     1       3.976   1.516  18.999  0.00  0.00    +0.000 A 
ATOM     22  C   UNL     1       3.116   2.076  18.148  0.00  0.00    +0.000 A 
ATOM     23  N   UNL     1       2.505   3.311  18.332  0.00  0.00    +0.000 N 
ATOM     24  C   UNL     1       1.615   3.830  17.278  0.00  0.00    +0.000 C 
BRANCH  21  25
ATOM     25  O   UNL     1       4.594   0.307  18.770  0.00  0.00    +0.000 OA
ATOM     26  H   UNL     1       5.073   0.108  19.602  0.00  0.00    +0.000 HD
ENDBRANCH  21  25
ENDBRANCH   2  17
TORSDOF 3
ENDMDL
MODEL 4
REMARK VINA RESULT:      -8.1      2.291      3.198
REMARK  Name = 
REMARK  5 active torsions:
REMARK  status: ('A' for Active; 'I' for Inactive)
REMARK    1  A    between atoms: C_1  and  C_2
REMARK    2  A    between atoms: C_9  and  N_10
REMARK    3  A    between atoms: C_11  and  C_13
REMARK    4  A    between atoms: C_17  and  O_18
REMARK    5  A    between atoms: N_20  and  C_21
REMARK                            x       y       z     vdW  Elec       q    Type
REMARK                         _______ _______ _______ _____ _____    ______ ____
ROOT
ATOM      1  N   UNL     1       2.992   7.973  18.399  0.00  0.00    +0.000 N 
ATOM      2  C   UNL     1       2.916   6.636  18.033  0.00  0.00    +0.000 C 
ATOM      3  O   UNL     1       1.867   6.002  17.961  0.00  0.00    +0.000 OA
ATOM      4  H   UNL     1       3.890   8.431  18.410  0.00  0.00    +0.000 HD
ENDROOT
BRANCH   1  13
ATOM      5  C   UNL     1      -2.404  11.873  18.783  0.00  0.00    +0.000 C 
ATOM      6  C   UNL     1      -1.468  11.292  19.798  0.00  0.00    +0.000 A 
ATOM      7  C   UNL     1      -1.627  11.538  21.106  0.00  0.00    +0.000 A 
ATOM      8  C   UNL     1      -0.741  11.005  22.150  0.00  0.00    +0.000 A 
ATOM      9  O   UNL     1      -0.942  11.253  23.333  0.00  0.00    +0.000 OA
ATOM     10  O   UNL     1       0.314  10.228  21.725  0.00  0.00    +0.000 OA
ATOM     11  C   UNL     1       0.503   9.950  20.358  0.00  0.00    +0.000 A 
ATOM     12  C   UNL     1       1.602   9.149  20.067  0.00  0.00    +0.000 A 
ATOM     13  C   UNL     1       1.888   8.793  18.753  0.00  0.00    +0.000 A 
ATOM     14  C   UNL     1       1.043   9.265  17.741  0.00  0.00    +0.000 A 
ATOM     15  C   UNL     1      -0.064  10.083  18.049  0.00  0.00    +0.000 A 
ATOM     16  C   UNL     1      -0.348  10.443  19.372  0.00  0.00    +0.000 A 
ENDBRANCH   1  13
BRANCH   2  17
ATOM     17  C   UNL     1       4.223   5.926  17.686  0.00  0.00    +0.000 A 
ATOM     18  C   UNL     1       4.870   6.279  16.558  0.00  0.00    +0.000 A 
ATOM     19  C   UNL     1       6.152   5.625  16.228  0.00  0.00    +0.000 A 
ATOM     20  O   UNL     1       6.737   5.858  15.175  0.00  0.00    +0.000 OA
ATOM     21  C   UNL     1       6.727   4.668  17.209  0.00  0.00    +0.000 A 
ATOM     22  C   UNL     1       6.016   4.422  18.310  0.00  0.00    +0.000 A 
ATOM     23  N   UNL     1       4.772   4.977  18.593  0.00  0.00    +0.000 N 
ATOM     24  C   UNL     1       4.076   4.572  19.828  0.00  0.00    +0.000 C 
BRANCH  21  25
ATOM     25  O   UNL     1       7.939   4.074  16.940  0.00  0.00    +0.000 OA
ATOM     26  H   UNL     1       7.717   3.267  16.429  0.00  0.00    +0.000 HD
ENDBRANCH  21  25
ENDBRANCH   2  17
TORSDOF 3
ENDMDL
MODEL 5
REMARK VINA RESULT:      -8.1      2.270      2.744
REMARK  Name = 
REMARK  5 active torsions:
REMARK  status: ('A' for Active; 'I' for Inactive)
REMARK    1  A    between atoms: C_1  and  C_2
REMARK    2  A    between atoms: C_9  and  N_10
REMARK    3  A    between atoms: C_11  and  C_13
REMARK    4  A    between atoms: C_17  and  O_18
REMARK    5  A    between atoms: N_20  and  C_21
REMARK                            x       y       z     vdW  Elec       q    Type
REMARK                         _______ _______ _______ _____ _____    ______ ____
ROOT
ATOM      1  N   UNL     1       2.791   7.416  18.203  0.00  0.00    +0.000 N 
ATOM      2  C   UNL     1       3.545   6.312  18.581  0.00  0.00    +0.000 C 
ATOM      3  O   UNL     1       3.587   5.867  19.725  0.00  0.00    +0.000 OA
ATOM      4  H   UNL     1       2.790   7.704  17.237  0.00  0.00    +0.000 HD
ENDROOT
BRANCH   1  13
ATOM      5  C   UNL     1      -0.758  10.137  23.150  0.00  0.00    +0.000 C 
ATOM      6  C   UNL     1      -0.489  10.526  21.728  0.00  0.00    +0.000 A 
ATOM      7  C   UNL     1      -1.025  11.636  21.201  0.00  0.00    +0.000 A 
ATOM      8  C   UNL     1      -0.808  12.068  19.813  0.00  0.00    +0.000 A 
ATOM      9  O   UNL     1      -1.315  13.100  19.389  0.00  0.00    +0.000 OA
ATOM     10  O   UNL     1      -0.018  11.255  19.032  0.00  0.00    +0.000 OA
ATOM     11  C   UNL     1       0.562  10.086  19.560  0.00  0.00    +0.000 A 
ATOM     12  C   UNL     1       1.342   9.360  18.666  0.00  0.00    +0.000 A 
ATOM     13  C   UNL     1       1.979   8.192  19.071  0.00  0.00    +0.000 A 
ATOM     14  C   UNL     1       1.811   7.772  20.397  0.00  0.00    +0.000 A 
ATOM     15  C   UNL     1       1.010   8.513  21.291  0.00  0.00    +0.000 A 
ATOM     16  C   UNL     1       0.368   9.687  20.880  0.00  0.00    +0.000 A 
ENDBRANCH   1  13
BRANCH   2  17
ATOM     17  C   UNL     1       4.355   5.608  17.494  0.00  0.00    +0.000 A 
ATOM     18  C   UNL     1       5.512   6.165  17.087  0.00  0.00    +0.000 A 
ATOM     19  C   UNL     1       6.322   5.477  16.061  0.00  0.00    +0.000 A 
ATOM     20  O   UNL     1       7.343   5.983  15.606  0.00  0.00    +0.000 OA
ATOM     21  C   UNL     1       5.870   4.144  15.586  0.00  0.00    +0.000 A 
ATOM     22  C   UNL     1       4.727   3.674  16.085  0.00  0.00    +0.000 A 
ATOM     23  N   UNL     1       3.920   4.348  16.995  0.00  0.00    +0.000 N 
ATOM     24  C   UNL     1       2.652   3.727  17.421  0.00  0.00    +0.000 C 
BRANCH  21  25
ATOM     25  O   UNL     1       6.628   3.467  14.657  0.00  0.00    +0.000 OA
ATOM     26  H   UNL     1       6.051   2.741  14.342  0.00  0.00    +0.000 HD
ENDBRANCH  21  25
ENDBRANCH   2  17
TORSDOF 3
ENDMDL
MODEL 6
REMARK VINA RESULT:      -8.0      2.501      8.393
REMARK  Name = 
REMARK  5 active torsions:
REMARK  status: ('A' for Active; 'I' for Inactive)
REMARK    1  A    between atoms: C_1  and  C_2
REMARK    2  A    between atoms: C_9  and  N_10
REMARK    3  A    between atoms: C_11  and  C_13
REMARK    4  A    between atoms: C_17  and  O_18
REMARK    5  A    between atoms: N_20  and  C_21
REMARK                            x       y       z     vdW  Elec       q    Type
REMARK                         _______ _______ _______ _____ _____    ______ ____
ROOT
ATOM      1  N   UNL     1       1.783   8.440  19.972  0.00  0.00    +0.000 N 
ATOM      2  C   UNL     1       0.977   9.412  19.393  0.00  0.00    +0.000 C 
ATOM      3  O   UNL     1       0.648   9.416  18.210  0.00  0.00    +0.000 OA
ATOM      4  H   UNL     1       1.988   8.493  20.958  0.00  0.00    +0.000 HD
ENDROOT
BRANCH   1  13
ATOM      5  C   UNL     1       3.756   2.522  17.614  0.00  0.00    +0.000 C 
ATOM      6  C   UNL     1       4.067   3.942  17.250  0.00  0.00    +0.000 A 
ATOM      7  C   UNL     1       4.921   4.230  16.258  0.00  0.00    +0.000 A 
ATOM      8  C   UNL     1       5.274   5.599  15.857  0.00  0.00    +0.000 A 
ATOM      9  O   UNL     1       6.053   5.803  14.932  0.00  0.00    +0.000 OA
ATOM     10  O   UNL     1       4.690   6.620  16.573  0.00  0.00    +0.000 OA
ATOM     11  C   UNL     1       3.786   6.347  17.616  0.00  0.00    +0.000 A 
ATOM     12  C   UNL     1       3.265   7.469  18.253  0.00  0.00    +0.000 A 
ATOM     13  C   UNL     1       2.351   7.331  19.292  0.00  0.00    +0.000 A 
ATOM     14  C   UNL     1       1.976   6.037  19.676  0.00  0.00    +0.000 A 
ATOM     15  C   UNL     1       2.518   4.908  19.028  0.00  0.00    +0.000 A 
ATOM     16  C   UNL     1       3.440   5.049  17.984  0.00  0.00    +0.000 A 
ENDBRANCH   1  13
BRANCH   2  17
ATOM     17  C   UNL     1       0.462  10.529  20.299  0.00  0.00    +0.000 A 
ATOM     18  C   UNL     1      -0.312  10.202  21.352  0.00  0.00    +0.000 A 
ATOM     19  C   UNL     1      -0.788  11.269  22.255  0.00  0.00    +0.000 A 
ATOM     20  O   UNL     1      -1.556  11.028  23.181  0.00  0.00    +0.000 OA
ATOM     21  C   UNL     1      -0.312  12.656  22.017  0.00  0.00    +0.000 A 
ATOM     22  C   UNL     1       0.481  12.857  20.965  0.00  0.00    +0.000 A 
ATOM     23  N   UNL     1       0.874  11.871  20.066  0.00  0.00    +0.000 N 
ATOM     24  C   UNL     1       1.713  12.250  18.914  0.00  0.00    +0.000 C 
BRANCH  21  25
ATOM     25  O   UNL     1      -0.714  13.661  22.868  0.00  0.00    +0.000 OA
ATOM     26  H   UNL     1      -1.691  13.595  22.893  0.00  0.00    +0.000 HD
ENDBRANCH  21  25
ENDBRANCH   2  17
TORSDOF 3
ENDMDL
MODEL 7
REMARK VINA RESULT:      -8.0      1.442      2.128
REMARK  Name = 
REMARK  5 active torsions:
REMARK  status: ('A' for Active; 'I' for Inactive)
REMARK    1  A    between atoms: C_1  and  C_2
REMARK    2  A    between atoms: C_9  and  N_10
REMARK    3  A    between atoms: C_11  and  C_13
REMARK    4  A    between atoms: C_17  and  O_18
REMARK    5  A    between atoms: N_20  and  C_21
REMARK                            x       y       z     vdW  Elec       q    Type
REMARK                         _______ _______ _______ _____ _____    ______ ____
ROOT
ATOM      1  N   UNL     1       2.062   7.434  20.298  0.00  0.00    +0.000 N 
ATOM      2  C   UNL     1       2.284   6.680  19.153  0.00  0.00    +0.000 C 
ATOM      3  O   UNL     1       1.884   6.994  18.035  0.00  0.00    +0.000 OA
ATOM      4  H   UNL     1       2.446   7.121  21.176  0.00  0.00    +0.000 HD
ENDROOT
BRANCH   1  13
ATOM      5  C   UNL     1      -0.769  13.406  19.409  0.00  0.00    +0.000 C 
ATOM      6  C   UNL     1      -0.844  12.371  20.489  0.00  0.00    +0.000 A 
ATOM      7  C   UNL     1      -1.601  12.563  21.579  0.00  0.00    +0.000 A 
ATOM      8  C   UNL     1      -1.713  11.592  22.676  0.00  0.00    +0.000 A 
ATOM      9  O   UNL     1      -2.432  11.815  23.644  0.00  0.00    +0.000 OA
ATOM     10  O   UNL     1      -0.970  10.438  22.556  0.00  0.00    +0.000 OA
ATOM     11  C   UNL     1      -0.170  10.209  21.421  0.00  0.00    +0.000 A 
ATOM     12  C   UNL     1       0.522   9.002  21.422  0.00  0.00    +0.000 A 
ATOM     13  C   UNL     1       1.337   8.654  20.351  0.00  0.00    +0.000 A 
ATOM     14  C   UNL     1       1.440   9.549  19.279  0.00  0.00    +0.000 A 
ATOM     15  C   UNL     1       0.738  10.773  19.293  0.00  0.00    +0.000 A 
ATOM     16  C   UNL     1      -0.079  11.123  20.374  0.00  0.00    +0.000 A 
ENDBRANCH   1  13
BRANCH   2  17
ATOM     17  C   UNL     1       3.092   5.393  19.304  0.00  0.00    +0.000 A 
ATOM     18  C   UNL     1       4.410   5.421  19.028  0.00  0.00    +0.000 A 
ATOM     19  C   UNL     1       5.210   4.191  19.203  0.00  0.00    +0.000 A 
ATOM     20  O   UNL     1       6.396   4.149  18.891  0.00  0.00    +0.000 OA
ATOM     21  C   UNL     1       4.541   2.992  19.772  0.00  0.00    +0.000 A 
ATOM     22  C   UNL     1       3.239   3.091  20.042  0.00  0.00    +0.000 A 
ATOM     23  N   UNL     1       2.463   4.221  19.810  0.00  0.00    +0.000 N 
ATOM     24  C   UNL     1       1.020   4.168  20.110  0.00  0.00    +0.000 C 
BRANCH  21  25
ATOM     25  O   UNL     1       5.275   1.846  19.978  0.00  0.00    +0.000 OA
ATOM     26  H   UNL     1       4.904   1.454  20.796  0.00  0.00    +0.000 HD
ENDBRANCH  21  25
ENDBRANCH   2  17
TORSDOF 3
ENDMDL
MODEL 8
REMARK VINA RESULT:      -8.0      2.591      8.417
REMARK  Name = 
REMARK  5 active torsions:
REMARK  status: ('A' for Active; 'I' for Inactive)
REMARK    1  A    between atoms: C_1  and  C_2
REMARK    2  A    between atoms: C_9  and  N_10
REMARK    3  A    between atoms: C_11  and  C_13
REMARK    4  A    between atoms: C_17  and  O_18
REMARK    5  A    between atoms: N_20  and  C_21
REMARK                            x       y       z     vdW  Elec       q    Type
REMARK                         _______ _______ _______ _____ _____    ______ ____
ROOT
ATOM      1  N   UNL     1       2.098   8.921  19.330  0.00  0.00    +0.000 N 
ATOM      2  C   UNL     1       1.244   9.732  18.595  0.00  0.00    +0.000 C 
ATOM      3  O   UNL     1       0.442   9.312  17.765  0.00  0.00    +0.000 OA
ATOM      4  H   UNL     1       2.711   9.342  20.012  0.00  0.00    +0.000 HD
ENDROOT
BRANCH   1  13
ATOM      5  C   UNL     1       2.819   2.520  17.604  0.00  0.00    +0.000 C 
ATOM      6  C   UNL     1       2.441   3.217  18.875  0.00  0.00    +0.000 A 
ATOM      7  C   UNL     1       2.148   2.524  19.983  0.00  0.00    +0.000 A 
ATOM      8  C   UNL     1       1.763   3.145  21.258  0.00  0.00    +0.000 A 
ATOM      9  O   UNL     1       1.517   2.460  22.244  0.00  0.00    +0.000 OA
ATOM     10  O   UNL     1       1.692   4.521  21.275  0.00  0.00    +0.000 OA
ATOM     11  C   UNL     1       1.999   5.275  20.127  0.00  0.00    +0.000 A 
ATOM     12  C   UNL     1       1.894   6.653  20.283  0.00  0.00    +0.000 A 
ATOM     13  C   UNL     1       2.183   7.508  19.225  0.00  0.00    +0.000 A 
ATOM     14  C   UNL     1       2.579   6.942  18.007  0.00  0.00    +0.000 A 
ATOM     15  C   UNL     1       2.674   5.543  17.860  0.00  0.00    +0.000 A 
ATOM     16  C   UNL     1       2.379   4.684  18.925  0.00  0.00    +0.000 A 
ENDBRANCH   1  13
BRANCH   2  17
ATOM     17  C   UNL     1       1.303  11.236  18.855  0.00  0.00    +0.000 A 
ATOM     18  C   UNL     1       2.268  11.959  18.253  0.00  0.00    +0.000 A 
ATOM     19  C   UNL     1       2.317  13.419  18.469  0.00  0.00    +0.000 A 
ATOM     20  O   UNL     1       3.221  14.105  18.004  0.00  0.00    +0.000 OA
ATOM     21  C   UNL     1       1.235  14.047  19.271  0.00  0.00    +0.000 A 
ATOM     22  C   UNL     1       0.311  13.238  19.789  0.00  0.00    +0.000 A 
ATOM     23  N   UNL     1       0.300  11.854  19.653  0.00  0.00    +0.000 N 
ATOM     24  C   UNL     1      -0.759  11.080  20.327  0.00  0.00    +0.000 C 
BRANCH  21  25
ATOM     25  O   UNL     1       1.239  15.411  19.455  0.00  0.00    +0.000 OA
ATOM     26  H   UNL     1       0.665  15.562  20.235  0.00  0.00    +0.000 HD
ENDBRANCH  21  25
ENDBRANCH   2  17
TORSDOF 3
ENDMDL
MODEL 9
REMARK VINA RESULT:      -7.9      2.599      8.753
REMARK  Name = 
REMARK  5 active torsions:
REMARK  status: ('A' for Active; 'I' for Inactive)
REMARK    1  A    between atoms: C_1  and  C_2
REMARK    2  A    between atoms: C_9  and  N_10
REMARK    3  A    between atoms: C_11  and  C_13
REMARK    4  A    between atoms: C_17  and  O_18
REMARK    5  A    between atoms: N_20  and  C_21
REMARK                            x       y       z     vdW  Elec       q    Type
REMARK                         _______ _______ _______ _____ _____    ______ ____
ROOT
ATOM      1  N   UNL     1       0.681   9.300  20.361  0.00  0.00    +0.000 N 
ATOM      2  C   UNL     1       0.830   9.876  21.616  0.00  0.00    +0.000 C 
ATOM      3  O   UNL     1       1.660   9.512  22.444  0.00  0.00    +0.000 OA
ATOM      4  H   UNL     1      -0.008   9.673  19.726  0.00  0.00    +0.000 HD
ENDROOT
BRANCH   1  13
ATOM      5  C   UNL     1       4.496   4.978  17.007  0.00  0.00    +0.000 C 
ATOM      6  C   UNL     1       3.756   4.919  18.309  0.00  0.00    +0.000 A 
ATOM      7  C   UNL     1       3.769   3.810  19.062  0.00  0.00    +0.000 A 
ATOM      8  C   UNL     1       3.059   3.684  20.342  0.00  0.00    +0.000 A 
ATOM      9  O   UNL     1       3.118   2.649  20.995  0.00  0.00    +0.000 OA
ATOM     10  O   UNL     1       2.333   4.780  20.754  0.00  0.00    +0.000 OA
ATOM     11  C   UNL     1       2.305   5.959  19.986  0.00  0.00    +0.000 A 
ATOM     12  C   UNL     1       1.540   6.991  20.519  0.00  0.00    +0.000 A 
ATOM     13  C   UNL     1       1.442   8.211  19.860  0.00  0.00    +0.000 A 
ATOM     14  C   UNL     1       2.132   8.367  18.651  0.00  0.00    +0.000 A 
ATOM     15  C   UNL     1       2.898   7.310  18.117  0.00  0.00    +0.000 A 
ATOM     16  C   UNL     1       2.992   6.081  18.781  0.00  0.00    +0.000 A 
ENDBRANCH   1  13
BRANCH   2  17
ATOM     17  C   UNL     1      -0.089  11.044  21.967  0.00  0.00    +0.000 A 
ATOM     18  C   UNL     1      -1.169  10.807  22.737  0.00  0.00    +0.000 A 
ATOM     19  C   UNL     1      -2.047  11.934  23.113  0.00  0.00    +0.000 A 
ATOM     20  O   UNL     1      -3.082  11.755  23.748  0.00  0.00    +0.000 OA
ATOM     21  C   UNL     1      -1.648  13.305  22.702  0.00  0.00    +0.000 A 
ATOM     22  C   UNL     1      -0.538  13.423  21.972  0.00  0.00    +0.000 A 
ATOM     23  N   UNL     1       0.253  12.361  21.551  0.00  0.00    +0.000 N 
ATOM     24  C   UNL     1       1.426  12.639  20.701  0.00  0.00    +0.000 C 
BRANCH  21  25
ATOM     25  O   UNL     1      -2.431  14.374  23.073  0.00  0.00    +0.000 OA
ATOM     26  H   UNL     1      -3.227  14.312  22.504  0.00  0.00    +0.000 HD
ENDBRANCH  21  25
ENDBRANCH   2  17
TORSDOF 3
ENDMDL
