MODEL 1
REMARK VINA RESULT:      -9.0      0.000      0.000
REMARK  Name = 
REMARK  12 active torsions:
REMARK  status: ('A' for Active; 'I' for Inactive)
REMARK    1  A    between atoms: C_1  and  O_2
REMARK    2  A    between atoms: O_2  and  C_3
REMARK    3  A    between atoms: C_4  and  C_5
REMARK    4  A    between atoms: C_5  and  O_6
REMARK    5  A    between atoms: C_5  and  C_7
REMARK    6  A    between atoms: C_7  and  C_8
REMARK    7  A    between atoms: C_8  and  C_9
REMARK    8  A    between atoms: C_8  and  C_10
REMARK    9  A    between atoms: C_20  and  C_21
REMARK   10  A    between atoms: C_23  and  O_24
REMARK   11  A    between atoms: O_24  and  C_25
REMARK   12  A    between atoms: C_25  and  C_27
REMARK                            x       y       z     vdW  Elec       q    Type
REMARK                         _______ _______ _______ _____ _____    ______ ____
ROOT
ATOM      1  C   UNL     1      -0.133  10.061  20.105  0.00  0.00    +0.000 A 
ATOM      2  C   UNL     1      -0.360  10.721  18.869  0.00  0.00    +0.000 A 
ATOM      3  C   UNL     1       0.452  10.406  17.762  0.00  0.00    +0.000 A 
ATOM      4  C   UNL     1       1.482   9.470  17.856  0.00  0.00    +0.000 A 
ATOM      5  C   UNL     1       1.714   8.832  19.070  0.00  0.00    +0.000 A 
ATOM      6  C   UNL     1       0.932   9.148  20.183  0.00  0.00    +0.000 A 
ATOM      7  C   UNL     1       1.381   8.545  21.437  0.00  0.00    +0.000 C 
ATOM      8  O   UNL     1       1.739   9.194  22.410  0.00  0.00    +0.000 OA
ATOM      9  O   UNL     1       1.090   7.194  21.471  0.00  0.00    +0.000 OA
ATOM     10  C   UNL     1       1.582   6.303  20.492  0.00  0.00    +0.000 A 
ATOM     11  C   UNL     1       1.248   4.966  20.722  0.00  0.00    +0.000 A 
ATOM     12  C   UNL     1       1.851   3.953  19.973  0.00  0.00    +0.000 A 
ATOM     13  C   UNL     1       1.540   2.511  20.246  0.00  0.00    +0.000 C 
ATOM     14  C   UNL     1       2.801   4.300  19.000  0.00  0.00    +0.000 A 
ATOM     15  C   UNL     1       3.085   5.645  18.739  0.00  0.00    +0.000 A 
ATOM     16  C   UNL     1       2.454   6.664  19.463  0.00  0.00    +0.000 A 
ATOM     17  O   UNL     1       2.775   7.964  19.142  0.00  0.00    +0.000 OA
ENDROOT
BRANCH   1  19
ATOM     18  C   UNL     1      -0.600  11.580  21.946  0.00  0.00    +0.000 C 
ATOM     19  O   UNL     1      -0.945  10.460  21.133  0.00  0.00    +0.000 OA
ENDBRANCH   1  19
BRANCH   2  20
ATOM     20  C   UNL     1      -1.452  11.762  18.657  0.00  0.00    +0.000 C 
BRANCH  20  21
ATOM     21  O   UNL     1      -1.050  12.648  17.611  0.00  0.00    +0.000 OA
ATOM     22  H   UNL     1      -0.705  12.081  16.901  0.00  0.00    +0.000 HD
ENDBRANCH  20  21
BRANCH  20  23
ATOM     23  C   UNL     1      -2.857  11.222  18.337  0.00  0.00    +0.000 C 
BRANCH  23  24
ATOM     24  C   UNL     1      -3.251  11.206  16.848  0.00  0.00    +0.000 C 
ATOM     25  C   UNL     1      -2.953   9.866  16.172  0.00  0.00    +0.000 C 
ATOM     26  C   UNL     1      -4.744  11.523  16.712  0.00  0.00    +0.000 C 
ENDBRANCH  23  24
ENDBRANCH  20  23
ENDBRANCH   2  20
BRANCH  15  27
ATOM     27  O   UNL     1       4.083   6.056  17.816  0.00  0.00    +0.000 OA
BRANCH  27  28
ATOM     28  C   UNL     1       5.451   5.924  18.045  0.00  0.00    +0.000 C 
ATOM     29  O   UNL     1       5.972   5.657  19.122  0.00  0.00    +0.000 OA
BRANCH  28  30
ATOM     30  C   UNL     1       6.214   5.998  16.736  0.00  0.00    +0.000 C 
ATOM     31  C   UNL     1       5.285   6.291  15.517  0.00  0.00    +0.000 C 
ATOM     32  C   UNL     1       5.641   5.162  14.529  0.00  0.00    +0.000 C 
ATOM     33  C   UNL     1       5.174   3.848  15.111  0.00  0.00    +0.000 C 
ATOM     34  C   UNL     1       5.968   3.570  16.155  0.00  0.00    +0.000 C 
ATOM     35  C   UNL     1       6.951   4.711  16.286  0.00  0.00    +0.000 C 
ATOM     36  C   UNL     1       7.142   5.009  14.791  0.00  0.00    +0.000 C 
ENDBRANCH  28  30
ENDBRANCH  27  28
ENDBRANCH  15  27
TORSDOF 8
ENDMDL
MODEL 2
REMARK VINA RESULT:      -8.6      1.174      1.849
REMARK  Name = 
REMARK  12 active torsions:
REMARK  status: ('A' for Active; 'I' for Inactive)
REMARK    1  A    between atoms: C_1  and  O_2
REMARK    2  A    between atoms: O_2  and  C_3
REMARK    3  A    between atoms: C_4  and  C_5
REMARK    4  A    between atoms: C_5  and  O_6
REMARK    5  A    between atoms: C_5  and  C_7
REMARK    6  A    between atoms: C_7  and  C_8
REMARK    7  A    between atoms: C_8  and  C_9
REMARK    8  A    between atoms: C_8  and  C_10
REMARK    9  A    between atoms: C_20  and  C_21
REMARK   10  A    between atoms: C_23  and  O_24
REMARK   11  A    between atoms: O_24  and  C_25
REMARK   12  A    between atoms: C_25  and  C_27
REMARK                            x       y       z     vdW  Elec       q    Type
REMARK                         _______ _______ _______ _____ _____    ______ ____
ROOT
ATOM      1  C   UNL     1       0.127   9.992  20.087  0.00  0.00    +0.000 A 
ATOM      2  C   UNL     1      -0.026  10.711  18.872  0.00  0.00    +0.000 A 
ATOM      3  C   UNL     1       0.748  10.344  17.754  0.00  0.00    +0.000 A 
ATOM      4  C   UNL     1       1.670   9.299  17.816  0.00  0.00    +0.000 A 
ATOM      5  C   UNL     1       1.830   8.602  19.010  0.00  0.00    +0.000 A 
ATOM      6  C   UNL     1       1.086   8.966  20.134  0.00  0.00    +0.000 A 
ATOM      7  C   UNL     1       1.465   8.279  21.367  0.00  0.00    +0.000 C 
ATOM      8  O   UNL     1       1.891   8.854  22.359  0.00  0.00    +0.000 OA
ATOM      9  O   UNL     1       1.029   6.967  21.360  0.00  0.00    +0.000 OA
ATOM     10  C   UNL     1       1.422   6.059  20.352  0.00  0.00    +0.000 A 
ATOM     11  C   UNL     1       0.944   4.759  20.541  0.00  0.00    +0.000 A 
ATOM     12  C   UNL     1       1.434   3.711  19.759  0.00  0.00    +0.000 A 
ATOM     13  C   UNL     1       0.967   2.303  19.988  0.00  0.00    +0.000 C 
ATOM     14  C   UNL     1       2.417   3.982  18.795  0.00  0.00    +0.000 A 
ATOM     15  C   UNL     1       2.845   5.296  18.575  0.00  0.00    +0.000 A 
ATOM     16  C   UNL     1       2.328   6.355  19.332  0.00  0.00    +0.000 A 
ATOM     17  O   UNL     1       2.790   7.621  19.051  0.00  0.00    +0.000 OA
ENDROOT
BRANCH   1  19
ATOM     18  C   UNL     1      -0.256  11.602  21.869  0.00  0.00    +0.000 C 
ATOM     19  O   UNL     1      -0.637  10.445  21.129  0.00  0.00    +0.000 OA
ENDBRANCH   1  19
BRANCH   2  20
ATOM     20  C   UNL     1      -0.998  11.870  18.696  0.00  0.00    +0.000 C 
BRANCH  20  21
ATOM     21  O   UNL     1      -0.451  12.793  17.751  0.00  0.00    +0.000 OA
ATOM     22  H   UNL     1      -1.147  13.452  17.591  0.00  0.00    +0.000 HD
ENDBRANCH  20  21
BRANCH  20  23
ATOM     23  C   UNL     1      -2.427  11.503  18.261  0.00  0.00    +0.000 C 
BRANCH  23  24
ATOM     24  C   UNL     1      -2.559  10.272  17.345  0.00  0.00    +0.000 C 
ATOM     25  C   UNL     1      -3.761   9.395  17.701  0.00  0.00    +0.000 C 
ATOM     26  C   UNL     1      -2.679  10.731  15.888  0.00  0.00    +0.000 C 
ENDBRANCH  23  24
ENDBRANCH  20  23
ENDBRANCH   2  20
BRANCH  15  27
ATOM     27  O   UNL     1       3.884   5.625  17.663  0.00  0.00    +0.000 OA
BRANCH  27  28
ATOM     28  C   UNL     1       4.688   4.679  17.031  0.00  0.00    +0.000 C 
ATOM     29  O   UNL     1       4.497   4.213  15.914  0.00  0.00    +0.000 OA
BRANCH  28  30
ATOM     30  C   UNL     1       5.935   4.414  17.853  0.00  0.00    +0.000 C 
ATOM     31  C   UNL     1       6.018   5.317  19.124  0.00  0.00    +0.000 C 
ATOM     32  C   UNL     1       7.418   5.953  19.008  0.00  0.00    +0.000 C 
ATOM     33  C   UNL     1       7.423   6.890  17.823  0.00  0.00    +0.000 C 
ATOM     34  C   UNL     1       7.364   6.135  16.716  0.00  0.00    +0.000 C 
ATOM     35  C   UNL     1       7.295   4.693  17.164  0.00  0.00    +0.000 C 
ATOM     36  C   UNL     1       8.213   4.798  18.391  0.00  0.00    +0.000 C 
ENDBRANCH  28  30
ENDBRANCH  27  28
ENDBRANCH  15  27
TORSDOF 8
ENDMDL
MODEL 3
REMARK VINA RESULT:      -8.4      0.515      1.026
REMARK  Name = 
REMARK  12 active torsions:
REMARK  status: ('A' for Active; 'I' for Inactive)
REMARK    1  A    between atoms: C_1  and  O_2
REMARK    2  A    between atoms: O_2  and  C_3
REMARK    3  A    between atoms: C_4  and  C_5
REMARK    4  A    between atoms: C_5  and  O_6
REMARK    5  A    between atoms: C_5  and  C_7
REMARK    6  A    between atoms: C_7  and  C_8
REMARK    7  A    between atoms: C_8  and  C_9
REMARK    8  A    between atoms: C_8  and  C_10
REMARK    9  A    between atoms: C_20  and  C_21
REMARK   10  A    between atoms: C_23  and  O_24
REMARK   11  A    between atoms: O_24  and  C_25
REMARK   12  A    between atoms: C_25  and  C_27
REMARK                            x       y       z     vdW  Elec       q    Type
REMARK                         _______ _______ _______ _____ _____    ______ ____
ROOT
ATOM      1  C   UNL     1      -0.156   9.966  20.046  0.00  0.00    +0.000 A 
ATOM      2  C   UNL     1      -0.367  10.546  18.768  0.00  0.00    +0.000 A 
ATOM      3  C   UNL     1       0.466  10.168  17.696  0.00  0.00    +0.000 A 
ATOM      4  C   UNL     1       1.499   9.247  17.865  0.00  0.00    +0.000 A 
ATOM      5  C   UNL     1       1.715   8.687  19.120  0.00  0.00    +0.000 A 
ATOM      6  C   UNL     1       0.913   9.066  20.198  0.00  0.00    +0.000 A 
ATOM      7  C   UNL     1       1.344   8.546  21.495  0.00  0.00    +0.000 C 
ATOM      8  O   UNL     1       1.682   9.256  22.430  0.00  0.00    +0.000 OA
ATOM      9  O   UNL     1       1.060   7.197  21.608  0.00  0.00    +0.000 OA
ATOM     10  C   UNL     1       1.573   6.251  20.694  0.00  0.00    +0.000 A 
ATOM     11  C   UNL     1       1.243   4.927  21.002  0.00  0.00    +0.000 A 
ATOM     12  C   UNL     1       1.864   3.875  20.327  0.00  0.00    +0.000 A 
ATOM     13  C   UNL     1       1.557   2.450  20.684  0.00  0.00    +0.000 C 
ATOM     14  C   UNL     1       2.828   4.166  19.349  0.00  0.00    +0.000 A 
ATOM     15  C   UNL     1       3.108   5.494  19.010  0.00  0.00    +0.000 A 
ATOM     16  C   UNL     1       2.460   6.553  19.659  0.00  0.00    +0.000 A 
ATOM     17  O   UNL     1       2.779   7.832  19.262  0.00  0.00    +0.000 OA
ENDROOT
BRANCH   1  19
ATOM     18  C   UNL     1      -0.662  11.592  21.782  0.00  0.00    +0.000 C 
ATOM     19  O   UNL     1      -0.987  10.423  21.035  0.00  0.00    +0.000 OA
ENDBRANCH   1  19
BRANCH   2  20
ATOM     20  C   UNL     1      -1.461  11.564  18.474  0.00  0.00    +0.000 C 
BRANCH  20  21
ATOM     21  O   UNL     1      -1.037  12.401  17.396  0.00  0.00    +0.000 OA
ATOM     22  H   UNL     1      -1.825  12.544  16.845  0.00  0.00    +0.000 HD
ENDBRANCH  20  21
BRANCH  20  23
ATOM     23  C   UNL     1      -2.852  10.996  18.144  0.00  0.00    +0.000 C 
BRANCH  23  24
ATOM     24  C   UNL     1      -3.379  11.284  16.726  0.00  0.00    +0.000 C 
ATOM     25  C   UNL     1      -3.170  10.111  15.767  0.00  0.00    +0.000 C 
ATOM     26  C   UNL     1      -4.872  11.624  16.796  0.00  0.00    +0.000 C 
ENDBRANCH  23  24
ENDBRANCH  20  23
ENDBRANCH   2  20
BRANCH  15  27
ATOM     27  O   UNL     1       4.120   5.854  18.080  0.00  0.00    +0.000 OA
BRANCH  27  28
ATOM     28  C   UNL     1       5.455   5.476  18.202  0.00  0.00    +0.000 C 
ATOM     29  O   UNL     1       6.225   5.851  19.078  0.00  0.00    +0.000 OA
BRANCH  28  30
ATOM     30  C   UNL     1       5.793   4.401  17.187  0.00  0.00    +0.000 C 
ATOM     31  C   UNL     1       7.287   4.449  16.738  0.00  0.00    +0.000 C 
ATOM     32  C   UNL     1       7.188   4.493  15.200  0.00  0.00    +0.000 C 
ATOM     33  C   UNL     1       6.582   5.817  14.795  0.00  0.00    +0.000 C 
ATOM     34  C   UNL     1       5.292   5.794  15.160  0.00  0.00    +0.000 C 
ATOM     35  C   UNL     1       5.042   4.463  15.832  0.00  0.00    +0.000 C 
ATOM     36  C   UNL     1       5.968   3.599  14.961  0.00  0.00    +0.000 C 
ENDBRANCH  28  30
ENDBRANCH  27  28
ENDBRANCH  15  27
TORSDOF 8
ENDMDL
MODEL 4
REMARK VINA RESULT:      -8.1      1.361      1.790
REMARK  Name = 
REMARK  12 active torsions:
REMARK  status: ('A' for Active; 'I' for Inactive)
REMARK    1  A    between atoms: C_1  and  O_2
REMARK    2  A    between atoms: O_2  and  C_3
REMARK    3  A    between atoms: C_4  and  C_5
REMARK    4  A    between atoms: C_5  and  O_6
REMARK    5  A    between atoms: C_5  and  C_7
REMARK    6  A    between atoms: C_7  and  C_8
REMARK    7  A    between atoms: C_8  and  C_9
REMARK    8  A    between atoms: C_8  and  C_10
REMARK    9  A    between atoms: C_20  and  C_21
REMARK   10  A    between atoms: C_23  and  O_24
REMARK   11  A    between atoms: O_24  and  C_25
REMARK   12  A    between atoms: C_25  and  C_27
REMARK                            x       y       z     vdW  Elec       q    Type
REMARK                         _______ _______ _______ _____ _____    ______ ____
ROOT
ATOM      1  C   UNL     1      -0.489  10.250  20.547  0.00  0.00    +0.000 A 
ATOM      2  C   UNL     1      -1.013  10.957  19.433  0.00  0.00    +0.000 A 
ATOM      3  C   UNL     1      -0.407  10.798  18.171  0.00  0.00    +0.000 A 
ATOM      4  C   UNL     1       0.702   9.972  17.994  0.00  0.00    +0.000 A 
ATOM      5  C   UNL     1       1.225   9.288  19.087  0.00  0.00    +0.000 A 
ATOM      6  C   UNL     1       0.650   9.451  20.349  0.00  0.00    +0.000 A 
ATOM      7  C   UNL     1       1.388   8.823  21.444  0.00  0.00    +0.000 C 
ATOM      8  O   UNL     1       1.869   9.445  22.380  0.00  0.00    +0.000 OA
ATOM      9  O   UNL     1       1.235   7.449  21.423  0.00  0.00    +0.000 OA
ATOM     10  C   UNL     1       1.605   6.677  20.300  0.00  0.00    +0.000 A 
ATOM     11  C   UNL     1       1.446   5.300  20.481  0.00  0.00    +0.000 A 
ATOM     12  C   UNL     1       1.981   4.405  19.552  0.00  0.00    +0.000 A 
ATOM     13  C   UNL     1       1.862   2.923  19.762  0.00  0.00    +0.000 C 
ATOM     14  C   UNL     1       2.686   4.908  18.448  0.00  0.00    +0.000 A 
ATOM     15  C   UNL     1       2.789   6.289  18.247  0.00  0.00    +0.000 A 
ATOM     16  C   UNL     1       2.221   7.190  19.158  0.00  0.00    +0.000 A 
ATOM     17  O   UNL     1       2.354   8.533  18.887  0.00  0.00    +0.000 OA
ENDROOT
BRANCH   1  19
ATOM     18  C   UNL     1      -0.764  11.629  22.532  0.00  0.00    +0.000 C 
ATOM     19  O   UNL     1      -1.117  10.498  21.739  0.00  0.00    +0.000 OA
ENDBRANCH   1  19
BRANCH   2  20
ATOM     20  C   UNL     1      -2.215  11.888  19.516  0.00  0.00    +0.000 C 
BRANCH  20  21
ATOM     21  O   UNL     1      -1.899  13.113  18.850  0.00  0.00    +0.000 OA
ATOM     22  H   UNL     1      -2.368  13.081  17.999  0.00  0.00    +0.000 HD
ENDBRANCH  20  21
BRANCH  20  23
ATOM     23  C   UNL     1      -3.540  11.345  18.953  0.00  0.00    +0.000 C 
BRANCH  23  24
ATOM     24  C   UNL     1      -3.809  11.634  17.464  0.00  0.00    +0.000 C 
ATOM     25  C   UNL     1      -3.496  10.438  16.563  0.00  0.00    +0.000 C 
ATOM     26  C   UNL     1      -5.276  12.039  17.280  0.00  0.00    +0.000 C 
ENDBRANCH  23  24
ENDBRANCH  20  23
ENDBRANCH   2  20
BRANCH  15  27
ATOM     27  O   UNL     1       3.546   6.859  17.189  0.00  0.00    +0.000 OA
BRANCH  27  28
ATOM     28  C   UNL     1       4.822   6.430  16.832  0.00  0.00    +0.000 C 
ATOM     29  O   UNL     1       5.170   6.083  15.709  0.00  0.00    +0.000 OA
BRANCH  28  30
ATOM     30  C   UNL     1       5.781   6.601  17.995  0.00  0.00    +0.000 C 
ATOM     31  C   UNL     1       7.232   6.941  17.531  0.00  0.00    +0.000 C 
ATOM     32  C   UNL     1       8.086   5.882  18.255  0.00  0.00    +0.000 C 
ATOM     33  C   UNL     1       7.764   4.525  17.675  0.00  0.00    +0.000 C 
ATOM     34  C   UNL     1       6.524   4.205  18.071  0.00  0.00    +0.000 C 
ATOM     35  C   UNL     1       6.008   5.361  18.898  0.00  0.00    +0.000 C 
ATOM     36  C   UNL     1       7.328   5.752  19.580  0.00  0.00    +0.000 C 
ENDBRANCH  28  30
ENDBRANCH  27  28
ENDBRANCH  15  27
TORSDOF 8
ENDMDL
MODEL 5
REMARK VINA RESULT:      -7.8      1.171      1.992
REMARK  Name = 
REMARK  12 active torsions:
REMARK  status: ('A' for Active; 'I' for Inactive)
REMARK    1  A    between atoms: C_1  and  O_2
REMARK    2  A    between atoms: O_2  and  C_3
REMARK    3  A    between atoms: C_4  and  C_5
REMARK    4  A    between atoms: C_5  and  O_6
REMARK    5  A    between atoms: C_5  and  C_7
REMARK    6  A    between atoms: C_7  and  C_8
REMARK    7  A    between atoms: C_8  and  C_9
REMARK    8  A    between atoms: C_8  and  C_10
REMARK    9  A    between atoms: C_20  and  C_21
REMARK   10  A    between atoms: C_23  and  O_24
REMARK   11  A    between atoms: O_24  and  C_25
REMARK   12  A    between atoms: C_25  and  C_27
REMARK                            x       y       z     vdW  Elec       q    Type
REMARK                         _______ _______ _______ _____ _____    ______ ____
ROOT
ATOM      1  C   UNL     1      -0.028   9.991  20.103  0.00  0.00    +0.000 A 
ATOM      2  C   UNL     1      -0.173  10.712  18.888  0.00  0.00    +0.000 A 
ATOM      3  C   UNL     1       0.679  10.414  17.806  0.00  0.00    +0.000 A 
ATOM      4  C   UNL     1       1.669   9.436  17.905  0.00  0.00    +0.000 A 
ATOM      5  C   UNL     1       1.819   8.737  19.099  0.00  0.00    +0.000 A 
ATOM      6  C   UNL     1       0.998   9.034  20.188  0.00  0.00    +0.000 A 
ATOM      7  C   UNL     1       1.364   8.361  21.433  0.00  0.00    +0.000 C 
ATOM      8  O   UNL     1       1.699   8.952  22.449  0.00  0.00    +0.000 OA
ATOM      9  O   UNL     1       1.022   7.022  21.392  0.00  0.00    +0.000 OA
ATOM     10  C   UNL     1       1.527   6.156  20.397  0.00  0.00    +0.000 A 
ATOM     11  C   UNL     1       1.133   4.823  20.551  0.00  0.00    +0.000 A 
ATOM     12  C   UNL     1       1.733   3.822  19.785  0.00  0.00    +0.000 A 
ATOM     13  C   UNL     1       1.357   2.382  19.978  0.00  0.00    +0.000 C 
ATOM     14  C   UNL     1       2.741   4.173  18.873  0.00  0.00    +0.000 A 
ATOM     15  C   UNL     1       3.086   5.517  18.686  0.00  0.00    +0.000 A 
ATOM     16  C   UNL     1       2.459   6.527  19.426  0.00  0.00    +0.000 A 
ATOM     17  O   UNL     1       2.843   7.826  19.179  0.00  0.00    +0.000 OA
ENDROOT
BRANCH   1  19
ATOM     18  C   UNL     1      -0.406  11.184  22.188  0.00  0.00    +0.000 C 
ATOM     19  O   UNL     1      -0.873  10.376  21.110  0.00  0.00    +0.000 OA
ENDBRANCH   1  19
BRANCH   2  20
ATOM     20  C   UNL     1      -1.214  11.803  18.675  0.00  0.00    +0.000 C 
BRANCH  20  21
ATOM     21  O   UNL     1      -2.473  11.344  19.171  0.00  0.00    +0.000 OA
ATOM     22  H   UNL     1      -3.137  11.637  18.523  0.00  0.00    +0.000 HD
ENDBRANCH  20  21
BRANCH  20  23
ATOM     23  C   UNL     1      -0.904  13.174  19.300  0.00  0.00    +0.000 C 
BRANCH  23  24
ATOM     24  C   UNL     1       0.580  13.462  19.593  0.00  0.00    +0.000 C 
ATOM     25  C   UNL     1       1.309  14.086  18.402  0.00  0.00    +0.000 C 
ATOM     26  C   UNL     1       0.689  14.398  20.802  0.00  0.00    +0.000 C 
ENDBRANCH  23  24
ENDBRANCH  20  23
ENDBRANCH   2  20
BRANCH  15  27
ATOM     27  O   UNL     1       4.141   5.929  17.830  0.00  0.00    +0.000 OA
BRANCH  27  28
ATOM     28  C   UNL     1       5.491   5.740  18.118  0.00  0.00    +0.000 C 
ATOM     29  O   UNL     1       5.948   5.406  19.205  0.00  0.00    +0.000 OA
BRANCH  28  30
ATOM     30  C   UNL     1       6.320   5.851  16.853  0.00  0.00    +0.000 C 
ATOM     31  C   UNL     1       5.482   6.328  15.627  0.00  0.00    +0.000 C 
ATOM     32  C   UNL     1       5.784   5.256  14.560  0.00  0.00    +0.000 C 
ATOM     33  C   UNL     1       5.174   3.948  15.007  0.00  0.00    +0.000 C 
ATOM     34  C   UNL     1       5.887   3.512  16.055  0.00  0.00    +0.000 C 
ATOM     35  C   UNL     1       6.960   4.542  16.324  0.00  0.00    +0.000 C 
ATOM     36  C   UNL     1       7.251   4.943  14.869  0.00  0.00    +0.000 C 
ENDBRANCH  28  30
ENDBRANCH  27  28
ENDBRANCH  15  27
TORSDOF 8
ENDMDL
MODEL 6
REMARK VINA RESULT:      -7.8      1.294      1.955
REMARK  Name = 
REMARK  12 active torsions:
REMARK  status: ('A' for Active; 'I' for Inactive)
REMARK    1  A    between atoms: C_1  and  O_2
REMARK    2  A    between atoms: O_2  and  C_3
REMARK    3  A    between atoms: C_4  and  C_5
REMARK    4  A    between atoms: C_5  and  O_6
REMARK    5  A    between atoms: C_5  and  C_7
REMARK    6  A    between atoms: C_7  and  C_8
REMARK    7  A    between atoms: C_8  and  C_9
REMARK    8  A    between atoms: C_8  and  C_10
REMARK    9  A    between atoms: C_20  and  C_21
REMARK   10  A    between atoms: C_23  and  O_24
REMARK   11  A    between atoms: O_24  and  C_25
REMARK   12  A    between atoms: C_25  and  C_27
REMARK                            x       y       z     vdW  Elec       q    Type
REMARK                         _______ _______ _______ _____ _____    ______ ____
ROOT
ATOM      1  C   UNL     1      -0.414  10.084  20.434  0.00  0.00    +0.000 A 
ATOM      2  C   UNL     1      -0.945  10.689  19.265  0.00  0.00    +0.000 A 
ATOM      3  C   UNL     1      -0.388  10.367  18.011  0.00  0.00    +0.000 A 
ATOM      4  C   UNL     1       0.681   9.478  17.894  0.00  0.00    +0.000 A 
ATOM      5  C   UNL     1       1.209   8.894  19.041  0.00  0.00    +0.000 A 
ATOM      6  C   UNL     1       0.683   9.218  20.293  0.00  0.00    +0.000 A 
ATOM      7  C   UNL     1       1.430   8.679  21.429  0.00  0.00    +0.000 C 
ATOM      8  O   UNL     1       1.966   9.376  22.278  0.00  0.00    +0.000 OA
ATOM      9  O   UNL     1       1.219   7.319  21.562  0.00  0.00    +0.000 OA
ATOM     10  C   UNL     1       1.520   6.414  20.521  0.00  0.00    +0.000 A 
ATOM     11  C   UNL     1       1.310   5.073  20.855  0.00  0.00    +0.000 A 
ATOM     12  C   UNL     1       1.776   4.060  20.015  0.00  0.00    +0.000 A 
ATOM     13  C   UNL     1       1.604   2.617  20.389  0.00  0.00    +0.000 C 
ATOM     14  C   UNL     1       2.466   4.410  18.844  0.00  0.00    +0.000 A 
ATOM     15  C   UNL     1       2.620   5.755  18.491  0.00  0.00    +0.000 A 
ATOM     16  C   UNL     1       2.120   6.773  19.312  0.00  0.00    +0.000 A 
ATOM     17  O   UNL     1       2.299   8.072  18.893  0.00  0.00    +0.000 OA
ENDROOT
BRANCH   1  19
ATOM     18  C   UNL     1      -0.470  11.593  22.341  0.00  0.00    +0.000 C 
ATOM     19  O   UNL     1      -0.992  10.487  21.609  0.00  0.00    +0.000 OA
ENDBRANCH   1  19
BRANCH   2  20
ATOM     20  C   UNL     1      -2.104  11.677  19.278  0.00  0.00    +0.000 C 
BRANCH  20  21
ATOM     21  O   UNL     1      -1.617  12.956  19.691  0.00  0.00    +0.000 OA
ATOM     22  H   UNL     1      -0.664  12.952  19.497  0.00  0.00    +0.000 HD
ENDBRANCH  20  21
BRANCH  20  23
ATOM     23  C   UNL     1      -2.876  11.841  17.958  0.00  0.00    +0.000 C 
BRANCH  23  24
ATOM     24  C   UNL     1      -3.846  10.701  17.596  0.00  0.00    +0.000 C 
ATOM     25  C   UNL     1      -5.314  11.121  17.687  0.00  0.00    +0.000 C 
ATOM     26  C   UNL     1      -3.546  10.206  16.177  0.00  0.00    +0.000 C 
ENDBRANCH  23  24
ENDBRANCH  20  23
ENDBRANCH   2  20
BRANCH  15  27
ATOM     27  O   UNL     1       3.365   6.173  17.356  0.00  0.00    +0.000 OA
BRANCH  27  28
ATOM     28  C   UNL     1       4.667   6.665  17.423  0.00  0.00    +0.000 C 
ATOM     29  O   UNL     1       4.986   7.847  17.388  0.00  0.00    +0.000 OA
BRANCH  28  30
ATOM     30  C   UNL     1       5.641   5.538  17.708  0.00  0.00    +0.000 C 
ATOM     31  C   UNL     1       6.049   5.464  19.213  0.00  0.00    +0.000 C 
ATOM     32  C   UNL     1       7.590   5.468  19.156  0.00  0.00    +0.000 C 
ATOM     33  C   UNL     1       8.049   6.818  18.660  0.00  0.00    +0.000 C 
ATOM     34  C   UNL     1       7.720   6.900  17.362  0.00  0.00    +0.000 C 
ATOM     35  C   UNL     1       7.018   5.612  16.999  0.00  0.00    +0.000 C 
ATOM     36  C   UNL     1       7.837   4.657  17.881  0.00  0.00    +0.000 C 
ENDBRANCH  28  30
ENDBRANCH  27  28
ENDBRANCH  15  27
TORSDOF 8
ENDMDL
MODEL 7
REMARK VINA RESULT:      -7.7      0.933      1.416
REMARK  Name = 
REMARK  12 active torsions:
REMARK  status: ('A' for Active; 'I' for Inactive)
REMARK    1  A    between atoms: C_1  and  O_2
REMARK    2  A    between atoms: O_2  and  C_3
REMARK    3  A    between atoms: C_4  and  C_5
REMARK    4  A    between atoms: C_5  and  O_6
REMARK    5  A    between atoms: C_5  and  C_7
REMARK    6  A    between atoms: C_7  and  C_8
REMARK    7  A    between atoms: C_8  and  C_9
REMARK    8  A    between atoms: C_8  and  C_10
REMARK    9  A    between atoms: C_20  and  C_21
REMARK   10  A    between atoms: C_23  and  O_24
REMARK   11  A    between atoms: O_24  and  C_25
REMARK   12  A    between atoms: C_25  and  C_27
REMARK                            x       y       z     vdW  Elec       q    Type
REMARK                         _______ _______ _______ _____ _____    ______ ____
ROOT
ATOM      1  C   UNL     1      -0.536  10.480  20.629  0.00  0.00    +0.000 A 
ATOM      2  C   UNL     1      -0.962  11.150  19.452  0.00  0.00    +0.000 A 
ATOM      3  C   UNL     1      -0.283  10.911  18.241  0.00  0.00    +0.000 A 
ATOM      4  C   UNL     1       0.805  10.041  18.174  0.00  0.00    +0.000 A 
ATOM      5  C   UNL     1       1.231   9.393  19.329  0.00  0.00    +0.000 A 
ATOM      6  C   UNL     1       0.583   9.635  20.542  0.00  0.00    +0.000 A 
ATOM      7  C   UNL     1       1.227   9.036  21.710  0.00  0.00    +0.000 C 
ATOM      8  O   UNL     1       1.669   9.685  22.647  0.00  0.00    +0.000 OA
ATOM      9  O   UNL     1       1.025   7.668  21.741  0.00  0.00    +0.000 OA
ATOM     10  C   UNL     1       1.438   6.832  20.682  0.00  0.00    +0.000 A 
ATOM     11  C   UNL     1       1.218   5.471  20.914  0.00  0.00    +0.000 A 
ATOM     12  C   UNL     1       1.778   4.515  20.063  0.00  0.00    +0.000 A 
ATOM     13  C   UNL     1       1.593   3.050  20.332  0.00  0.00    +0.000 C 
ATOM     14  C   UNL     1       2.571   4.942  18.986  0.00  0.00    +0.000 A 
ATOM     15  C   UNL     1       2.736   6.308  18.731  0.00  0.00    +0.000 A 
ATOM     16  C   UNL     1       2.145   7.269  19.560  0.00  0.00    +0.000 A 
ATOM     17  O   UNL     1       2.343   8.593  19.238  0.00  0.00    +0.000 OA
ENDROOT
BRANCH   1  19
ATOM     18  C   UNL     1      -0.847  11.923  22.562  0.00  0.00    +0.000 C 
ATOM     19  O   UNL     1      -1.229  10.805  21.765  0.00  0.00    +0.000 OA
ENDBRANCH   1  19
BRANCH   2  20
ATOM     20  C   UNL     1      -2.133  12.124  19.414  0.00  0.00    +0.000 C 
BRANCH  20  21
ATOM     21  O   UNL     1      -1.625  13.459  19.426  0.00  0.00    +0.000 OA
ATOM     22  H   UNL     1      -1.562  13.728  18.493  0.00  0.00    +0.000 HD
ENDBRANCH  20  21
BRANCH  20  23
ATOM     23  C   UNL     1      -3.107  11.974  18.232  0.00  0.00    +0.000 C 
BRANCH  23  24
ATOM     24  C   UNL     1      -3.876  10.641  18.155  0.00  0.00    +0.000 C 
ATOM     25  C   UNL     1      -5.386  10.837  18.009  0.00  0.00    +0.000 C 
ATOM     26  C   UNL     1      -3.352   9.818  16.973  0.00  0.00    +0.000 C 
ENDBRANCH  23  24
ENDBRANCH  20  23
ENDBRANCH   2  20
BRANCH  15  27
ATOM     27  O   UNL     1       3.580   6.801  17.700  0.00  0.00    +0.000 OA
BRANCH  27  28
ATOM     28  C   UNL     1       4.810   6.238  17.369  0.00  0.00    +0.000 C 
ATOM     29  O   UNL     1       5.847   6.360  18.011  0.00  0.00    +0.000 OA
BRANCH  28  30
ATOM     30  C   UNL     1       4.661   5.309  16.179  0.00  0.00    +0.000 C 
ATOM     31  C   UNL     1       5.031   3.832  16.522  0.00  0.00    +0.000 C 
ATOM     32  C   UNL     1       6.059   3.469  15.431  0.00  0.00    +0.000 C 
ATOM     33  C   UNL     1       7.311   4.282  15.661  0.00  0.00    +0.000 C 
ATOM     34  C   UNL     1       7.020   5.556  15.361  0.00  0.00    +0.000 C 
ATOM     35  C   UNL     1       5.565   5.597  14.953  0.00  0.00    +0.000 C 
ATOM     36  C   UNL     1       5.499   4.241  14.234  0.00  0.00    +0.000 C 
ENDBRANCH  28  30
ENDBRANCH  27  28
ENDBRANCH  15  27
TORSDOF 8
ENDMDL
MODEL 8
REMARK VINA RESULT:      -7.7      1.075      1.606
REMARK  Name = 
REMARK  12 active torsions:
REMARK  status: ('A' for Active; 'I' for Inactive)
REMARK    1  A    between atoms: C_1  and  O_2
REMARK    2  A    between atoms: O_2  and  C_3
REMARK    3  A    between atoms: C_4  and  C_5
REMARK    4  A    between atoms: C_5  and  O_6
REMARK    5  A    between atoms: C_5  and  C_7
REMARK    6  A    between atoms: C_7  and  C_8
REMARK    7  A    between atoms: C_8  and  C_9
REMARK    8  A    between atoms: C_8  and  C_10
REMARK    9  A    between atoms: C_20  and  C_21
REMARK   10  A    between atoms: C_23  and  O_24
REMARK   11  A    between atoms: O_24  and  C_25
REMARK   12  A    between atoms: C_25  and  C_27
REMARK                            x       y       z     vdW  Elec       q    Type
REMARK                         _______ _______ _______ _____ _____    ______ ____
ROOT
ATOM      1  C   UNL     1      -0.488  10.288  20.600  0.00  0.00    +0.000 A 
ATOM      2  C   UNL     1      -0.996  10.959  19.456  0.00  0.00    +0.000 A 
ATOM      3  C   UNL     1      -0.390  10.737  18.204  0.00  0.00    +0.000 A 
ATOM      4  C   UNL     1       0.704   9.883  18.064  0.00  0.00    +0.000 A 
ATOM      5  C   UNL     1       1.210   9.235  19.186  0.00  0.00    +0.000 A 
ATOM      6  C   UNL     1       0.635   9.459  20.438  0.00  0.00    +0.000 A 
ATOM      7  C   UNL     1       1.358   8.862  21.559  0.00  0.00    +0.000 C 
ATOM      8  O   UNL     1       1.848   9.512  22.472  0.00  0.00    +0.000 OA
ATOM      9  O   UNL     1       1.178   7.492  21.593  0.00  0.00    +0.000 OA
ATOM     10  C   UNL     1       1.536   6.668  20.504  0.00  0.00    +0.000 A 
ATOM     11  C   UNL     1       1.351   5.302  20.739  0.00  0.00    +0.000 A 
ATOM     12  C   UNL     1       1.870   4.360  19.849  0.00  0.00    +0.000 A 
ATOM     13  C   UNL     1       1.723   2.891  20.118  0.00  0.00    +0.000 C 
ATOM     14  C   UNL     1       2.588   4.805  18.728  0.00  0.00    +0.000 A 
ATOM     15  C   UNL     1       2.719   6.175  18.473  0.00  0.00    +0.000 A 
ATOM     16  C   UNL     1       2.166   7.123  19.344  0.00  0.00    +0.000 A 
ATOM     17  O   UNL     1       2.325   8.451  19.020  0.00  0.00    +0.000 OA
ENDROOT
BRANCH   1  19
ATOM     18  C   UNL     1      -0.736  11.745  22.531  0.00  0.00    +0.000 C 
ATOM     19  O   UNL     1      -1.115  10.595  21.779  0.00  0.00    +0.000 OA
ENDBRANCH   1  19
BRANCH   2  20
ATOM     20  C   UNL     1      -2.180  11.915  19.498  0.00  0.00    +0.000 C 
BRANCH  20  21
ATOM     21  O   UNL     1      -1.703  13.251  19.318  0.00  0.00    +0.000 OA
ATOM     22  H   UNL     1      -1.484  13.329  18.374  0.00  0.00    +0.000 HD
ENDBRANCH  20  21
BRANCH  20  23
ATOM     23  C   UNL     1      -3.307  11.651  18.484  0.00  0.00    +0.000 C 
BRANCH  23  24
ATOM     24  C   UNL     1      -4.736  11.607  19.059  0.00  0.00    +0.000 C 
ATOM     25  C   UNL     1      -5.389  12.989  19.126  0.00  0.00    +0.000 C 
ATOM     26  C   UNL     1      -5.602  10.677  18.203  0.00  0.00    +0.000 C 
ENDBRANCH  23  24
ENDBRANCH  20  23
ENDBRANCH   2  20
BRANCH  15  27
ATOM     27  O   UNL     1       3.489   6.687  17.395  0.00  0.00    +0.000 OA
BRANCH  27  28
ATOM     28  C   UNL     1       4.877   6.595  17.323  0.00  0.00    +0.000 C 
ATOM     29  O   UNL     1       5.664   7.517  17.503  0.00  0.00    +0.000 OA
BRANCH  28  30
ATOM     30  C   UNL     1       5.301   5.149  17.146  0.00  0.00    +0.000 C 
ATOM     31  C   UNL     1       6.847   4.961  17.246  0.00  0.00    +0.000 C 
ATOM     32  C   UNL     1       7.188   4.194  15.952  0.00  0.00    +0.000 C 
ATOM     33  C   UNL     1       6.948   5.109  14.774  0.00  0.00    +0.000 C 
ATOM     34  C   UNL     1       5.623   5.276  14.661  0.00  0.00    +0.000 C 
ATOM     35  C   UNL     1       4.977   4.491  15.780  0.00  0.00    +0.000 C 
ATOM     36  C   UNL     1       5.951   3.303  15.806  0.00  0.00    +0.000 C 
ENDBRANCH  28  30
ENDBRANCH  27  28
ENDBRANCH  15  27
TORSDOF 8
ENDMDL
MODEL 9
REMARK VINA RESULT:      -7.7      2.174      8.306
REMARK  Name = 
REMARK  12 active torsions:
REMARK  status: ('A' for Active; 'I' for Inactive)
REMARK    1  A    between atoms: C_1  and  O_2
REMARK    2  A    between atoms: O_2  and  C_3
REMARK    3  A    between atoms: C_4  and  C_5
REMARK    4  A    between atoms: C_5  and  O_6
REMARK    5  A    between atoms: C_5  and  C_7
REMARK    6  A    between atoms: C_7  and  C_8
REMARK    7  A    between atoms: C_8  and  C_9
REMARK    8  A    between atoms: C_8  and  C_10
REMARK    9  A    between atoms: C_20  and  C_21
REMARK   10  A    between atoms: C_23  and  O_24
REMARK   11  A    between atoms: O_24  and  C_25
REMARK   12  A    between atoms: C_25  and  C_27
REMARK                            x       y       z     vdW  Elec       q    Type
REMARK                         _______ _______ _______ _____ _____    ______ ____
ROOT
ATOM      1  C   UNL     1       4.408   5.145  17.948  0.00  0.00    +0.000 A 
ATOM      2  C   UNL     1       5.506   5.721  17.257  0.00  0.00    +0.000 A 
ATOM      3  C   UNL     1       5.424   7.063  16.835  0.00  0.00    +0.000 A 
ATOM      4  C   UNL     1       4.286   7.833  17.070  0.00  0.00    +0.000 A 
ATOM      5  C   UNL     1       3.204   7.266  17.736  0.00  0.00    +0.000 A 
ATOM      6  C   UNL     1       3.260   5.931  18.143  0.00  0.00    +0.000 A 
ATOM      7  C   UNL     1       2.005   5.400  18.673  0.00  0.00    +0.000 C 
ATOM      8  O   UNL     1       1.398   4.467  18.168  0.00  0.00    +0.000 OA
ATOM      9  O   UNL     1       1.751   5.896  19.939  0.00  0.00    +0.000 OA
ATOM     10  C   UNL     1       1.645   7.282  20.186  0.00  0.00    +0.000 A 
ATOM     11  C   UNL     1       1.316   7.600  21.507  0.00  0.00    +0.000 A 
ATOM     12  C   UNL     1       0.954   8.905  21.845  0.00  0.00    +0.000 A 
ATOM     13  C   UNL     1       0.548   9.247  23.249  0.00  0.00    +0.000 C 
ATOM     14  C   UNL     1       0.915   9.884  20.840  0.00  0.00    +0.000 A 
ATOM     15  C   UNL     1       1.301   9.567  19.533  0.00  0.00    +0.000 A 
ATOM     16  C   UNL     1       1.701   8.267  19.198  0.00  0.00    +0.000 A 
ATOM     17  O   UNL     1       2.078   8.035  17.895  0.00  0.00    +0.000 OA
ENDROOT
BRANCH   1  19
ATOM     18  C   UNL     1       4.446   3.396  19.638  0.00  0.00    +0.000 C 
ATOM     19  O   UNL     1       4.562   3.825  18.284  0.00  0.00    +0.000 OA
ENDBRANCH   1  19
BRANCH   2  20
ATOM     20  C   UNL     1       6.793   4.969  16.943  0.00  0.00    +0.000 C 
BRANCH  20  21
ATOM     21  O   UNL     1       7.184   4.220  18.096  0.00  0.00    +0.000 OA
ATOM     22  H   UNL     1       7.464   3.350  17.764  0.00  0.00    +0.000 HD
ENDBRANCH  20  21
BRANCH  20  23
ATOM     23  C   UNL     1       6.753   4.026  15.728  0.00  0.00    +0.000 C 
BRANCH  23  24
ATOM     24  C   UNL     1       6.421   4.683  14.375  0.00  0.00    +0.000 C 
ATOM     25  C   UNL     1       7.662   5.207  13.651  0.00  0.00    +0.000 C 
ATOM     26  C   UNL     1       5.700   3.669  13.479  0.00  0.00    +0.000 C 
ENDBRANCH  23  24
ENDBRANCH  20  23
ENDBRANCH   2  20
BRANCH  15  27
ATOM     27  O   UNL     1       1.218  10.494  18.459  0.00  0.00    +0.000 OA
BRANCH  27  28
ATOM     28  C   UNL     1       0.259  11.501  18.379  0.00  0.00    +0.000 C 
ATOM     29  O   UNL     1      -0.945  11.355  18.547  0.00  0.00    +0.000 OA
BRANCH  28  30
ATOM     30  C   UNL     1       0.928  12.852  18.208  0.00  0.00    +0.000 C 
ATOM     31  C   UNL     1       2.484  12.766  18.295  0.00  0.00    +0.000 C 
ATOM     32  C   UNL     1       2.832  13.824  19.361  0.00  0.00    +0.000 C 
ATOM     33  C   UNL     1       2.308  13.353  20.697  0.00  0.00    +0.000 C 
ATOM     34  C   UNL     1       0.970  13.430  20.650  0.00  0.00    +0.000 C 
ATOM     35  C   UNL     1       0.600  13.931  19.272  0.00  0.00    +0.000 C 
ATOM     36  C   UNL     1       1.778  14.895  19.065  0.00  0.00    +0.000 C 
ENDBRANCH  28  30
ENDBRANCH  27  28
ENDBRANCH  15  27
TORSDOF 8
ENDMDL
