MODEL 1
REMARK VINA RESULT:      -7.3      0.000      0.000
REMARK  Name = 
REMARK  5 active torsions:
REMARK  status: ('A' for Active; 'I' for Inactive)
REMARK    1  A    between atoms: C_1  and  C_2
REMARK    2  A    between atoms: C_2  and  O_3
REMARK    3  A    between atoms: C_7  and  C_9
REMARK    4  A    between atoms: C_9  and  C_10
REMARK    5  A    between atoms: C_20  and  O_21
REMARK                            x       y       z     vdW  Elec       q    Type
REMARK                         _______ _______ _______ _____ _____    ______ ____
ROOT
ATOM      1  C   UNL     1       0.517   2.123  18.963  0.00  0.00    +0.000 C 
ATOM      2  C   UNL     1       1.657   2.830  19.706  0.00  0.00    +0.000 C 
ATOM      3  C   UNL     1       1.563   4.351  19.464  0.00  0.00    +0.000 C 
ATOM      4  C   UNL     1       2.765   5.096  20.048  0.00  0.00    +0.000 C 
ATOM      5  N   UNL     1       4.017   4.514  19.568  0.00  0.00    +0.000 N 
ATOM      6  C   UNL     1       4.842   5.276  18.749  0.00  0.00    +0.000 C 
ATOM      7  O   UNL     1       4.526   6.422  18.412  0.00  0.00    +0.000 OA
ATOM      8  C   UNL     1       4.189   3.091  19.890  0.00  0.00    +0.000 C 
ATOM      9  C   UNL     1       3.042   2.276  19.265  0.00  0.00    +0.000 C 
ENDROOT
BRANCH   2  10
ATOM     10  O   UNL     1       1.436   2.553  21.097  0.00  0.00    +0.000 OA
ATOM     11  H   UNL     1       0.486   2.562  21.294  0.00  0.00    +0.000 HD
ENDBRANCH   2  10
BRANCH   9  12
ATOM     12  O   UNL     1       3.195   2.305  17.839  0.00  0.00    +0.000 OA
ATOM     13  H   UNL     1       3.672   1.495  17.578  0.00  0.00    +0.000 HD
ENDBRANCH   9  12
BRANCH   6  14
ATOM     14  C   UNL     1       6.154   4.693  18.246  0.00  0.00    +0.000 C 
BRANCH  14  15
ATOM     15  C   UNL     1       6.247   4.609  16.740  0.00  0.00    +0.000 A 
ATOM     16  C   UNL     1       5.353   3.782  16.016  0.00  0.00    +0.000 A 
ATOM     17  C   UNL     1       5.464   3.634  14.629  0.00  0.00    +0.000 A 
ATOM     18  C   UNL     1       6.471   4.322  13.989  0.00  0.00    +0.000 A 
ATOM     19  C   UNL     1       7.338   5.137  14.680  0.00  0.00    +0.000 A 
ATOM     20  C   UNL     1       7.253   5.302  16.049  0.00  0.00    +0.000 A 
ATOM     21  O   UNL     1       8.261   5.717  13.868  0.00  0.00    +0.000 OA
ATOM     22  C   UNL     1       7.891   5.156  12.591  0.00  0.00    +0.000 C 
ATOM     23  O   UNL     1       6.743   4.285  12.658  0.00  0.00    +0.000 OA
ENDBRANCH  14  15
ENDBRANCH   6  14
TORSDOF 4
ENDMDL
MODEL 2
REMARK VINA RESULT:      -7.2      3.958      7.710
REMARK  Name = 
REMARK  5 active torsions:
REMARK  status: ('A' for Active; 'I' for Inactive)
REMARK    1  A    between atoms: C_1  and  C_2
REMARK    2  A    between atoms: C_2  and  O_3
REMARK    3  A    between atoms: C_7  and  C_9
REMARK    4  A    between atoms: C_9  and  C_10
REMARK    5  A    between atoms: C_20  and  O_21
REMARK                            x       y       z     vdW  Elec       q    Type
REMARK                         _______ _______ _______ _____ _____    ______ ____
ROOT
ATOM      1  C   UNL     1       6.577   4.057  14.902  0.00  0.00    +0.000 C 
ATOM      2  C   UNL     1       6.161   4.577  16.283  0.00  0.00    +0.000 C 
ATOM      3  C   UNL     1       4.833   3.916  16.704  0.00  0.00    +0.000 C 
ATOM      4  C   UNL     1       4.284   4.512  18.001  0.00  0.00    +0.000 C 
ATOM      5  N   UNL     1       4.195   5.969  17.903  0.00  0.00    +0.000 N 
ATOM      6  C   UNL     1       2.942   6.568  17.930  0.00  0.00    +0.000 C 
ATOM      7  O   UNL     1       1.911   5.893  18.019  0.00  0.00    +0.000 OA
ATOM      8  C   UNL     1       5.473   6.638  17.622  0.00  0.00    +0.000 C 
ATOM      9  C   UNL     1       6.041   6.128  16.285  0.00  0.00    +0.000 C 
ENDROOT
BRANCH   2  10
ATOM     10  O   UNL     1       7.206   4.164  17.178  0.00  0.00    +0.000 OA
ATOM     11  H   UNL     1       7.654   4.939  17.551  0.00  0.00    +0.000 HD
ENDBRANCH   2  10
BRANCH   9  12
ATOM     12  O   UNL     1       5.193   6.595  15.227  0.00  0.00    +0.000 OA
ATOM     13  H   UNL     1       5.669   6.462  14.387  0.00  0.00    +0.000 HD
ENDBRANCH   9  12
BRANCH   6  14
ATOM     14  C   UNL     1       2.827   8.083  17.838  0.00  0.00    +0.000 C 
BRANCH  14  15
ATOM     15  C   UNL     1       1.803   8.675  18.779  0.00  0.00    +0.000 A 
ATOM     16  C   UNL     1       0.847   9.604  18.298  0.00  0.00    +0.000 A 
ATOM     17  C   UNL     1      -0.065  10.218  19.163  0.00  0.00    +0.000 A 
ATOM     18  C   UNL     1      -0.006   9.887  20.499  0.00  0.00    +0.000 A 
ATOM     19  C   UNL     1       0.911   8.977  20.975  0.00  0.00    +0.000 A 
ATOM     20  C   UNL     1       1.823   8.356  20.146  0.00  0.00    +0.000 A 
ATOM     21  O   UNL     1       0.810   8.797  22.319  0.00  0.00    +0.000 OA
ATOM     22  C   UNL     1      -0.259   9.714  22.637  0.00  0.00    +0.000 C 
ATOM     23  O   UNL     1      -0.794  10.394  21.484  0.00  0.00    +0.000 OA
ENDBRANCH  14  15
ENDBRANCH   6  14
TORSDOF 4
ENDMDL
MODEL 3
REMARK VINA RESULT:      -7.0      3.454      6.980
REMARK  Name = 
REMARK  5 active torsions:
REMARK  status: ('A' for Active; 'I' for Inactive)
REMARK    1  A    between atoms: C_1  and  C_2
REMARK    2  A    between atoms: C_2  and  O_3
REMARK    3  A    between atoms: C_7  and  C_9
REMARK    4  A    between atoms: C_9  and  C_10
REMARK    5  A    between atoms: C_20  and  O_21
REMARK                            x       y       z     vdW  Elec       q    Type
REMARK                         _______ _______ _______ _____ _____    ______ ____
ROOT
ATOM      1  C   UNL     1       6.630   5.469  15.150  0.00  0.00    +0.000 C 
ATOM      2  C   UNL     1       6.169   4.793  16.447  0.00  0.00    +0.000 C 
ATOM      3  C   UNL     1       4.812   4.099  16.211  0.00  0.00    +0.000 C 
ATOM      4  C   UNL     1       4.224   3.541  17.508  0.00  0.00    +0.000 C 
ATOM      5  N   UNL     1       4.167   4.578  18.538  0.00  0.00    +0.000 N 
ATOM      6  C   UNL     1       2.926   5.007  18.991  0.00  0.00    +0.000 C 
ATOM      7  O   UNL     1       1.879   4.539  18.530  0.00  0.00    +0.000 OA
ATOM      8  C   UNL     1       5.468   5.176  18.871  0.00  0.00    +0.000 C 
ATOM      9  C   UNL     1       6.079   5.819  17.613  0.00  0.00    +0.000 C 
ENDROOT
BRANCH   2  10
ATOM     10  O   UNL     1       7.168   3.804  16.738  0.00  0.00    +0.000 OA
ATOM     11  H   UNL     1       6.859   3.212  17.441  0.00  0.00    +0.000 HD
ENDBRANCH   2  10
BRANCH   9  12
ATOM     12  O   UNL     1       5.283   6.958  17.257  0.00  0.00    +0.000 OA
ATOM     13  H   UNL     1       5.819   7.520  16.668  0.00  0.00    +0.000 HD
ENDBRANCH   9  12
BRANCH   6  14
ATOM     14  C   UNL     1       2.844   6.079  20.069  0.00  0.00    +0.000 C 
BRANCH  14  15
ATOM     15  C   UNL     1       2.179   7.356  19.610  0.00  0.00    +0.000 A 
ATOM     16  C   UNL     1       2.328   7.796  18.271  0.00  0.00    +0.000 A 
ATOM     17  C   UNL     1       1.781   9.009  17.842  0.00  0.00    +0.000 A 
ATOM     18  C   UNL     1       1.088   9.763  18.764  0.00  0.00    +0.000 A 
ATOM     19  C   UNL     1       0.927   9.340  20.064  0.00  0.00    +0.000 A 
ATOM     20  C   UNL     1       1.457   8.148  20.516  0.00  0.00    +0.000 A 
ATOM     21  O   UNL     1       0.222  10.230  20.813  0.00  0.00    +0.000 OA
ATOM     22  C   UNL     1      -0.022  11.270  19.843  0.00  0.00    +0.000 C 
ATOM     23  O   UNL     1       0.509  10.971  18.535  0.00  0.00    +0.000 OA
ENDBRANCH  14  15
ENDBRANCH   6  14
TORSDOF 4
ENDMDL
MODEL 4
REMARK VINA RESULT:      -6.9      3.909      7.685
REMARK  Name = 
REMARK  5 active torsions:
REMARK  status: ('A' for Active; 'I' for Inactive)
REMARK    1  A    between atoms: C_1  and  C_2
REMARK    2  A    between atoms: C_2  and  O_3
REMARK    3  A    between atoms: C_7  and  C_9
REMARK    4  A    between atoms: C_9  and  C_10
REMARK    5  A    between atoms: C_20  and  O_21
REMARK                            x       y       z     vdW  Elec       q    Type
REMARK                         _______ _______ _______ _____ _____    ______ ____
ROOT
ATOM      1  C   UNL     1       6.870   4.241  14.921  0.00  0.00    +0.000 C 
ATOM      2  C   UNL     1       6.348   4.670  16.299  0.00  0.00    +0.000 C 
ATOM      3  C   UNL     1       5.050   3.901  16.619  0.00  0.00    +0.000 C 
ATOM      4  C   UNL     1       4.396   4.400  17.909  0.00  0.00    +0.000 C 
ATOM      5  N   UNL     1       4.209   5.850  17.865  0.00  0.00    +0.000 N 
ATOM      6  C   UNL     1       2.917   6.361  17.849  0.00  0.00    +0.000 C 
ATOM      7  O   UNL     1       1.934   5.614  17.855  0.00  0.00    +0.000 OA
ATOM      8  C   UNL     1       5.449   6.617  17.681  0.00  0.00    +0.000 C 
ATOM      9  C   UNL     1       6.119   6.207  16.357  0.00  0.00    +0.000 C 
ENDROOT
BRANCH   2  10
ATOM     10  O   UNL     1       7.373   4.289  17.230  0.00  0.00    +0.000 OA
ATOM     11  H   UNL     1       7.996   3.675  16.811  0.00  0.00    +0.000 HD
ENDBRANCH   2  10
BRANCH   9  12
ATOM     12  O   UNL     1       5.295   6.662  15.275  0.00  0.00    +0.000 OA
ATOM     13  H   UNL     1       4.518   7.104  15.663  0.00  0.00    +0.000 HD
ENDBRANCH   9  12
BRANCH   6  14
ATOM     14  C   UNL     1       2.701   7.867  17.814  0.00  0.00    +0.000 C 
BRANCH  14  15
ATOM     15  C   UNL     1       1.958   8.405  19.015  0.00  0.00    +0.000 A 
ATOM     16  C   UNL     1       1.887   7.644  20.208  0.00  0.00    +0.000 A 
ATOM     17  C   UNL     1       1.147   8.090  21.308  0.00  0.00    +0.000 A 
ATOM     18  C   UNL     1       0.490   9.296  21.195  0.00  0.00    +0.000 A 
ATOM     19  C   UNL     1       0.561  10.048  20.045  0.00  0.00    +0.000 A 
ATOM     20  C   UNL     1       1.284   9.634  18.944  0.00  0.00    +0.000 A 
ATOM     21  O   UNL     1      -0.162  11.197  20.133  0.00  0.00    +0.000 OA
ATOM     22  C   UNL     1      -0.714  11.069  21.460  0.00  0.00    +0.000 C 
ATOM     23  O   UNL     1      -0.289   9.874  22.147  0.00  0.00    +0.000 OA
ENDBRANCH  14  15
ENDBRANCH   6  14
TORSDOF 4
ENDMDL
MODEL 5
REMARK VINA RESULT:      -6.9      1.556      2.350
REMARK  Name = 
REMARK  5 active torsions:
REMARK  status: ('A' for Active; 'I' for Inactive)
REMARK    1  A    between atoms: C_1  and  C_2
REMARK    2  A    between atoms: C_2  and  O_3
REMARK    3  A    between atoms: C_7  and  C_9
REMARK    4  A    between atoms: C_9  and  C_10
REMARK    5  A    between atoms: C_20  and  O_21
REMARK                            x       y       z     vdW  Elec       q    Type
REMARK                         _______ _______ _______ _____ _____    ______ ____
ROOT
ATOM      1  C   UNL     1       0.905   3.059  20.904  0.00  0.00    +0.000 C 
ATOM      2  C   UNL     1       1.952   2.716  19.836  0.00  0.00    +0.000 C 
ATOM      3  C   UNL     1       3.346   2.632  20.491  0.00  0.00    +0.000 C 
ATOM      4  C   UNL     1       4.454   2.449  19.452  0.00  0.00    +0.000 C 
ATOM      5  N   UNL     1       4.366   3.479  18.417  0.00  0.00    +0.000 N 
ATOM      6  C   UNL     1       5.391   4.410  18.307  0.00  0.00    +0.000 C 
ATOM      7  O   UNL     1       6.359   4.390  19.075  0.00  0.00    +0.000 OA
ATOM      8  C   UNL     1       3.088   3.504  17.692  0.00  0.00    +0.000 C 
ATOM      9  C   UNL     1       1.936   3.757  18.681  0.00  0.00    +0.000 C 
ENDROOT
BRANCH   2  10
ATOM     10  O   UNL     1       1.579   1.422  19.338  0.00  0.00    +0.000 OA
ATOM     11  H   UNL     1       1.879   0.729  19.946  0.00  0.00    +0.000 HD
ENDBRANCH   2  10
BRANCH   9  12
ATOM     12  O   UNL     1       2.053   5.098  19.175  0.00  0.00    +0.000 OA
ATOM     13  H   UNL     1       2.437   5.051  20.069  0.00  0.00    +0.000 HD
ENDBRANCH   9  12
BRANCH   6  14
ATOM     14  C   UNL     1       5.324   5.484  17.231  0.00  0.00    +0.000 C 
BRANCH  14  15
ATOM     15  C   UNL     1       5.836   5.030  15.884  0.00  0.00    +0.000 A 
ATOM     16  C   UNL     1       7.171   5.308  15.498  0.00  0.00    +0.000 A 
ATOM     17  C   UNL     1       7.646   4.959  14.229  0.00  0.00    +0.000 A 
ATOM     18  C   UNL     1       6.773   4.333  13.367  0.00  0.00    +0.000 A 
ATOM     19  C   UNL     1       5.478   4.048  13.734  0.00  0.00    +0.000 A 
ATOM     20  C   UNL     1       4.982   4.380  14.979  0.00  0.00    +0.000 A 
ATOM     21  O   UNL     1       4.781   3.437  12.740  0.00  0.00    +0.000 OA
ATOM     22  C   UNL     1       5.778   3.392  11.697  0.00  0.00    +0.000 C 
ATOM     23  O   UNL     1       7.050   3.941  12.095  0.00  0.00    +0.000 OA
ENDBRANCH  14  15
ENDBRANCH   6  14
TORSDOF 4
ENDMDL
MODEL 6
REMARK VINA RESULT:      -6.8      2.555      3.790
REMARK  Name = 
REMARK  5 active torsions:
REMARK  status: ('A' for Active; 'I' for Inactive)
REMARK    1  A    between atoms: C_1  and  C_2
REMARK    2  A    between atoms: C_2  and  O_3
REMARK    3  A    between atoms: C_7  and  C_9
REMARK    4  A    between atoms: C_9  and  C_10
REMARK    5  A    between atoms: C_20  and  O_21
REMARK                            x       y       z     vdW  Elec       q    Type
REMARK                         _______ _______ _______ _____ _____    ______ ____
ROOT
ATOM      1  C   UNL     1       1.976   3.286  21.934  0.00  0.00    +0.000 C 
ATOM      2  C   UNL     1       1.739   3.278  20.419  0.00  0.00    +0.000 C 
ATOM      3  C   UNL     1       2.584   2.164  19.771  0.00  0.00    +0.000 C 
ATOM      4  C   UNL     1       2.513   2.207  18.243  0.00  0.00    +0.000 C 
ATOM      5  N   UNL     1       2.846   3.543  17.749  0.00  0.00    +0.000 N 
ATOM      6  C   UNL     1       4.000   3.710  16.992  0.00  0.00    +0.000 C 
ATOM      7  O   UNL     1       4.748   2.758  16.747  0.00  0.00    +0.000 OA
ATOM      8  C   UNL     1       1.978   4.614  18.257  0.00  0.00    +0.000 C 
ATOM      9  C   UNL     1       2.064   4.665  19.793  0.00  0.00    +0.000 C 
ENDROOT
BRANCH   2  10
ATOM     10  O   UNL     1       0.344   2.979  20.252  0.00  0.00    +0.000 OA
ATOM     11  H   UNL     1      -0.198   3.635  20.719  0.00  0.00    +0.000 HD
ENDBRANCH   2  10
BRANCH   9  12
ATOM     12  O   UNL     1       3.376   5.115  20.156  0.00  0.00    +0.000 OA
ATOM     13  H   UNL     1       3.645   4.627  20.956  0.00  0.00    +0.000 HD
ENDBRANCH   9  12
BRANCH   6  14
ATOM     14  C   UNL     1       4.360   5.090  16.460  0.00  0.00    +0.000 C 
BRANCH  14  15
ATOM     15  C   UNL     1       5.573   5.701  17.122  0.00  0.00    +0.000 A 
ATOM     16  C   UNL     1       6.298   4.970  18.095  0.00  0.00    +0.000 A 
ATOM     17  C   UNL     1       7.382   5.540  18.772  0.00  0.00    +0.000 A 
ATOM     18  C   UNL     1       7.723   6.837  18.458  0.00  0.00    +0.000 A 
ATOM     19  C   UNL     1       7.033   7.553  17.507  0.00  0.00    +0.000 A 
ATOM     20  C   UNL     1       5.960   7.017  16.824  0.00  0.00    +0.000 A 
ATOM     21  O   UNL     1       7.522   8.813  17.353  0.00  0.00    +0.000 OA
ATOM     22  C   UNL     1       8.582   8.815  18.332  0.00  0.00    +0.000 C 
ATOM     23  O   UNL     1       8.727   7.558  19.024  0.00  0.00    +0.000 OA
ENDBRANCH  14  15
ENDBRANCH   6  14
TORSDOF 4
ENDMDL
MODEL 7
REMARK VINA RESULT:      -6.7      3.481      6.353
REMARK  Name = 
REMARK  5 active torsions:
REMARK  status: ('A' for Active; 'I' for Inactive)
REMARK    1  A    between atoms: C_1  and  C_2
REMARK    2  A    between atoms: C_2  and  O_3
REMARK    3  A    between atoms: C_7  and  C_9
REMARK    4  A    between atoms: C_9  and  C_10
REMARK    5  A    between atoms: C_20  and  O_21
REMARK                            x       y       z     vdW  Elec       q    Type
REMARK                         _______ _______ _______ _____ _____    ______ ____
ROOT
ATOM      1  C   UNL     1       1.297   2.392  21.265  0.00  0.00    +0.000 C 
ATOM      2  C   UNL     1       2.042   2.656  19.950  0.00  0.00    +0.000 C 
ATOM      3  C   UNL     1       3.491   3.086  20.257  0.00  0.00    +0.000 C 
ATOM      4  C   UNL     1       4.237   3.517  18.993  0.00  0.00    +0.000 C 
ATOM      5  N   UNL     1       3.478   4.533  18.266  0.00  0.00    +0.000 N 
ATOM      6  C   UNL     1       4.003   5.815  18.158  0.00  0.00    +0.000 C 
ATOM      7  O   UNL     1       5.085   6.109  18.677  0.00  0.00    +0.000 OA
ATOM      8  C   UNL     1       2.133   4.108  17.854  0.00  0.00    +0.000 C 
ATOM      9  C   UNL     1       1.307   3.728  19.096  0.00  0.00    +0.000 C 
ENDROOT
BRANCH   2  10
ATOM     10  O   UNL     1       2.052   1.398  19.258  0.00  0.00    +0.000 OA
ATOM     11  H   UNL     1       2.956   1.049  19.212  0.00  0.00    +0.000 HD
ENDBRANCH   2  10
BRANCH   9  12
ATOM     12  O   UNL     1       1.051   4.922  19.849  0.00  0.00    +0.000 OA
ATOM     13  H   UNL     1       0.332   5.404  19.401  0.00  0.00    +0.000 HD
ENDBRANCH   9  12
BRANCH   6  14
ATOM     14  C   UNL     1       3.233   6.886  17.397  0.00  0.00    +0.000 C 
BRANCH  14  15
ATOM     15  C   UNL     1       2.405   7.787  18.283  0.00  0.00    +0.000 A 
ATOM     16  C   UNL     1       1.806   8.955  17.750  0.00  0.00    +0.000 A 
ATOM     17  C   UNL     1       1.093   9.841  18.566  0.00  0.00    +0.000 A 
ATOM     18  C   UNL     1       0.990   9.538  19.905  0.00  0.00    +0.000 A 
ATOM     19  C   UNL     1       1.558   8.401  20.432  0.00  0.00    +0.000 A 
ATOM     20  C   UNL     1       2.266   7.509  19.652  0.00  0.00    +0.000 A 
ATOM     21  O   UNL     1       1.349   8.292  21.771  0.00  0.00    +0.000 OA
ATOM     22  C   UNL     1       0.606   9.501  22.030  0.00  0.00    +0.000 C 
ATOM     23  O   UNL     1       0.358  10.288  20.847  0.00  0.00    +0.000 OA
ENDBRANCH  14  15
ENDBRANCH   6  14
TORSDOF 4
ENDMDL
MODEL 8
REMARK VINA RESULT:      -6.6      3.469      6.354
REMARK  Name = 
REMARK  5 active torsions:
REMARK  status: ('A' for Active; 'I' for Inactive)
REMARK    1  A    between atoms: C_1  and  C_2
REMARK    2  A    between atoms: C_2  and  O_3
REMARK    3  A    between atoms: C_7  and  C_9
REMARK    4  A    between atoms: C_9  and  C_10
REMARK    5  A    between atoms: C_20  and  O_21
REMARK                            x       y       z     vdW  Elec       q    Type
REMARK                         _______ _______ _______ _____ _____    ______ ____
ROOT
ATOM      1  C   UNL     1       1.471   2.249  21.107  0.00  0.00    +0.000 C 
ATOM      2  C   UNL     1       2.135   2.598  19.769  0.00  0.00    +0.000 C 
ATOM      3  C   UNL     1       3.591   3.040  20.016  0.00  0.00    +0.000 C 
ATOM      4  C   UNL     1       4.257   3.552  18.738  0.00  0.00    +0.000 C 
ATOM      5  N   UNL     1       3.440   4.590  18.110  0.00  0.00    +0.000 N 
ATOM      6  C   UNL     1       3.936   5.886  18.042  0.00  0.00    +0.000 C 
ATOM      7  O   UNL     1       5.040   6.174  18.515  0.00  0.00    +0.000 OA
ATOM      8  C   UNL     1       2.081   4.160  17.752  0.00  0.00    +0.000 C 
ATOM      9  C   UNL     1       1.334   3.698  19.016  0.00  0.00    +0.000 C 
ENDROOT
BRANCH   2  10
ATOM     10  O   UNL     1       2.127   1.378  19.010  0.00  0.00    +0.000 OA
ATOM     11  H   UNL     1       2.411   0.636  19.566  0.00  0.00    +0.000 HD
ENDBRANCH   2  10
BRANCH   9  12
ATOM     12  O   UNL     1       1.101   4.845  19.845  0.00  0.00    +0.000 OA
ATOM     13  H   UNL     1       1.588   5.594  19.455  0.00  0.00    +0.000 HD
ENDBRANCH   9  12
BRANCH   6  14
ATOM     14  C   UNL     1       3.106   6.979  17.384  0.00  0.00    +0.000 C 
BRANCH  14  15
ATOM     15  C   UNL     1       2.373   7.863  18.367  0.00  0.00    +0.000 A 
ATOM     16  C   UNL     1       2.248   7.471  19.723  0.00  0.00    +0.000 A 
ATOM     17  C   UNL     1       1.515   8.238  20.634  0.00  0.00    +0.000 A 
ATOM     18  C   UNL     1       0.919   9.390  20.171  0.00  0.00    +0.000 A 
ATOM     19  C   UNL     1       1.043   9.787  18.859  0.00  0.00    +0.000 A 
ATOM     20  C   UNL     1       1.760   9.050  17.937  0.00  0.00    +0.000 A 
ATOM     21  O   UNL     1       0.376  10.944  18.603  0.00  0.00    +0.000 OA
ATOM     22  C   UNL     1      -0.201  11.217  19.898  0.00  0.00    +0.000 C 
ATOM     23  O   UNL     1       0.156  10.245  20.902  0.00  0.00    +0.000 OA
ENDBRANCH  14  15
ENDBRANCH   6  14
TORSDOF 4
ENDMDL
MODEL 9
REMARK VINA RESULT:      -6.6      1.658      6.474
REMARK  Name = 
REMARK  5 active torsions:
REMARK  status: ('A' for Active; 'I' for Inactive)
REMARK    1  A    between atoms: C_1  and  C_2
REMARK    2  A    between atoms: C_2  and  O_3
REMARK    3  A    between atoms: C_7  and  C_9
REMARK    4  A    between atoms: C_9  and  C_10
REMARK    5  A    between atoms: C_20  and  O_21
REMARK                            x       y       z     vdW  Elec       q    Type
REMARK                         _______ _______ _______ _____ _____    ______ ____
ROOT
ATOM      1  C   UNL     1       6.392   3.723  13.956  0.00  0.00    +0.000 C 
ATOM      2  C   UNL     1       6.716   4.784  15.015  0.00  0.00    +0.000 C 
ATOM      3  C   UNL     1       7.359   4.106  16.242  0.00  0.00    +0.000 C 
ATOM      4  C   UNL     1       7.560   5.089  17.397  0.00  0.00    +0.000 C 
ATOM      5  N   UNL     1       6.310   5.779  17.711  0.00  0.00    +0.000 N 
ATOM      6  C   UNL     1       5.709   5.553  18.944  0.00  0.00    +0.000 C 
ATOM      7  O   UNL     1       6.205   4.772  19.763  0.00  0.00    +0.000 OA
ATOM      8  C   UNL     1       5.735   6.535  16.590  0.00  0.00    +0.000 C 
ATOM      9  C   UNL     1       5.443   5.581  15.418  0.00  0.00    +0.000 C 
ENDROOT
BRANCH   2  10
ATOM     10  O   UNL     1       7.671   5.660  14.398  0.00  0.00    +0.000 OA
ATOM     11  H   UNL     1       7.602   5.604  13.431  0.00  0.00    +0.000 HD
ENDBRANCH   2  10
BRANCH   9  12
ATOM     12  O   UNL     1       4.371   4.710  15.802  0.00  0.00    +0.000 OA
ATOM     13  H   UNL     1       3.645   4.836  15.164  0.00  0.00    +0.000 HD
ENDBRANCH   9  12
BRANCH   6  14
ATOM     14  C   UNL     1       4.413   6.269  19.295  0.00  0.00    +0.000 C 
BRANCH  14  15
ATOM     15  C   UNL     1       3.218   5.350  19.399  0.00  0.00    +0.000 A 
ATOM     16  C   UNL     1       2.286   5.509  20.455  0.00  0.00    +0.000 A 
ATOM     17  C   UNL     1       1.211   4.627  20.612  0.00  0.00    +0.000 A 
ATOM     18  C   UNL     1       1.086   3.599  19.703  0.00  0.00    +0.000 A 
ATOM     19  C   UNL     1       1.978   3.442  18.667  0.00  0.00    +0.000 A 
ATOM     20  C   UNL     1       3.048   4.296  18.487  0.00  0.00    +0.000 A 
ATOM     21  O   UNL     1       1.683   2.365  17.890  0.00  0.00    +0.000 OA
ATOM     22  C   UNL     1       0.518   1.851  18.569  0.00  0.00    +0.000 C 
ATOM     23  O   UNL     1       0.123   2.640  19.709  0.00  0.00    +0.000 OA
ENDBRANCH  14  15
ENDBRANCH   6  14
TORSDOF 4
ENDMDL
