MODEL 1
REMARK VINA RESULT:      -7.6      0.000      0.000
REMARK  Name = 
REMARK  8 active torsions:
REMARK  status: ('A' for Active; 'I' for Inactive)
REMARK    1  A    between atoms: C_2  and  C_3
REMARK    2  A    between atoms: C_3  and  N_4
REMARK    3  A    between atoms: C_5  and  C_6
REMARK    4  A    between atoms: C_8  and  C_9
REMARK    5  A    between atoms: C_9  and  C_11
REMARK    6  A    between atoms: C_11  and  S_12
REMARK    7  A    between atoms: S_12  and  C_13
REMARK    8  A    between atoms: C_22  and  C_23
REMARK                            x       y       z     vdW  Elec       q    Type
REMARK                         _______ _______ _______ _____ _____    ______ ____
ROOT
ATOM      1  C   UNL     1       4.641   6.212  17.368  0.00  0.00    +0.000 C 
ATOM      2  O   UNL     1       4.321   6.919  16.411  0.00  0.00    +0.000 OA
ENDROOT
BRANCH   1   7
ATOM      3  N   UNL     1       2.067   4.197  19.071  0.00  0.00    +0.000 N 
ATOM      4  C   UNL     1       2.501   3.263  18.152  0.00  0.00    +0.000 A 
ATOM      5  C   UNL     1       1.947   1.886  18.017  0.00  0.00    +0.000 C 
ATOM      6  C   UNL     1       3.505   3.856  17.405  0.00  0.00    +0.000 A 
ATOM      7  C   UNL     1       3.710   5.183  17.881  0.00  0.00    +0.000 A 
ATOM      8  C   UNL     1       2.836   5.345  18.957  0.00  0.00    +0.000 A 
ATOM      9  C   UNL     1       2.654   6.520  19.865  0.00  0.00    +0.000 C 
BRANCH   3  10
ATOM     10  C   UNL     1       0.922   4.044  19.974  0.00  0.00    +0.000 C 
BRANCH  10  12
ATOM     11  C   UNL     1       2.284   3.066  21.857  0.00  0.00    +0.000 C 
ATOM     12  C   UNL     1       1.191   3.067  21.083  0.00  0.00    +0.000 C 
ENDBRANCH  10  12
ENDBRANCH   3  10
ENDBRANCH   1   7
BRANCH   1  13
ATOM     13  C   UNL     1       6.004   6.343  18.039  0.00  0.00    +0.000 C 
BRANCH  13  14
ATOM     14  S   UNL     1       7.005   4.824  17.820  0.00  0.00    +0.000 S 
BRANCH  14  15
ATOM     15  C   UNL     1       6.875   4.609  16.118  0.00  0.00    +0.000 A 
ATOM     16  N   UNL     1       6.132   3.734  15.492  0.00  0.00    +0.000 NA
ATOM     17  C   UNL     1       6.423   3.927  14.164  0.00  0.00    +0.000 A 
ATOM     18  C   UNL     1       5.947   3.236  13.044  0.00  0.00    +0.000 A 
ATOM     19  C   UNL     1       6.414   3.606  11.777  0.00  0.00    +0.000 A 
ATOM     20  C   UNL     1       7.319   4.661  11.630  0.00  0.00    +0.000 A 
ATOM     21  C   UNL     1       7.801   5.370  12.736  0.00  0.00    +0.000 A 
ATOM     22  C   UNL     1       7.338   4.961  13.989  0.00  0.00    +0.000 A 
ATOM     23  N   UNL     1       7.613   5.380  15.268  0.00  0.00    +0.000 N 
ATOM     24  H   UNL     1       8.261   6.100  15.545  0.00  0.00    +0.000 HD
ENDBRANCH  14  15
ENDBRANCH  13  14
ENDBRANCH   1  13
TORSDOF 6
ENDMDL
MODEL 2
REMARK VINA RESULT:      -7.4      0.206      1.228
REMARK  Name = 
REMARK  8 active torsions:
REMARK  status: ('A' for Active; 'I' for Inactive)
REMARK    1  A    between atoms: C_2  and  C_3
REMARK    2  A    between atoms: C_3  and  N_4
REMARK    3  A    between atoms: C_5  and  C_6
REMARK    4  A    between atoms: C_8  and  C_9
REMARK    5  A    between atoms: C_9  and  C_11
REMARK    6  A    between atoms: C_11  and  S_12
REMARK    7  A    between atoms: S_12  and  C_13
REMARK    8  A    between atoms: C_22  and  C_23
REMARK                            x       y       z     vdW  Elec       q    Type
REMARK                         _______ _______ _______ _____ _____    ______ ____
ROOT
ATOM      1  C   UNL     1       4.458   6.405  17.504  0.00  0.00    +0.000 C 
ATOM      2  O   UNL     1       4.033   7.255  16.720  0.00  0.00    +0.000 OA
ENDROOT
BRANCH   1   7
ATOM      3  N   UNL     1       1.999   4.211  19.152  0.00  0.00    +0.000 N 
ATOM      4  C   UNL     1       2.430   3.350  18.164  0.00  0.00    +0.000 A 
ATOM      5  C   UNL     1       1.913   1.967  17.959  0.00  0.00    +0.000 C 
ATOM      6  C   UNL     1       3.392   4.018  17.427  0.00  0.00    +0.000 A 
ATOM      7  C   UNL     1       3.574   5.319  17.979  0.00  0.00    +0.000 A 
ATOM      8  C   UNL     1       2.731   5.387  19.088  0.00  0.00    +0.000 A 
ATOM      9  C   UNL     1       2.543   6.497  20.074  0.00  0.00    +0.000 C 
BRANCH   3  10
ATOM     10  C   UNL     1       0.888   3.967  20.078  0.00  0.00    +0.000 C 
BRANCH  10  12
ATOM     11  C   UNL     1       2.440   2.839  21.715  0.00  0.00    +0.000 C 
ATOM     12  C   UNL     1       1.235   2.965  21.142  0.00  0.00    +0.000 C 
ENDBRANCH  10  12
ENDBRANCH   3  10
ENDBRANCH   1   7
BRANCH   1  13
ATOM     13  C   UNL     1       5.903   6.418  17.992  0.00  0.00    +0.000 C 
BRANCH  13  14
ATOM     14  S   UNL     1       6.667   4.758  17.859  0.00  0.00    +0.000 S 
BRANCH  14  15
ATOM     15  C   UNL     1       6.814   4.619  16.151  0.00  0.00    +0.000 A 
ATOM     16  N   UNL     1       7.604   5.310  15.372  0.00  0.00    +0.000 NA
ATOM     17  C   UNL     1       7.307   4.870  14.106  0.00  0.00    +0.000 A 
ATOM     18  C   UNL     1       7.823   5.296  12.876  0.00  0.00    +0.000 A 
ATOM     19  C   UNL     1       7.341   4.702  11.703  0.00  0.00    +0.000 A 
ATOM     20  C   UNL     1       6.382   3.688  11.758  0.00  0.00    +0.000 A 
ATOM     21  C   UNL     1       5.860   3.242  12.978  0.00  0.00    +0.000 A 
ATOM     22  C   UNL     1       6.339   3.870  14.129  0.00  0.00    +0.000 A 
ATOM     23  N   UNL     1       6.039   3.731  15.463  0.00  0.00    +0.000 N 
ATOM     24  H   UNL     1       5.351   3.116  15.869  0.00  0.00    +0.000 HD
ENDBRANCH  14  15
ENDBRANCH  13  14
ENDBRANCH   1  13
TORSDOF 6
ENDMDL
MODEL 3
REMARK VINA RESULT:      -7.3      0.711      1.911
REMARK  Name = 
REMARK  8 active torsions:
REMARK  status: ('A' for Active; 'I' for Inactive)
REMARK    1  A    between atoms: C_2  and  C_3
REMARK    2  A    between atoms: C_3  and  N_4
REMARK    3  A    between atoms: C_5  and  C_6
REMARK    4  A    between atoms: C_8  and  C_9
REMARK    5  A    between atoms: C_9  and  C_11
REMARK    6  A    between atoms: C_11  and  S_12
REMARK    7  A    between atoms: S_12  and  C_13
REMARK    8  A    between atoms: C_22  and  C_23
REMARK                            x       y       z     vdW  Elec       q    Type
REMARK                         _______ _______ _______ _____ _____    ______ ____
ROOT
ATOM      1  C   UNL     1       4.845   6.550  17.358  0.00  0.00    +0.000 C 
ATOM      2  O   UNL     1       4.654   6.761  16.159  0.00  0.00    +0.000 OA
ENDROOT
BRANCH   1   7
ATOM      3  N   UNL     1       2.065   5.322  19.442  0.00  0.00    +0.000 N 
ATOM      4  C   UNL     1       2.082   6.637  19.857  0.00  0.00    +0.000 A 
ATOM      5  C   UNL     1       1.172   7.213  20.888  0.00  0.00    +0.000 C 
ATOM      6  C   UNL     1       3.088   7.277  19.154  0.00  0.00    +0.000 A 
ATOM      7  C   UNL     1       3.701   6.341  18.272  0.00  0.00    +0.000 A 
ATOM      8  C   UNL     1       3.002   5.145  18.435  0.00  0.00    +0.000 A 
ATOM      9  C   UNL     1       3.178   3.837  17.730  0.00  0.00    +0.000 C 
BRANCH   3  10
ATOM     10  C   UNL     1       1.250   4.250  20.022  0.00  0.00    +0.000 C 
BRANCH  10  12
ATOM     11  C   UNL     1       2.676   2.641  21.339  0.00  0.00    +0.000 C 
ATOM     12  C   UNL     1       1.846   3.691  21.283  0.00  0.00    +0.000 C 
ENDBRANCH  10  12
ENDBRANCH   3  10
ENDBRANCH   1   7
BRANCH   1  13
ATOM     13  C   UNL     1       6.252   6.465  17.941  0.00  0.00    +0.000 C 
BRANCH  13  14
ATOM     14  S   UNL     1       6.943   4.776  17.776  0.00  0.00    +0.000 S 
BRANCH  14  15
ATOM     15  C   UNL     1       6.822   4.555  16.075  0.00  0.00    +0.000 A 
ATOM     16  N   UNL     1       6.062   3.698  15.446  0.00  0.00    +0.000 NA
ATOM     17  C   UNL     1       6.369   3.875  14.120  0.00  0.00    +0.000 A 
ATOM     18  C   UNL     1       5.884   3.192  12.999  0.00  0.00    +0.000 A 
ATOM     19  C   UNL     1       6.373   3.542  11.734  0.00  0.00    +0.000 A 
ATOM     20  C   UNL     1       7.308   4.571  11.590  0.00  0.00    +0.000 A 
ATOM     21  C   UNL     1       7.799   5.273  12.697  0.00  0.00    +0.000 A 
ATOM     22  C   UNL     1       7.314   4.884  13.948  0.00  0.00    +0.000 A 
ATOM     23  N   UNL     1       7.588   5.302  15.227  0.00  0.00    +0.000 N 
ATOM     24  H   UNL     1       8.254   6.005  15.506  0.00  0.00    +0.000 HD
ENDBRANCH  14  15
ENDBRANCH  13  14
ENDBRANCH   1  13
TORSDOF 6
ENDMDL
MODEL 4
REMARK VINA RESULT:      -7.2      0.697      2.241
REMARK  Name = 
REMARK  8 active torsions:
REMARK  status: ('A' for Active; 'I' for Inactive)
REMARK    1  A    between atoms: C_2  and  C_3
REMARK    2  A    between atoms: C_3  and  N_4
REMARK    3  A    between atoms: C_5  and  C_6
REMARK    4  A    between atoms: C_8  and  C_9
REMARK    5  A    between atoms: C_9  and  C_11
REMARK    6  A    between atoms: C_11  and  S_12
REMARK    7  A    between atoms: S_12  and  C_13
REMARK    8  A    between atoms: C_22  and  C_23
REMARK                            x       y       z     vdW  Elec       q    Type
REMARK                         _______ _______ _______ _____ _____    ______ ____
ROOT
ATOM      1  C   UNL     1       4.768   6.537  17.350  0.00  0.00    +0.000 C 
ATOM      2  O   UNL     1       4.565   6.723  16.149  0.00  0.00    +0.000 OA
ENDROOT
BRANCH   1   7
ATOM      3  N   UNL     1       2.020   5.222  19.423  0.00  0.00    +0.000 N 
ATOM      4  C   UNL     1       2.038   6.522  19.886  0.00  0.00    +0.000 A 
ATOM      5  C   UNL     1       1.139   7.056  20.949  0.00  0.00    +0.000 C 
ATOM      6  C   UNL     1       3.033   7.191  19.194  0.00  0.00    +0.000 A 
ATOM      7  C   UNL     1       3.637   6.290  18.270  0.00  0.00    +0.000 A 
ATOM      8  C   UNL     1       2.944   5.086  18.398  0.00  0.00    +0.000 A 
ATOM      9  C   UNL     1       3.115   3.806  17.643  0.00  0.00    +0.000 C 
BRANCH   3  10
ATOM     10  C   UNL     1       1.215   4.126  19.973  0.00  0.00    +0.000 C 
BRANCH  10  12
ATOM     11  C   UNL     1       2.677   2.637  21.389  0.00  0.00    +0.000 C 
ATOM     12  C   UNL     1       1.762   3.608  21.273  0.00  0.00    +0.000 C 
ENDBRANCH  10  12
ENDBRANCH   3  10
ENDBRANCH   1   7
BRANCH   1  13
ATOM     13  C   UNL     1       6.179   6.523  17.930  0.00  0.00    +0.000 C 
BRANCH  13  14
ATOM     14  S   UNL     1       6.935   4.858  17.806  0.00  0.00    +0.000 S 
BRANCH  14  15
ATOM     15  C   UNL     1       6.947   4.648  16.099  0.00  0.00    +0.000 A 
ATOM     16  N   UNL     1       7.727   5.248  15.240  0.00  0.00    +0.000 NA
ATOM     17  C   UNL     1       7.308   4.787  14.016  0.00  0.00    +0.000 A 
ATOM     18  C   UNL     1       7.764   5.128  12.738  0.00  0.00    +0.000 A 
ATOM     19  C   UNL     1       7.156   4.532  11.626  0.00  0.00    +0.000 A 
ATOM     20  C   UNL     1       6.131   3.597  11.789  0.00  0.00    +0.000 A 
ATOM     21  C   UNL     1       5.667   3.235  13.059  0.00  0.00    +0.000 A 
ATOM     22  C   UNL     1       6.274   3.865  14.148  0.00  0.00    +0.000 A 
ATOM     23  N   UNL     1       6.061   3.798  15.504  0.00  0.00    +0.000 N 
ATOM     24  H   UNL     1       5.361   3.252  15.982  0.00  0.00    +0.000 HD
ENDBRANCH  14  15
ENDBRANCH  13  14
ENDBRANCH   1  13
TORSDOF 6
ENDMDL
MODEL 5
REMARK VINA RESULT:      -7.2      2.841      6.979
REMARK  Name = 
REMARK  8 active torsions:
REMARK  status: ('A' for Active; 'I' for Inactive)
REMARK    1  A    between atoms: C_2  and  C_3
REMARK    2  A    between atoms: C_3  and  N_4
REMARK    3  A    between atoms: C_5  and  C_6
REMARK    4  A    between atoms: C_8  and  C_9
REMARK    5  A    between atoms: C_9  and  C_11
REMARK    6  A    between atoms: C_11  and  S_12
REMARK    7  A    between atoms: S_12  and  C_13
REMARK    8  A    between atoms: C_22  and  C_23
REMARK                            x       y       z     vdW  Elec       q    Type
REMARK                         _______ _______ _______ _____ _____    ______ ____
ROOT
ATOM      1  C   UNL     1       3.451   3.052  18.808  0.00  0.00    +0.000 C 
ATOM      2  O   UNL     1       3.735   1.936  19.246  0.00  0.00    +0.000 OA
ENDROOT
BRANCH   1   7
ATOM      3  N   UNL     1       6.044   4.921  16.973  0.00  0.00    +0.000 N 
ATOM      4  C   UNL     1       5.363   4.384  15.900  0.00  0.00    +0.000 A 
ATOM      5  C   UNL     1       5.734   4.591  14.471  0.00  0.00    +0.000 C 
ATOM      6  C   UNL     1       4.317   3.635  16.410  0.00  0.00    +0.000 A 
ATOM      7  C   UNL     1       4.339   3.719  17.832  0.00  0.00    +0.000 A 
ATOM      8  C   UNL     1       5.395   4.575  18.149  0.00  0.00    +0.000 A 
ATOM      9  C   UNL     1       5.854   5.063  19.486  0.00  0.00    +0.000 C 
BRANCH   3  10
ATOM     10  C   UNL     1       7.302   5.670  16.903  0.00  0.00    +0.000 C 
BRANCH  10  12
ATOM     11  C   UNL     1       7.799   7.968  17.816  0.00  0.00    +0.000 C 
ATOM     12  C   UNL     1       7.096   7.154  17.017  0.00  0.00    +0.000 C 
ENDBRANCH  10  12
ENDBRANCH   3  10
ENDBRANCH   1   7
BRANCH   1  13
ATOM     13  C   UNL     1       2.174   3.775  19.225  0.00  0.00    +0.000 C 
BRANCH  13  14
ATOM     14  S   UNL     1       2.442   4.793  20.725  0.00  0.00    +0.000 S 
BRANCH  14  15
ATOM     15  C   UNL     1       2.126   6.362  20.097  0.00  0.00    +0.000 A 
ATOM     16  N   UNL     1       2.434   6.809  18.908  0.00  0.00    +0.000 NA
ATOM     17  C   UNL     1       2.026   8.120  18.918  0.00  0.00    +0.000 A 
ATOM     18  C   UNL     1       2.146   9.093  17.919  0.00  0.00    +0.000 A 
ATOM     19  C   UNL     1       1.667  10.383  18.177  0.00  0.00    +0.000 A 
ATOM     20  C   UNL     1       1.058  10.688  19.397  0.00  0.00    +0.000 A 
ATOM     21  C   UNL     1       0.920   9.728  20.405  0.00  0.00    +0.000 A 
ATOM     22  C   UNL     1       1.431   8.457  20.130  0.00  0.00    +0.000 A 
ATOM     23  N   UNL     1       1.512   7.303  20.872  0.00  0.00    +0.000 N 
ATOM     24  H   UNL     1       1.210   7.171  21.824  0.00  0.00    +0.000 HD
ENDBRANCH  14  15
ENDBRANCH  13  14
ENDBRANCH   1  13
TORSDOF 6
ENDMDL
MODEL 6
REMARK VINA RESULT:      -7.0      2.891      6.997
REMARK  Name = 
REMARK  8 active torsions:
REMARK  status: ('A' for Active; 'I' for Inactive)
REMARK    1  A    between atoms: C_2  and  C_3
REMARK    2  A    between atoms: C_3  and  N_4
REMARK    3  A    between atoms: C_5  and  C_6
REMARK    4  A    between atoms: C_8  and  C_9
REMARK    5  A    between atoms: C_9  and  C_11
REMARK    6  A    between atoms: C_11  and  S_12
REMARK    7  A    between atoms: S_12  and  C_13
REMARK    8  A    between atoms: C_22  and  C_23
REMARK                            x       y       z     vdW  Elec       q    Type
REMARK                         _______ _______ _______ _____ _____    ______ ____
ROOT
ATOM      1  C   UNL     1       3.172   3.130  18.770  0.00  0.00    +0.000 C 
ATOM      2  O   UNL     1       3.285   1.997  19.242  0.00  0.00    +0.000 OA
ENDROOT
BRANCH   1   7
ATOM      3  N   UNL     1       6.058   4.695  17.097  0.00  0.00    +0.000 N 
ATOM      4  C   UNL     1       5.470   4.098  16.001  0.00  0.00    +0.000 A 
ATOM      5  C   UNL     1       6.009   4.157  14.612  0.00  0.00    +0.000 C 
ATOM      6  C   UNL     1       4.331   3.450  16.447  0.00  0.00    +0.000 A 
ATOM      7  C   UNL     1       4.201   3.662  17.850  0.00  0.00    +0.000 A 
ATOM      8  C   UNL     1       5.263   4.489  18.214  0.00  0.00    +0.000 A 
ATOM      9  C   UNL     1       5.599   5.073  19.550  0.00  0.00    +0.000 C 
BRANCH   3  10
ATOM     10  C   UNL     1       7.359   5.373  17.110  0.00  0.00    +0.000 C 
BRANCH  10  12
ATOM     11  C   UNL     1       7.751   7.773  17.777  0.00  0.00    +0.000 C 
ATOM     12  C   UNL     1       7.234   6.861  16.943  0.00  0.00    +0.000 C 
ENDBRANCH  10  12
ENDBRANCH   3  10
ENDBRANCH   1   7
BRANCH   1  13
ATOM     13  C   UNL     1       1.968   4.011  19.085  0.00  0.00    +0.000 C 
BRANCH  13  14
ATOM     14  S   UNL     1       2.150   4.833  20.712  0.00  0.00    +0.000 S 
BRANCH  14  15
ATOM     15  C   UNL     1       1.919   6.476  20.259  0.00  0.00    +0.000 A 
ATOM     16  N   UNL     1       1.331   7.409  20.961  0.00  0.00    +0.000 NA
ATOM     17  C   UNL     1       1.351   8.514  20.146  0.00  0.00    +0.000 A 
ATOM     18  C   UNL     1       0.821   9.790  20.371  0.00  0.00    +0.000 A 
ATOM     19  C   UNL     1       0.949  10.757  19.367  0.00  0.00    +0.000 A 
ATOM     20  C   UNL     1       1.614  10.464  18.173  0.00  0.00    +0.000 A 
ATOM     21  C   UNL     1       2.159   9.197  17.933  0.00  0.00    +0.000 A 
ATOM     22  C   UNL     1       1.993   8.245  18.941  0.00  0.00    +0.000 A 
ATOM     23  N   UNL     1       2.347   6.921  19.042  0.00  0.00    +0.000 N 
ATOM     24  H   UNL     1       2.806   6.360  18.342  0.00  0.00    +0.000 HD
ENDBRANCH  14  15
ENDBRANCH  13  14
ENDBRANCH   1  13
TORSDOF 6
ENDMDL
MODEL 7
REMARK VINA RESULT:      -7.0      2.795      4.979
REMARK  Name = 
REMARK  8 active torsions:
REMARK  status: ('A' for Active; 'I' for Inactive)
REMARK    1  A    between atoms: C_2  and  C_3
REMARK    2  A    between atoms: C_3  and  N_4
REMARK    3  A    between atoms: C_5  and  C_6
REMARK    4  A    between atoms: C_8  and  C_9
REMARK    5  A    between atoms: C_9  and  C_11
REMARK    6  A    between atoms: C_11  and  S_12
REMARK    7  A    between atoms: S_12  and  C_13
REMARK    8  A    between atoms: C_22  and  C_23
REMARK                            x       y       z     vdW  Elec       q    Type
REMARK                         _______ _______ _______ _____ _____    ______ ____
ROOT
ATOM      1  C   UNL     1       2.014   4.503  19.835  0.00  0.00    +0.000 C 
ATOM      2  O   UNL     1       1.557   3.957  18.829  0.00  0.00    +0.000 OA
ENDROOT
BRANCH   1   7
ATOM      3  N   UNL     1       1.908   8.178  19.583  0.00  0.00    +0.000 N 
ATOM      4  C   UNL     1       1.368   8.031  20.844  0.00  0.00    +0.000 A 
ATOM      5  C   UNL     1       0.905   9.158  21.705  0.00  0.00    +0.000 C 
ATOM      6  C   UNL     1       1.336   6.676  21.123  0.00  0.00    +0.000 A 
ATOM      7  C   UNL     1       1.882   5.965  20.016  0.00  0.00    +0.000 A 
ATOM      8  C   UNL     1       2.281   6.935  19.096  0.00  0.00    +0.000 A 
ATOM      9  C   UNL     1       2.961   6.768  17.773  0.00  0.00    +0.000 C 
BRANCH   3  10
ATOM     10  C   UNL     1       2.002   9.433  18.831  0.00  0.00    +0.000 C 
BRANCH  10  12
ATOM     11  C   UNL     1      -0.357  10.201  18.380  0.00  0.00    +0.000 C 
ATOM     12  C   UNL     1       0.801   9.674  17.961  0.00  0.00    +0.000 C 
ENDBRANCH  10  12
ENDBRANCH   3  10
ENDBRANCH   1   7
BRANCH   1  13
ATOM     13  C   UNL     1       2.700   3.703  20.938  0.00  0.00    +0.000 C 
BRANCH  13  14
ATOM     14  S   UNL     1       3.768   2.387  20.242  0.00  0.00    +0.000 S 
BRANCH  14  15
ATOM     15  C   UNL     1       4.670   3.295  19.092  0.00  0.00    +0.000 A 
ATOM     16  N   UNL     1       5.562   4.216  19.343  0.00  0.00    +0.000 NA
ATOM     17  C   UNL     1       5.944   4.671  18.105  0.00  0.00    +0.000 A 
ATOM     18  C   UNL     1       6.846   5.689  17.775  0.00  0.00    +0.000 A 
ATOM     19  C   UNL     1       7.054   5.989  16.423  0.00  0.00    +0.000 A 
ATOM     20  C   UNL     1       6.396   5.270  15.422  0.00  0.00    +0.000 A 
ATOM     21  C   UNL     1       5.497   4.243  15.731  0.00  0.00    +0.000 A 
ATOM     22  C   UNL     1       5.288   3.984  17.087  0.00  0.00    +0.000 A 
ATOM     23  N   UNL     1       4.471   3.104  17.755  0.00  0.00    +0.000 N 
ATOM     24  H   UNL     1       3.816   2.455  17.348  0.00  0.00    +0.000 HD
ENDBRANCH  14  15
ENDBRANCH  13  14
ENDBRANCH   1  13
TORSDOF 6
ENDMDL
MODEL 8
REMARK VINA RESULT:      -6.9      2.127      3.545
REMARK  Name = 
REMARK  8 active torsions:
REMARK  status: ('A' for Active; 'I' for Inactive)
REMARK    1  A    between atoms: C_2  and  C_3
REMARK    2  A    between atoms: C_3  and  N_4
REMARK    3  A    between atoms: C_5  and  C_6
REMARK    4  A    between atoms: C_8  and  C_9
REMARK    5  A    between atoms: C_9  and  C_11
REMARK    6  A    between atoms: C_11  and  S_12
REMARK    7  A    between atoms: S_12  and  C_13
REMARK    8  A    between atoms: C_22  and  C_23
REMARK                            x       y       z     vdW  Elec       q    Type
REMARK                         _______ _______ _______ _____ _____    ______ ____
ROOT
ATOM      1  C   UNL     1       3.988   6.024  18.011  0.00  0.00    +0.000 C 
ATOM      2  O   UNL     1       3.651   4.881  17.698  0.00  0.00    +0.000 OA
ENDROOT
BRANCH   1   7
ATOM      3  N   UNL     1       1.417   7.961  19.806  0.00  0.00    +0.000 N 
ATOM      4  C   UNL     1       1.691   8.854  18.790  0.00  0.00    +0.000 A 
ATOM      5  C   UNL     1       1.048  10.190  18.638  0.00  0.00    +0.000 C 
ATOM      6  C   UNL     1       2.659   8.277  17.985  0.00  0.00    +0.000 A 
ATOM      7  C   UNL     1       2.982   6.990  18.504  0.00  0.00    +0.000 A 
ATOM      8  C   UNL     1       2.149   6.801  19.608  0.00  0.00    +0.000 A 
ATOM      9  C   UNL     1       2.019   5.613  20.508  0.00  0.00    +0.000 C 
BRANCH   3  10
ATOM     10  C   UNL     1       0.554   8.218  20.963  0.00  0.00    +0.000 C 
BRANCH  10  12
ATOM     11  C   UNL     1       0.664   9.519  23.120  0.00  0.00    +0.000 C 
ATOM     12  C   UNL     1       1.261   8.972  22.053  0.00  0.00    +0.000 C 
ENDBRANCH  10  12
ENDBRANCH   3  10
ENDBRANCH   1   7
BRANCH   1  13
ATOM     13  C   UNL     1       5.441   6.480  17.934  0.00  0.00    +0.000 C 
BRANCH  13  14
ATOM     14  S   UNL     1       6.589   5.052  17.916  0.00  0.00    +0.000 S 
BRANCH  14  15
ATOM     15  C   UNL     1       6.734   4.791  16.222  0.00  0.00    +0.000 A 
ATOM     16  N   UNL     1       7.587   5.358  15.410  0.00  0.00    +0.000 NA
ATOM     17  C   UNL     1       7.261   4.865  14.171  0.00  0.00    +0.000 A 
ATOM     18  C   UNL     1       7.821   5.164  12.923  0.00  0.00    +0.000 A 
ATOM     19  C   UNL     1       7.296   4.541  11.785  0.00  0.00    +0.000 A 
ATOM     20  C   UNL     1       6.250   3.620  11.893  0.00  0.00    +0.000 A 
ATOM     21  C   UNL     1       5.683   3.301  13.131  0.00  0.00    +0.000 A 
ATOM     22  C   UNL     1       6.209   3.958  14.246  0.00  0.00    +0.000 A 
ATOM     23  N   UNL     1       5.888   3.932  15.582  0.00  0.00    +0.000 N 
ATOM     24  H   UNL     1       5.146   3.408  16.019  0.00  0.00    +0.000 HD
ENDBRANCH  14  15
ENDBRANCH  13  14
ENDBRANCH   1  13
TORSDOF 6
ENDMDL
MODEL 9
REMARK VINA RESULT:      -6.9      5.335      8.209
REMARK  Name = 
REMARK  8 active torsions:
REMARK  status: ('A' for Active; 'I' for Inactive)
REMARK    1  A    between atoms: C_2  and  C_3
REMARK    2  A    between atoms: C_3  and  N_4
REMARK    3  A    between atoms: C_5  and  C_6
REMARK    4  A    between atoms: C_8  and  C_9
REMARK    5  A    between atoms: C_9  and  C_11
REMARK    6  A    between atoms: C_11  and  S_12
REMARK    7  A    between atoms: S_12  and  C_13
REMARK    8  A    between atoms: C_22  and  C_23
REMARK                            x       y       z     vdW  Elec       q    Type
REMARK                         _______ _______ _______ _____ _____    ______ ____
ROOT
ATOM      1  C   UNL     1       1.967   7.867  19.574  0.00  0.00    +0.000 C 
ATOM      2  O   UNL     1       1.728   7.965  20.779  0.00  0.00    +0.000 OA
ENDROOT
BRANCH   1   7
ATOM      3  N   UNL     1       3.268   4.509  18.791  0.00  0.00    +0.000 N 
ATOM      4  C   UNL     1       3.790   5.200  17.717  0.00  0.00    +0.000 A 
ATOM      5  C   UNL     1       4.606   4.587  16.630  0.00  0.00    +0.000 C 
ATOM      6  C   UNL     1       3.401   6.522  17.850  0.00  0.00    +0.000 A 
ATOM      7  C   UNL     1       2.632   6.658  19.041  0.00  0.00    +0.000 A 
ATOM      8  C   UNL     1       2.615   5.396  19.634  0.00  0.00    +0.000 A 
ATOM      9  C   UNL     1       1.998   4.960  20.926  0.00  0.00    +0.000 C 
BRANCH   3  10
ATOM     10  C   UNL     1       3.315   3.056  18.981  0.00  0.00    +0.000 C 
BRANCH  10  12
ATOM     11  C   UNL     1       0.916   2.358  18.643  0.00  0.00    +0.000 C 
ATOM     12  C   UNL     1       2.201   2.345  18.267  0.00  0.00    +0.000 C 
ENDBRANCH  10  12
ENDBRANCH   3  10
ENDBRANCH   1   7
BRANCH   1  13
ATOM     13  C   UNL     1       1.567   8.959  18.588  0.00  0.00    +0.000 C 
BRANCH  13  14
ATOM     14  S   UNL     1       0.994  10.467  19.457  0.00  0.00    +0.000 S 
BRANCH  14  15
ATOM     15  C   UNL     1      -0.521  10.717  18.682  0.00  0.00    +0.000 A 
ATOM     16  N   UNL     1      -1.596  11.239  19.209  0.00  0.00    +0.000 NA
ATOM     17  C   UNL     1      -2.538  11.165  18.213  0.00  0.00    +0.000 A 
ATOM     18  C   UNL     1      -3.885  11.542  18.238  0.00  0.00    +0.000 A 
ATOM     19  C   UNL     1      -4.660  11.345  17.088  0.00  0.00    +0.000 A 
ATOM     20  C   UNL     1      -4.094  10.805  15.930  0.00  0.00    +0.000 A 
ATOM     21  C   UNL     1      -2.747  10.429  15.882  0.00  0.00    +0.000 A 
ATOM     22  C   UNL     1      -2.005  10.613  17.051  0.00  0.00    +0.000 A 
ATOM     23  N   UNL     1      -0.703  10.332  17.385  0.00  0.00    +0.000 N 
ATOM     24  H   UNL     1      -0.008   9.891  16.802  0.00  0.00    +0.000 HD
ENDBRANCH  14  15
ENDBRANCH  13  14
ENDBRANCH   1  13
TORSDOF 6
ENDMDL
