MODEL 1
REMARK VINA RESULT:      -9.5      0.000      0.000
REMARK  Name = 
REMARK  8 active torsions:
REMARK  status: ('A' for Active; 'I' for Inactive)
REMARK    1  A    between atoms: S_2  and  N_4
REMARK    2  A    between atoms: S_2  and  C_16
REMARK    3  A    between atoms: N_4  and  C_5
REMARK    4  A    between atoms: C_5  and  C_6
REMARK    5  A    between atoms: N_20  and  N_21
REMARK    6  A    between atoms: C_22  and  C_23
REMARK    7  A    between atoms: C_26  and  O_27
REMARK    8  A    between atoms: C_28  and  O_29
REMARK                            x       y       z     vdW  Elec       q    Type
REMARK                         _______ _______ _______ _____ _____    ______ ____
ROOT
ATOM      1  C   UNL     1       6.553   5.221  16.909  0.00  0.00    +0.000 A 
ATOM      2  C   UNL     1       6.783   5.117  18.275  0.00  0.00    +0.000 A 
ATOM      3  C   UNL     1       7.527   6.104  18.916  0.00  0.00    +0.000 A 
ATOM      4  C   UNL     1       7.998   7.197  18.192  0.00  0.00    +0.000 A 
ATOM      5  N   UNL     1       8.583   8.247  18.937  0.00  0.00    +0.000 N 
ATOM      6  N   UNL     1       7.776   7.297  16.859  0.00  0.00    +0.000 NA
ATOM      7  C   UNL     1       7.069   6.317  16.241  0.00  0.00    +0.000 A 
ATOM      8  H   UNL     1       9.215   7.949  19.671  0.00  0.00    +0.000 HD
ENDROOT
BRANCH   1  10
ATOM      9  O   UNL     1       6.408   3.223  15.265  0.00  0.00    +0.000 OA
ATOM     10  S   UNL     1       5.536   4.065  16.050  0.00  0.00    +0.000 S 
ATOM     11  O   UNL     1       4.452   4.817  15.457  0.00  0.00    +0.000 OA
BRANCH  10  12
ATOM     12  N   UNL     1       4.902   3.081  17.281  0.00  0.00    +0.000 NA
ATOM     13  H   UNL     1       5.337   3.271  18.185  0.00  0.00    +0.000 HD
BRANCH  12  14
ATOM     14  C   UNL     1       3.425   3.036  17.342  0.00  0.00    +0.000 C 
BRANCH  14  15
ATOM     15  C   UNL     1       2.818   3.386  18.686  0.00  0.00    +0.000 A 
ATOM     16  C   UNL     1       2.376   2.348  19.520  0.00  0.00    +0.000 A 
ATOM     17  C   UNL     1       1.714   2.625  20.709  0.00  0.00    +0.000 A 
ATOM     18  C   UNL     1       1.475   3.941  21.081  0.00  0.00    +0.000 A 
ATOM     19  C   UNL     1       1.899   5.010  20.272  0.00  0.00    +0.000 A 
ATOM     20  C   UNL     1       1.630   6.331  20.673  0.00  0.00    +0.000 A 
ATOM     21  C   UNL     1       2.032   7.415  19.895  0.00  0.00    +0.000 A 
ATOM     22  C   UNL     1       2.698   7.191  18.701  0.00  0.00    +0.000 A 
ATOM     23  C   UNL     1       2.963   5.882  18.285  0.00  0.00    +0.000 A 
ATOM     24  C   UNL     1       2.580   4.751  19.055  0.00  0.00    +0.000 A 
ENDBRANCH  14  15
ENDBRANCH  12  14
ENDBRANCH  10  12
ENDBRANCH   1  10
BRANCH   5  25
ATOM     25  N   UNL     1       8.656   9.486  18.393  0.00  0.00    +0.000 NA
ATOM     26  C   UNL     1       9.639  10.219  18.810  0.00  0.00    +0.000 C 
BRANCH  26  27
ATOM     27  C   UNL     1       9.786  11.625  18.388  0.00  0.00    +0.000 A 
ATOM     28  C   UNL     1       8.903  12.608  18.862  0.00  0.00    +0.000 A 
ATOM     29  C   UNL     1       9.056  13.941  18.468  0.00  0.00    +0.000 A 
ATOM     30  C   UNL     1      10.092  14.274  17.604  0.00  0.00    +0.000 A 
ATOM     31  C   UNL     1      10.968  13.293  17.141  0.00  0.00    +0.000 A 
ATOM     32  C   UNL     1      10.832  11.968  17.529  0.00  0.00    +0.000 A 
BRANCH  30  33
ATOM     33  O   UNL     1      10.291  15.557  17.174  0.00  0.00    +0.000 OA
ATOM     34  H   UNL     1       9.804  16.155  17.768  0.00  0.00    +0.000 HD
ENDBRANCH  30  33
BRANCH  31  35
ATOM     35  O   UNL     1      11.981  13.635  16.289  0.00  0.00    +0.000 OA
ATOM     36  H   UNL     1      11.837  14.586  16.107  0.00  0.00    +0.000 HD
ENDBRANCH  31  35
ENDBRANCH  26  27
ENDBRANCH   5  25
TORSDOF 8
ENDMDL
MODEL 2
REMARK VINA RESULT:      -9.1      0.954      1.168
REMARK  Name = 
REMARK  8 active torsions:
REMARK  status: ('A' for Active; 'I' for Inactive)
REMARK    1  A    between atoms: S_2  and  N_4
REMARK    2  A    between atoms: S_2  and  C_16
REMARK    3  A    between atoms: N_4  and  C_5
REMARK    4  A    between atoms: C_5  and  C_6
REMARK    5  A    between atoms: N_20  and  N_21
REMARK    6  A    between atoms: C_22  and  C_23
REMARK    7  A    between atoms: C_26  and  O_27
REMARK    8  A    between atoms: C_28  and  O_29
REMARK                            x       y       z     vdW  Elec       q    Type
REMARK                         _______ _______ _______ _____ _____    ______ ____
ROOT
ATOM      1  C   UNL     1       6.701   5.365  16.913  0.00  0.00    +0.000 A 
ATOM      2  C   UNL     1       6.988   5.142  18.253  0.00  0.00    +0.000 A 
ATOM      3  C   UNL     1       7.727   6.089  18.957  0.00  0.00    +0.000 A 
ATOM      4  C   UNL     1       8.138   7.259  18.323  0.00  0.00    +0.000 A 
ATOM      5  N   UNL     1       8.720   8.253  19.143  0.00  0.00    +0.000 N 
ATOM      6  N   UNL     1       7.860   7.476  17.015  0.00  0.00    +0.000 NA
ATOM      7  C   UNL     1       7.158   6.536  16.333  0.00  0.00    +0.000 A 
ATOM      8  H   UNL     1       9.389   7.909  19.822  0.00  0.00    +0.000 HD
ENDROOT
BRANCH   1  10
ATOM      9  O   UNL     1       6.560   3.457  15.166  0.00  0.00    +0.000 OA
ATOM     10  S   UNL     1       5.686   4.262  15.985  0.00  0.00    +0.000 S 
ATOM     11  O   UNL     1       4.612   5.050  15.422  0.00  0.00    +0.000 OA
BRANCH  10  12
ATOM     12  N   UNL     1       5.035   3.219  17.158  0.00  0.00    +0.000 NA
ATOM     13  H   UNL     1       5.552   3.262  18.038  0.00  0.00    +0.000 HD
BRANCH  12  14
ATOM     14  C   UNL     1       3.570   3.323  17.337  0.00  0.00    +0.000 C 
BRANCH  14  15
ATOM     15  C   UNL     1       3.110   3.722  18.725  0.00  0.00    +0.000 A 
ATOM     16  C   UNL     1       2.924   2.720  19.689  0.00  0.00    +0.000 A 
ATOM     17  C   UNL     1       2.399   3.026  20.938  0.00  0.00    +0.000 A 
ATOM     18  C   UNL     1       2.042   4.333  21.241  0.00  0.00    +0.000 A 
ATOM     19  C   UNL     1       2.208   5.365  20.301  0.00  0.00    +0.000 A 
ATOM     20  C   UNL     1       1.825   6.675  20.636  0.00  0.00    +0.000 A 
ATOM     21  C   UNL     1       1.972   7.723  19.728  0.00  0.00    +0.000 A 
ATOM     22  C   UNL     1       2.495   7.469  18.470  0.00  0.00    +0.000 A 
ATOM     23  C   UNL     1       2.870   6.168  18.119  0.00  0.00    +0.000 A 
ATOM     24  C   UNL     1       2.746   5.076  19.020  0.00  0.00    +0.000 A 
ENDBRANCH  14  15
ENDBRANCH  12  14
ENDBRANCH  10  12
ENDBRANCH   1  10
BRANCH   5  25
ATOM     25  N   UNL     1       8.736   9.540  18.716  0.00  0.00    +0.000 NA
ATOM     26  C   UNL     1       9.587  10.312  19.311  0.00  0.00    +0.000 C 
BRANCH  26  27
ATOM     27  C   UNL     1       9.644  11.760  19.028  0.00  0.00    +0.000 A 
ATOM     28  C   UNL     1      10.680  12.548  19.552  0.00  0.00    +0.000 A 
ATOM     29  C   UNL     1      10.736  13.917  19.268  0.00  0.00    +0.000 A 
ATOM     30  C   UNL     1       9.753  14.479  18.463  0.00  0.00    +0.000 A 
ATOM     31  C   UNL     1       8.730  13.688  17.941  0.00  0.00    +0.000 A 
ATOM     32  C   UNL     1       8.666  12.328  18.209  0.00  0.00    +0.000 A 
BRANCH  30  33
ATOM     33  O   UNL     1       9.745  15.811  18.155  0.00  0.00    +0.000 OA
ATOM     34  H   UNL     1       9.452  16.302  18.943  0.00  0.00    +0.000 HD
ENDBRANCH  30  33
BRANCH  31  35
ATOM     35  O   UNL     1       7.768  14.255  17.154  0.00  0.00    +0.000 OA
ATOM     36  H   UNL     1       8.145  15.120  16.891  0.00  0.00    +0.000 HD
ENDBRANCH  31  35
ENDBRANCH  26  27
ENDBRANCH   5  25
TORSDOF 8
ENDMDL
MODEL 3
REMARK VINA RESULT:      -8.5      1.196      2.312
REMARK  Name = 
REMARK  8 active torsions:
REMARK  status: ('A' for Active; 'I' for Inactive)
REMARK    1  A    between atoms: S_2  and  N_4
REMARK    2  A    between atoms: S_2  and  C_16
REMARK    3  A    between atoms: N_4  and  C_5
REMARK    4  A    between atoms: C_5  and  C_6
REMARK    5  A    between atoms: N_20  and  N_21
REMARK    6  A    between atoms: C_22  and  C_23
REMARK    7  A    between atoms: C_26  and  O_27
REMARK    8  A    between atoms: C_28  and  O_29
REMARK                            x       y       z     vdW  Elec       q    Type
REMARK                         _______ _______ _______ _____ _____    ______ ____
ROOT
ATOM      1  C   UNL     1       6.989   5.831  16.806  0.00  0.00    +0.000 A 
ATOM      2  C   UNL     1       7.371   5.474  18.093  0.00  0.00    +0.000 A 
ATOM      3  C   UNL     1       8.046   6.401  18.883  0.00  0.00    +0.000 A 
ATOM      4  C   UNL     1       8.296   7.680  18.391  0.00  0.00    +0.000 A 
ATOM      5  N   UNL     1       8.816   8.621  19.309  0.00  0.00    +0.000 N 
ATOM      6  N   UNL     1       7.926   8.027  17.135  0.00  0.00    +0.000 NA
ATOM      7  C   UNL     1       7.289   7.108  16.366  0.00  0.00    +0.000 A 
ATOM      8  H   UNL     1       9.554   8.270  19.909  0.00  0.00    +0.000 HD
ENDROOT
BRANCH   1  10
ATOM      9  O   UNL     1       6.973   3.891  15.089  0.00  0.00    +0.000 OA
ATOM     10  S   UNL     1       6.043   4.748  15.785  0.00  0.00    +0.000 S 
ATOM     11  O   UNL     1       5.077   5.565  15.086  0.00  0.00    +0.000 OA
BRANCH  10  12
ATOM     12  N   UNL     1       5.216   3.759  16.892  0.00  0.00    +0.000 NA
ATOM     13  H   UNL     1       5.592   3.846  17.838  0.00  0.00    +0.000 HD
BRANCH  12  14
ATOM     14  C   UNL     1       3.742   3.863  16.837  0.00  0.00    +0.000 C 
BRANCH  14  15
ATOM     15  C   UNL     1       3.103   4.650  17.963  0.00  0.00    +0.000 A 
ATOM     16  C   UNL     1       3.211   6.048  17.957  0.00  0.00    +0.000 A 
ATOM     17  C   UNL     1       2.739   6.802  19.024  0.00  0.00    +0.000 A 
ATOM     18  C   UNL     1       2.160   6.172  20.117  0.00  0.00    +0.000 A 
ATOM     19  C   UNL     1       2.037   4.772  20.165  0.00  0.00    +0.000 A 
ATOM     20  C   UNL     1       1.456   4.166  21.293  0.00  0.00    +0.000 A 
ATOM     21  C   UNL     1       1.321   2.781  21.375  0.00  0.00    +0.000 A 
ATOM     22  C   UNL     1       1.774   1.986  20.335  0.00  0.00    +0.000 A 
ATOM     23  C   UNL     1       2.363   2.575  19.212  0.00  0.00    +0.000 A 
ATOM     24  C   UNL     1       2.509   3.983  19.085  0.00  0.00    +0.000 A 
ENDBRANCH  14  15
ENDBRANCH  12  14
ENDBRANCH  10  12
ENDBRANCH   1  10
BRANCH   5  25
ATOM     25  N   UNL     1       8.675   9.945  19.054  0.00  0.00    +0.000 NA
ATOM     26  C   UNL     1       9.760  10.646  19.139  0.00  0.00    +0.000 C 
BRANCH  26  27
ATOM     27  C   UNL     1       9.742  12.115  18.993  0.00  0.00    +0.000 A 
ATOM     28  C   UNL     1      10.680  12.910  19.669  0.00  0.00    +0.000 A 
ATOM     29  C   UNL     1      10.666  14.300  19.515  0.00  0.00    +0.000 A 
ATOM     30  C   UNL     1       9.712  14.877  18.686  0.00  0.00    +0.000 A 
ATOM     31  C   UNL     1       8.787  14.080  18.012  0.00  0.00    +0.000 A 
ATOM     32  C   UNL     1       8.794  12.699  18.151  0.00  0.00    +0.000 A 
BRANCH  30  33
ATOM     33  O   UNL     1       9.639  16.230  18.500  0.00  0.00    +0.000 OA
ATOM     34  H   UNL     1      10.546  16.576  18.429  0.00  0.00    +0.000 HD
ENDBRANCH  30  33
BRANCH  31  35
ATOM     35  O   UNL     1       7.853  14.662  17.202  0.00  0.00    +0.000 OA
ATOM     36  H   UNL     1       7.545  15.443  17.705  0.00  0.00    +0.000 HD
ENDBRANCH  31  35
ENDBRANCH  26  27
ENDBRANCH   5  25
TORSDOF 8
ENDMDL
MODEL 4
REMARK VINA RESULT:      -8.4      1.988      3.393
REMARK  Name = 
REMARK  8 active torsions:
REMARK  status: ('A' for Active; 'I' for Inactive)
REMARK    1  A    between atoms: S_2  and  N_4
REMARK    2  A    between atoms: S_2  and  C_16
REMARK    3  A    between atoms: N_4  and  C_5
REMARK    4  A    between atoms: C_5  and  C_6
REMARK    5  A    between atoms: N_20  and  N_21
REMARK    6  A    between atoms: C_22  and  C_23
REMARK    7  A    between atoms: C_26  and  O_27
REMARK    8  A    between atoms: C_28  and  O_29
REMARK                            x       y       z     vdW  Elec       q    Type
REMARK                         _______ _______ _______ _____ _____    ______ ____
ROOT
ATOM      1  C   UNL     1       5.499   5.589  18.053  0.00  0.00    +0.000 A 
ATOM      2  C   UNL     1       6.416   5.275  19.047  0.00  0.00    +0.000 A 
ATOM      3  C   UNL     1       7.541   6.078  19.213  0.00  0.00    +0.000 A 
ATOM      4  C   UNL     1       7.716   7.201  18.409  0.00  0.00    +0.000 A 
ATOM      5  N   UNL     1       8.778   8.069  18.753  0.00  0.00    +0.000 N 
ATOM      6  N   UNL     1       6.823   7.507  17.436  0.00  0.00    +0.000 NA
ATOM      7  C   UNL     1       5.741   6.704  17.269  0.00  0.00    +0.000 A 
ATOM      8  H   UNL     1       9.648   7.606  18.991  0.00  0.00    +0.000 HD
ENDROOT
BRANCH   1  10
ATOM      9  O   UNL     1       3.778   3.941  19.071  0.00  0.00    +0.000 OA
ATOM     10  S   UNL     1       4.002   4.680  17.851  0.00  0.00    +0.000 S 
ATOM     11  O   UNL     1       4.073   4.033  16.559  0.00  0.00    +0.000 OA
BRANCH  10  12
ATOM     12  N   UNL     1       2.799   5.879  17.791  0.00  0.00    +0.000 NA
ATOM     13  H   UNL     1       1.944   5.542  17.346  0.00  0.00    +0.000 HD
BRANCH  12  14
ATOM     14  C   UNL     1       2.555   6.578  19.072  0.00  0.00    +0.000 C 
BRANCH  14  15
ATOM     15  C   UNL     1       2.012   7.988  18.950  0.00  0.00    +0.000 A 
ATOM     16  C   UNL     1       2.268   8.711  17.775  0.00  0.00    +0.000 A 
ATOM     17  C   UNL     1       1.888  10.043  17.664  0.00  0.00    +0.000 A 
ATOM     18  C   UNL     1       1.255  10.675  18.725  0.00  0.00    +0.000 A 
ATOM     19  C   UNL     1       0.983   9.986  19.921  0.00  0.00    +0.000 A 
ATOM     20  C   UNL     1       0.351  10.661  20.980  0.00  0.00    +0.000 A 
ATOM     21  C   UNL     1       0.070  10.011  22.181  0.00  0.00    +0.000 A 
ATOM     22  C   UNL     1       0.427   8.682  22.340  0.00  0.00    +0.000 A 
ATOM     23  C   UNL     1       1.066   8.002  21.298  0.00  0.00    +0.000 A 
ATOM     24  C   UNL     1       1.360   8.626  20.055  0.00  0.00    +0.000 A 
ENDBRANCH  14  15
ENDBRANCH  12  14
ENDBRANCH  10  12
ENDBRANCH   1  10
BRANCH   5  25
ATOM     25  N   UNL     1       8.748   9.355  18.327  0.00  0.00    +0.000 NA
ATOM     26  C   UNL     1       9.591  10.151  18.904  0.00  0.00    +0.000 C 
BRANCH  26  27
ATOM     27  C   UNL     1       9.602  11.599  18.621  0.00  0.00    +0.000 A 
ATOM     28  C   UNL     1       8.922  12.495  19.461  0.00  0.00    +0.000 A 
ATOM     29  C   UNL     1       8.948  13.868  19.195  0.00  0.00    +0.000 A 
ATOM     30  C   UNL     1       9.655  14.328  18.090  0.00  0.00    +0.000 A 
ATOM     31  C   UNL     1      10.333  13.431  17.264  0.00  0.00    +0.000 A 
ATOM     32  C   UNL     1      10.321  12.068  17.520  0.00  0.00    +0.000 A 
BRANCH  30  33
ATOM     33  O   UNL     1       9.712  15.655  17.769  0.00  0.00    +0.000 OA
ATOM     34  H   UNL     1       9.483  16.169  18.563  0.00  0.00    +0.000 HD
ENDBRANCH  30  33
BRANCH  31  35
ATOM     35  O   UNL     1      11.021  13.897  16.179  0.00  0.00    +0.000 OA
ATOM     36  H   UNL     1      11.864  14.231  16.548  0.00  0.00    +0.000 HD
ENDBRANCH  31  35
ENDBRANCH  26  27
ENDBRANCH   5  25
TORSDOF 8
ENDMDL
MODEL 5
REMARK VINA RESULT:      -8.4      2.055      3.539
REMARK  Name = 
REMARK  8 active torsions:
REMARK  status: ('A' for Active; 'I' for Inactive)
REMARK    1  A    between atoms: S_2  and  N_4
REMARK    2  A    between atoms: S_2  and  C_16
REMARK    3  A    between atoms: N_4  and  C_5
REMARK    4  A    between atoms: C_5  and  C_6
REMARK    5  A    between atoms: N_20  and  N_21
REMARK    6  A    between atoms: C_22  and  C_23
REMARK    7  A    between atoms: C_26  and  O_27
REMARK    8  A    between atoms: C_28  and  O_29
REMARK                            x       y       z     vdW  Elec       q    Type
REMARK                         _______ _______ _______ _____ _____    ______ ____
ROOT
ATOM      1  C   UNL     1       5.499   5.533  18.045  0.00  0.00    +0.000 A 
ATOM      2  C   UNL     1       6.431   5.262  19.039  0.00  0.00    +0.000 A 
ATOM      3  C   UNL     1       7.537   6.096  19.179  0.00  0.00    +0.000 A 
ATOM      4  C   UNL     1       7.678   7.206  18.350  0.00  0.00    +0.000 A 
ATOM      5  N   UNL     1       8.720   8.107  18.669  0.00  0.00    +0.000 N 
ATOM      6  N   UNL     1       6.771   7.469  17.379  0.00  0.00    +0.000 NA
ATOM      7  C   UNL     1       5.708   6.637  17.237  0.00  0.00    +0.000 A 
ATOM      8  H   UNL     1       9.603   7.671  18.909  0.00  0.00    +0.000 HD
ENDROOT
BRANCH   1  10
ATOM      9  O   UNL     1       3.849   3.833  19.094  0.00  0.00    +0.000 OA
ATOM     10  S   UNL     1       4.023   4.583  17.873  0.00  0.00    +0.000 S 
ATOM     11  O   UNL     1       4.083   3.943  16.578  0.00  0.00    +0.000 OA
BRANCH  10  12
ATOM     12  N   UNL     1       2.787   5.748  17.845  0.00  0.00    +0.000 NA
ATOM     13  H   UNL     1       1.912   5.370  17.480  0.00  0.00    +0.000 HD
BRANCH  12  14
ATOM     14  C   UNL     1       2.615   6.502  19.107  0.00  0.00    +0.000 C 
BRANCH  14  15
ATOM     15  C   UNL     1       2.069   7.907  18.956  0.00  0.00    +0.000 A 
ATOM     16  C   UNL     1       2.353   8.620  17.781  0.00  0.00    +0.000 A 
ATOM     17  C   UNL     1       1.968   9.948  17.646  0.00  0.00    +0.000 A 
ATOM     18  C   UNL     1       1.302  10.587  18.683  0.00  0.00    +0.000 A 
ATOM     19  C   UNL     1       1.002   9.909  19.877  0.00  0.00    +0.000 A 
ATOM     20  C   UNL     1       0.337  10.590  20.912  0.00  0.00    +0.000 A 
ATOM     21  C   UNL     1       0.026   9.951  22.111  0.00  0.00    +0.000 A 
ATOM     22  C   UNL     1       0.386   8.626  22.293  0.00  0.00    +0.000 A 
ATOM     23  C   UNL     1       1.058   7.939  21.277  0.00  0.00    +0.000 A 
ATOM     24  C   UNL     1       1.382   8.552  20.036  0.00  0.00    +0.000 A 
ENDBRANCH  14  15
ENDBRANCH  12  14
ENDBRANCH  10  12
ENDBRANCH   1  10
BRANCH   5  25
ATOM     25  N   UNL     1       8.655   9.383  18.217  0.00  0.00    +0.000 NA
ATOM     26  C   UNL     1       9.590  10.171  18.643  0.00  0.00    +0.000 C 
BRANCH  26  27
ATOM     27  C   UNL     1       9.590  11.612  18.322  0.00  0.00    +0.000 A 
ATOM     28  C   UNL     1      10.779  12.355  18.376  0.00  0.00    +0.000 A 
ATOM     29  C   UNL     1      10.774  13.717  18.058  0.00  0.00    +0.000 A 
ATOM     30  C   UNL     1       9.577  14.319  17.688  0.00  0.00    +0.000 A 
ATOM     31  C   UNL     1       8.401  13.572  17.631  0.00  0.00    +0.000 A 
ATOM     32  C   UNL     1       8.393  12.219  17.938  0.00  0.00    +0.000 A 
BRANCH  30  33
ATOM     33  O   UNL     1       9.502  15.647  17.374  0.00  0.00    +0.000 OA
ATOM     34  H   UNL     1       9.502  16.155  18.204  0.00  0.00    +0.000 HD
ENDBRANCH  30  33
BRANCH  31  35
ATOM     35  O   UNL     1       7.230  14.178  17.269  0.00  0.00    +0.000 OA
ATOM     36  H   UNL     1       6.538  13.683  17.753  0.00  0.00    +0.000 HD
ENDBRANCH  31  35
ENDBRANCH  26  27
ENDBRANCH   5  25
TORSDOF 8
ENDMDL
MODEL 6
REMARK VINA RESULT:      -8.3      6.443     10.468
REMARK  Name = 
REMARK  8 active torsions:
REMARK  status: ('A' for Active; 'I' for Inactive)
REMARK    1  A    between atoms: S_2  and  N_4
REMARK    2  A    between atoms: S_2  and  C_16
REMARK    3  A    between atoms: N_4  and  C_5
REMARK    4  A    between atoms: C_5  and  C_6
REMARK    5  A    between atoms: N_20  and  N_21
REMARK    6  A    between atoms: C_22  and  C_23
REMARK    7  A    between atoms: C_26  and  O_27
REMARK    8  A    between atoms: C_28  and  O_29
REMARK                            x       y       z     vdW  Elec       q    Type
REMARK                         _______ _______ _______ _____ _____    ______ ____
ROOT
ATOM      1  C   UNL     1       0.921  11.563  19.797  0.00  0.00    +0.000 A 
ATOM      2  C   UNL     1       0.878  11.298  21.159  0.00  0.00    +0.000 A 
ATOM      3  C   UNL     1       0.959   9.980  21.599  0.00  0.00    +0.000 A 
ATOM      4  C   UNL     1       1.119   8.950  20.675  0.00  0.00    +0.000 A 
ATOM      5  N   UNL     1       1.380   7.663  21.199  0.00  0.00    +0.000 N 
ATOM      6  N   UNL     1       1.159   9.207  19.345  0.00  0.00    +0.000 NA
ATOM      7  C   UNL     1       1.056  10.495  18.927  0.00  0.00    +0.000 A 
ATOM      8  H   UNL     1       0.810   7.402  21.996  0.00  0.00    +0.000 HD
ENDROOT
BRANCH   1  10
ATOM      9  O   UNL     1       1.900  13.266  18.106  0.00  0.00    +0.000 OA
ATOM     10  S   UNL     1       0.926  13.212  19.172  0.00  0.00    +0.000 S 
ATOM     11  O   UNL     1       0.985  14.096  20.314  0.00  0.00    +0.000 OA
BRANCH  10  12
ATOM     12  N   UNL     1      -0.597  13.376  18.437  0.00  0.00    +0.000 NA
ATOM     13  H   UNL     1      -0.587  13.071  17.463  0.00  0.00    +0.000 HD
BRANCH  12  14
ATOM     14  C   UNL     1      -1.725  12.816  19.213  0.00  0.00    +0.000 C 
BRANCH  14  15
ATOM     15  C   UNL     1      -2.674  11.929  18.433  0.00  0.00    +0.000 A 
ATOM     16  C   UNL     1      -2.200  11.277  17.285  0.00  0.00    +0.000 A 
ATOM     17  C   UNL     1      -3.061  10.545  16.477  0.00  0.00    +0.000 A 
ATOM     18  C   UNL     1      -4.409  10.460  16.798  0.00  0.00    +0.000 A 
ATOM     19  C   UNL     1      -4.925  11.102  17.937  0.00  0.00    +0.000 A 
ATOM     20  C   UNL     1      -6.298  11.005  18.225  0.00  0.00    +0.000 A 
ATOM     21  C   UNL     1      -6.844  11.631  19.344  0.00  0.00    +0.000 A 
ATOM     22  C   UNL     1      -6.026  12.371  20.182  0.00  0.00    +0.000 A 
ATOM     23  C   UNL     1      -4.660  12.485  19.901  0.00  0.00    +0.000 A 
ATOM     24  C   UNL     1      -4.063  11.852  18.777  0.00  0.00    +0.000 A 
ENDBRANCH  14  15
ENDBRANCH  12  14
ENDBRANCH  10  12
ENDBRANCH   1  10
BRANCH   5  25
ATOM     25  N   UNL     1       1.968   6.731  20.409  0.00  0.00    +0.000 NA
ATOM     26  C   UNL     1       1.624   5.506  20.645  0.00  0.00    +0.000 C 
BRANCH  26  27
ATOM     27  C   UNL     1       2.260   4.377  19.939  0.00  0.00    +0.000 A 
ATOM     28  C   UNL     1       1.481   3.338  19.406  0.00  0.00    +0.000 A 
ATOM     29  C   UNL     1       2.090   2.278  18.726  0.00  0.00    +0.000 A 
ATOM     30  C   UNL     1       3.472   2.271  18.588  0.00  0.00    +0.000 A 
ATOM     31  C   UNL     1       4.239   3.310  19.114  0.00  0.00    +0.000 A 
ATOM     32  C   UNL     1       3.648   4.370  19.785  0.00  0.00    +0.000 A 
BRANCH  30  33
ATOM     33  O   UNL     1       4.129   1.260  17.943  0.00  0.00    +0.000 OA
ATOM     34  H   UNL     1       4.734   1.659  17.292  0.00  0.00    +0.000 HD
ENDBRANCH  30  33
BRANCH  31  35
ATOM     35  O   UNL     1       5.599   3.288  18.973  0.00  0.00    +0.000 OA
ATOM     36  H   UNL     1       5.749   3.458  18.021  0.00  0.00    +0.000 HD
ENDBRANCH  31  35
ENDBRANCH  26  27
ENDBRANCH   5  25
TORSDOF 8
ENDMDL
MODEL 7
REMARK VINA RESULT:      -8.3      6.666     10.682
REMARK  Name = 
REMARK  8 active torsions:
REMARK  status: ('A' for Active; 'I' for Inactive)
REMARK    1  A    between atoms: S_2  and  N_4
REMARK    2  A    between atoms: S_2  and  C_16
REMARK    3  A    between atoms: N_4  and  C_5
REMARK    4  A    between atoms: C_5  and  C_6
REMARK    5  A    between atoms: N_20  and  N_21
REMARK    6  A    between atoms: C_22  and  C_23
REMARK    7  A    between atoms: C_26  and  O_27
REMARK    8  A    between atoms: C_28  and  O_29
REMARK                            x       y       z     vdW  Elec       q    Type
REMARK                         _______ _______ _______ _____ _____    ______ ____
ROOT
ATOM      1  C   UNL     1       0.677  11.999  20.494  0.00  0.00    +0.000 A 
ATOM      2  C   UNL     1       1.171  12.362  19.247  0.00  0.00    +0.000 A 
ATOM      3  C   UNL     1       1.737  11.387  18.431  0.00  0.00    +0.000 A 
ATOM      4  C   UNL     1       1.771  10.061  18.855  0.00  0.00    +0.000 A 
ATOM      5  N   UNL     1       2.189   9.102  17.904  0.00  0.00    +0.000 N 
ATOM      6  N   UNL     1       1.293   9.707  20.072  0.00  0.00    +0.000 NA
ATOM      7  C   UNL     1       0.762  10.670  20.869  0.00  0.00    +0.000 A 
ATOM      8  H   UNL     1       2.999   9.368  17.356  0.00  0.00    +0.000 HD
ENDROOT
BRANCH   1  10
ATOM      9  O   UNL     1       0.608  14.389  21.494  0.00  0.00    +0.000 OA
ATOM     10  S   UNL     1      -0.145  13.157  21.539  0.00  0.00    +0.000 S 
ATOM     11  O   UNL     1      -0.432  12.474  22.780  0.00  0.00    +0.000 OA
BRANCH  10  12
ATOM     12  N   UNL     1      -1.612  13.463  20.737  0.00  0.00    +0.000 NA
ATOM     13  H   UNL     1      -1.464  13.819  19.791  0.00  0.00    +0.000 HD
BRANCH  12  14
ATOM     14  C   UNL     1      -2.596  12.360  20.799  0.00  0.00    +0.000 C 
BRANCH  14  15
ATOM     15  C   UNL     1      -3.538  12.262  19.617  0.00  0.00    +0.000 A 
ATOM     16  C   UNL     1      -4.807  12.852  19.714  0.00  0.00    +0.000 A 
ATOM     17  C   UNL     1      -5.744  12.693  18.701  0.00  0.00    +0.000 A 
ATOM     18  C   UNL     1      -5.433  11.935  17.580  0.00  0.00    +0.000 A 
ATOM     19  C   UNL     1      -4.174  11.324  17.446  0.00  0.00    +0.000 A 
ATOM     20  C   UNL     1      -3.896  10.553  16.304  0.00  0.00    +0.000 A 
ATOM     21  C   UNL     1      -2.660   9.929  16.139  0.00  0.00    +0.000 A 
ATOM     22  C   UNL     1      -1.691  10.061  17.121  0.00  0.00    +0.000 A 
ATOM     23  C   UNL     1      -1.958  10.816  18.268  0.00  0.00    +0.000 A 
ATOM     24  C   UNL     1      -3.201  11.476  18.467  0.00  0.00    +0.000 A 
ENDBRANCH  14  15
ENDBRANCH  12  14
ENDBRANCH  10  12
ENDBRANCH   1  10
BRANCH   5  25
ATOM     25  N   UNL     1       1.840   7.803  18.074  0.00  0.00    +0.000 NA
ATOM     26  C   UNL     1       2.827   6.967  18.140  0.00  0.00    +0.000 C 
BRANCH  26  27
ATOM     27  C   UNL     1       2.599   5.510  18.216  0.00  0.00    +0.000 A 
ATOM     28  C   UNL     1       3.345   4.629  17.418  0.00  0.00    +0.000 A 
ATOM     29  C   UNL     1       3.133   3.249  17.506  0.00  0.00    +0.000 A 
ATOM     30  C   UNL     1       2.177   2.768  18.392  0.00  0.00    +0.000 A 
ATOM     31  C   UNL     1       1.444   3.650  19.186  0.00  0.00    +0.000 A 
ATOM     32  C   UNL     1       1.648   5.021  19.114  0.00  0.00    +0.000 A 
BRANCH  30  33
ATOM     33  O   UNL     1       1.915   1.433  18.519  0.00  0.00    +0.000 OA
ATOM     34  H   UNL     1       2.412   1.098  19.287  0.00  0.00    +0.000 HD
ENDBRANCH  30  33
BRANCH  31  35
ATOM     35  O   UNL     1       0.505   3.163  20.051  0.00  0.00    +0.000 OA
ATOM     36  H   UNL     1      -0.289   3.711  19.885  0.00  0.00    +0.000 HD
ENDBRANCH  31  35
ENDBRANCH  26  27
ENDBRANCH   5  25
TORSDOF 8
ENDMDL
MODEL 8
REMARK VINA RESULT:      -8.2      0.873      2.074
REMARK  Name = 
REMARK  8 active torsions:
REMARK  status: ('A' for Active; 'I' for Inactive)
REMARK    1  A    between atoms: S_2  and  N_4
REMARK    2  A    between atoms: S_2  and  C_16
REMARK    3  A    between atoms: N_4  and  C_5
REMARK    4  A    between atoms: C_5  and  C_6
REMARK    5  A    between atoms: N_20  and  N_21
REMARK    6  A    between atoms: C_22  and  C_23
REMARK    7  A    between atoms: C_26  and  O_27
REMARK    8  A    between atoms: C_28  and  O_29
REMARK                            x       y       z     vdW  Elec       q    Type
REMARK                         _______ _______ _______ _____ _____    ______ ____
ROOT
ATOM      1  C   UNL     1       6.889   5.400  16.559  0.00  0.00    +0.000 A 
ATOM      2  C   UNL     1       6.996   5.184  17.926  0.00  0.00    +0.000 A 
ATOM      3  C   UNL     1       7.624   6.141  18.719  0.00  0.00    +0.000 A 
ATOM      4  C   UNL     1       8.104   7.314  18.140  0.00  0.00    +0.000 A 
ATOM      5  N   UNL     1       8.561   8.317  19.026  0.00  0.00    +0.000 N 
ATOM      6  N   UNL     1       8.002   7.524  16.806  0.00  0.00    +0.000 NA
ATOM      7  C   UNL     1       7.407   6.574  16.040  0.00  0.00    +0.000 A 
ATOM      8  H   UNL     1       9.136   7.982  19.790  0.00  0.00    +0.000 HD
ENDROOT
BRANCH   1  10
ATOM      9  O   UNL     1       6.144   2.964  16.082  0.00  0.00    +0.000 OA
ATOM     10  S   UNL     1       6.018   4.283  15.508  0.00  0.00    +0.000 S 
ATOM     11  O   UNL     1       6.425   4.576  14.152  0.00  0.00    +0.000 OA
BRANCH  10  12
ATOM     12  N   UNL     1       4.389   4.732  15.694  0.00  0.00    +0.000 NA
ATOM     13  H   UNL     1       3.903   4.787  14.798  0.00  0.00    +0.000 HD
BRANCH  12  14
ATOM     14  C   UNL     1       3.646   3.962  16.716  0.00  0.00    +0.000 C 
BRANCH  14  15
ATOM     15  C   UNL     1       3.082   4.778  17.862  0.00  0.00    +0.000 A 
ATOM     16  C   UNL     1       3.252   6.170  17.848  0.00  0.00    +0.000 A 
ATOM     17  C   UNL     1       2.851   6.945  18.928  0.00  0.00    +0.000 A 
ATOM     18  C   UNL     1       2.283   6.343  20.043  0.00  0.00    +0.000 A 
ATOM     19  C   UNL     1       2.099   4.950  20.098  0.00  0.00    +0.000 A 
ATOM     20  C   UNL     1       1.532   4.371  21.247  0.00  0.00    +0.000 A 
ATOM     21  C   UNL     1       1.338   2.994  21.338  0.00  0.00    +0.000 A 
ATOM     22  C   UNL     1       1.718   2.178  20.285  0.00  0.00    +0.000 A 
ATOM     23  C   UNL     1       2.294   2.739  19.140  0.00  0.00    +0.000 A 
ATOM     24  C   UNL     1       2.498   4.139  19.005  0.00  0.00    +0.000 A 
ENDBRANCH  14  15
ENDBRANCH  12  14
ENDBRANCH  10  12
ENDBRANCH   1  10
BRANCH   5  25
ATOM     25  N   UNL     1       8.621   9.602  18.599  0.00  0.00    +0.000 NA
ATOM     26  C   UNL     1       9.573  10.313  19.111  0.00  0.00    +0.000 C 
BRANCH  26  27
ATOM     27  C   UNL     1       9.698  11.756  18.824  0.00  0.00    +0.000 A 
ATOM     28  C   UNL     1       9.202  12.709  19.727  0.00  0.00    +0.000 A 
ATOM     29  C   UNL     1       9.337  14.074  19.454  0.00  0.00    +0.000 A 
ATOM     30  C   UNL     1       9.966  14.469  18.280  0.00  0.00    +0.000 A 
ATOM     31  C   UNL     1      10.462  13.515  17.390  0.00  0.00    +0.000 A 
ATOM     32  C   UNL     1      10.341  12.158  17.651  0.00  0.00    +0.000 A 
BRANCH  30  33
ATOM     33  O   UNL     1      10.122  15.786  17.950  0.00  0.00    +0.000 OA
ATOM     34  H   UNL     1      11.025  15.909  17.610  0.00  0.00    +0.000 HD
ENDBRANCH  30  33
BRANCH  31  35
ATOM     35  O   UNL     1      11.076  13.918  16.238  0.00  0.00    +0.000 OA
ATOM     36  H   UNL     1      10.357  14.309  15.700  0.00  0.00    +0.000 HD
ENDBRANCH  31  35
ENDBRANCH  26  27
ENDBRANCH   5  25
TORSDOF 8
ENDMDL
MODEL 9
REMARK VINA RESULT:      -8.2      6.053      9.273
REMARK  Name = 
REMARK  8 active torsions:
REMARK  status: ('A' for Active; 'I' for Inactive)
REMARK    1  A    between atoms: S_2  and  N_4
REMARK    2  A    between atoms: S_2  and  C_16
REMARK    3  A    between atoms: N_4  and  C_5
REMARK    4  A    between atoms: C_5  and  C_6
REMARK    5  A    between atoms: N_20  and  N_21
REMARK    6  A    between atoms: C_22  and  C_23
REMARK    7  A    between atoms: C_26  and  O_27
REMARK    8  A    between atoms: C_28  and  O_29
REMARK                            x       y       z     vdW  Elec       q    Type
REMARK                         _______ _______ _______ _____ _____    ______ ____
ROOT
ATOM      1  C   UNL     1       0.813  10.422  20.744  0.00  0.00    +0.000 A 
ATOM      2  C   UNL     1       0.798   9.554  21.828  0.00  0.00    +0.000 A 
ATOM      3  C   UNL     1       1.160   8.223  21.638  0.00  0.00    +0.000 A 
ATOM      4  C   UNL     1       1.565   7.787  20.378  0.00  0.00    +0.000 A 
ATOM      5  N   UNL     1       2.092   6.478  20.300  0.00  0.00    +0.000 N 
ATOM      6  N   UNL     1       1.578   8.634  19.320  0.00  0.00    +0.000 NA
ATOM      7  C   UNL     1       1.202   9.924  19.512  0.00  0.00    +0.000 A 
ATOM      8  H   UNL     1       1.576   5.777  20.819  0.00  0.00    +0.000 HD
ENDROOT
BRANCH   1  10
ATOM      9  O   UNL     1       1.707  12.795  21.276  0.00  0.00    +0.000 OA
ATOM     10  S   UNL     1       0.468  12.141  20.927  0.00  0.00    +0.000 S 
ATOM     11  O   UNL     1      -0.717  12.248  21.749  0.00  0.00    +0.000 OA
BRANCH  10  12
ATOM     12  N   UNL     1       0.084  12.653  19.353  0.00  0.00    +0.000 NA
ATOM     13  H   UNL     1       0.472  12.030  18.643  0.00  0.00    +0.000 HD
BRANCH  12  14
ATOM     14  C   UNL     1      -1.345  12.969  19.134  0.00  0.00    +0.000 C 
BRANCH  14  15
ATOM     15  C   UNL     1      -2.166  11.863  18.503  0.00  0.00    +0.000 A 
ATOM     16  C   UNL     1      -1.560  11.030  17.551  0.00  0.00    +0.000 A 
ATOM     17  C   UNL     1      -2.303  10.077  16.866  0.00  0.00    +0.000 A 
ATOM     18  C   UNL     1      -3.663   9.946  17.113  0.00  0.00    +0.000 A 
ATOM     19  C   UNL     1      -4.309  10.764  18.056  0.00  0.00    +0.000 A 
ATOM     20  C   UNL     1      -5.690  10.614  18.274  0.00  0.00    +0.000 A 
ATOM     21  C   UNL     1      -6.364  11.410  19.199  0.00  0.00    +0.000 A 
ATOM     22  C   UNL     1      -5.666  12.373  19.909  0.00  0.00    +0.000 A 
ATOM     23  C   UNL     1      -4.294  12.541  19.695  0.00  0.00    +0.000 A 
ATOM     24  C   UNL     1      -3.569  11.742  18.770  0.00  0.00    +0.000 A 
ENDBRANCH  14  15
ENDBRANCH  12  14
ENDBRANCH  10  12
ENDBRANCH   1  10
BRANCH   5  25
ATOM     25  N   UNL     1       2.891   6.146  19.256  0.00  0.00    +0.000 NA
ATOM     26  C   UNL     1       4.062   5.694  19.574  0.00  0.00    +0.000 C 
BRANCH  26  27
ATOM     27  C   UNL     1       5.077   5.392  18.546  0.00  0.00    +0.000 A 
ATOM     28  C   UNL     1       6.443   5.399  18.870  0.00  0.00    +0.000 A 
ATOM     29  C   UNL     1       7.399   5.098  17.894  0.00  0.00    +0.000 A 
ATOM     30  C   UNL     1       6.976   4.796  16.606  0.00  0.00    +0.000 A 
ATOM     31  C   UNL     1       5.617   4.786  16.294  0.00  0.00    +0.000 A 
ATOM     32  C   UNL     1       4.657   5.075  17.253  0.00  0.00    +0.000 A 
BRANCH  30  33
ATOM     33  O   UNL     1       7.859   4.503  15.605  0.00  0.00    +0.000 OA
ATOM     34  H   UNL     1       8.045   3.548  15.634  0.00  0.00    +0.000 HD
ENDBRANCH  30  33
BRANCH  31  35
ATOM     35  O   UNL     1       5.216   4.489  15.021  0.00  0.00    +0.000 OA
ATOM     36  H   UNL     1       5.753   5.076  14.452  0.00  0.00    +0.000 HD
ENDBRANCH  31  35
ENDBRANCH  26  27
ENDBRANCH   5  25
TORSDOF 8
ENDMDL
