MODEL 1
REMARK VINA RESULT:      -7.4      0.000      0.000
REMARK  Name = 
REMARK  5 active torsions:
REMARK  status: ('A' for Active; 'I' for Inactive)
REMARK    1  A    between atoms: C_1  and  N_2
REMARK    2  A    between atoms: C_3  and  C_5
REMARK    3  A    between atoms: C_7  and  C_8
REMARK    4  A    between atoms: N_10  and  C_11
REMARK    5  A    between atoms: C_19  and  C_20
REMARK                            x       y       z     vdW  Elec       q    Type
REMARK                         _______ _______ _______ _____ _____    ______ ____
ROOT
ATOM      1  C   UNL     1      -3.336  10.761  16.248  0.00  0.00    +0.000 A 
ATOM      2  C   UNL     1      -2.243  10.460  17.088  0.00  0.00    +0.000 A 
ATOM      3  C   UNL     1      -2.226  10.870  18.436  0.00  0.00    +0.000 A 
ATOM      4  C   UNL     1      -3.305  11.621  18.934  0.00  0.00    +0.000 A 
ATOM      5  C   UNL     1      -4.380  11.907  18.102  0.00  0.00    +0.000 A 
ATOM      6  C   UNL     1      -4.396  11.478  16.784  0.00  0.00    +0.000 A 
ATOM      7  O   UNL     1      -5.529  11.861  16.106  0.00  0.00    +0.000 OA
ATOM      8  C   UNL     1      -6.424  12.342  17.141  0.00  0.00    +0.000 C 
ATOM      9  C   UNL     1      -5.597  12.724  18.379  0.00  0.00    +0.000 C 
ENDROOT
BRANCH   9  10
ATOM     10  C   UNL     1      -6.296  12.461  19.691  0.00  0.00    +0.000 A 
ATOM     11  C   UNL     1      -6.485  13.506  20.628  0.00  0.00    +0.000 A 
ATOM     12  C   UNL     1      -7.122  13.302  21.848  0.00  0.00    +0.000 A 
ATOM     13  C   UNL     1      -7.605  12.040  22.197  0.00  0.00    +0.000 A 
ATOM     14  C   UNL     1      -7.429  11.005  21.275  0.00  0.00    +0.000 A 
ATOM     15  N   UNL     1      -7.819   9.685  21.357  0.00  0.00    +0.000 N 
ATOM     16  C   UNL     1      -7.454   9.014  20.223  0.00  0.00    +0.000 A 
ATOM     17  C   UNL     1      -6.817   9.909  19.394  0.00  0.00    +0.000 A 
ATOM     18  C   UNL     1      -6.794  11.178  20.045  0.00  0.00    +0.000 A 
ATOM     19  H   UNL     1      -8.311   9.281  22.142  0.00  0.00    +0.000 HD
ENDBRANCH   9  10
BRANCH   1  22
ATOM     20  C   UNL     1      -4.595   9.732  12.826  0.00  0.00    +0.000 C 
ATOM     21  N   UNL     1      -4.506  10.172  14.192  0.00  0.00    +0.000 N 
ATOM     22  C   UNL     1      -3.298  10.278  14.841  0.00  0.00    +0.000 C 
ATOM     23  O   UNL     1      -2.227   9.966  14.332  0.00  0.00    +0.000 OA
ATOM     24  H   UNL     1      -5.334  10.550  14.642  0.00  0.00    +0.000 HD
ENDBRANCH   1  22
BRANCH   3  25
ATOM     25  C   UNL     1      -1.115  10.555  19.392  0.00  0.00    +0.000 C 
ATOM     26  O   UNL     1      -0.094  10.014  18.975  0.00  0.00    +0.000 OA
ATOM     27  N   UNL     1      -1.286  10.895  20.722  0.00  0.00    +0.000 N 
ATOM     28  H   UNL     1      -2.149  11.302  21.048  0.00  0.00    +0.000 HD
BRANCH  27  29
ATOM     29  C   UNL     1      -0.313  10.557  21.716  0.00  0.00    +0.000 C 
ATOM     30  C   UNL     1      -0.688  10.349  23.157  0.00  0.00    +0.000 C 
ATOM     31  C   UNL     1      -0.301   9.173  22.309  0.00  0.00    +0.000 C 
ENDBRANCH  27  29
ENDBRANCH   3  25
TORSDOF 4
ENDMDL
MODEL 2
REMARK VINA RESULT:      -7.3      1.929      7.290
REMARK  Name = 
REMARK  5 active torsions:
REMARK  status: ('A' for Active; 'I' for Inactive)
REMARK    1  A    between atoms: C_1  and  N_2
REMARK    2  A    between atoms: C_3  and  C_5
REMARK    3  A    between atoms: C_7  and  C_8
REMARK    4  A    between atoms: N_10  and  C_11
REMARK    5  A    between atoms: C_19  and  C_20
REMARK                            x       y       z     vdW  Elec       q    Type
REMARK                         _______ _______ _______ _____ _____    ______ ____
ROOT
ATOM      1  C   UNL     1      -4.511  11.741  17.931  0.00  0.00    +0.000 A 
ATOM      2  C   UNL     1      -4.562  11.230  16.617  0.00  0.00    +0.000 A 
ATOM      3  C   UNL     1      -3.403  10.739  15.982  0.00  0.00    +0.000 A 
ATOM      4  C   UNL     1      -2.176  10.794  16.663  0.00  0.00    +0.000 A 
ATOM      5  C   UNL     1      -2.136  11.292  17.960  0.00  0.00    +0.000 A 
ATOM      6  C   UNL     1      -3.286  11.751  18.583  0.00  0.00    +0.000 A 
ATOM      7  O   UNL     1      -3.060  12.220  19.856  0.00  0.00    +0.000 OA
ATOM      8  C   UNL     1      -1.712  11.782  20.168  0.00  0.00    +0.000 C 
ATOM      9  C   UNL     1      -0.962  11.503  18.855  0.00  0.00    +0.000 C 
ENDROOT
BRANCH   9  10
ATOM     10  C   UNL     1       0.028  10.366  18.942  0.00  0.00    +0.000 A 
ATOM     11  C   UNL     1       0.634   9.849  17.771  0.00  0.00    +0.000 A 
ATOM     12  C   UNL     1       1.548   8.801  17.811  0.00  0.00    +0.000 A 
ATOM     13  C   UNL     1       1.905   8.212  19.025  0.00  0.00    +0.000 A 
ATOM     14  C   UNL     1       1.315   8.721  20.185  0.00  0.00    +0.000 A 
ATOM     15  N   UNL     1       1.500   8.342  21.499  0.00  0.00    +0.000 N 
ATOM     16  C   UNL     1       0.730   9.113  22.324  0.00  0.00    +0.000 A 
ATOM     17  C   UNL     1       0.035  10.002  21.539  0.00  0.00    +0.000 A 
ATOM     18  C   UNL     1       0.396   9.770  20.178  0.00  0.00    +0.000 A 
ATOM     19  H   UNL     1       2.123   7.605  21.800  0.00  0.00    +0.000 HD
ENDBRANCH   9  10
BRANCH   1  22
ATOM     20  C   UNL     1      -7.369  11.987  20.407  0.00  0.00    +0.000 C 
ATOM     21  N   UNL     1      -6.173  11.599  19.709  0.00  0.00    +0.000 N 
ATOM     22  C   UNL     1      -5.776  12.223  18.549  0.00  0.00    +0.000 C 
ATOM     23  O   UNL     1      -6.422  13.111  18.003  0.00  0.00    +0.000 OA
ATOM     24  H   UNL     1      -5.532  10.950  20.155  0.00  0.00    +0.000 HD
ENDBRANCH   1  22
BRANCH   3  25
ATOM     25  C   UNL     1      -3.392  10.151  14.602  0.00  0.00    +0.000 C 
ATOM     26  O   UNL     1      -2.324   9.804  14.103  0.00  0.00    +0.000 OA
ATOM     27  N   UNL     1      -4.600  10.019  13.942  0.00  0.00    +0.000 N 
ATOM     28  H   UNL     1      -5.458  10.348  14.357  0.00  0.00    +0.000 HD
BRANCH  27  29
ATOM     29  C   UNL     1      -4.672   9.546  12.592  0.00  0.00    +0.000 C 
ATOM     30  C   UNL     1      -5.931   8.951  12.025  0.00  0.00    +0.000 C 
ATOM     31  C   UNL     1      -5.479  10.309  11.577  0.00  0.00    +0.000 C 
ENDBRANCH  27  29
ENDBRANCH   3  25
TORSDOF 4
ENDMDL
MODEL 3
REMARK VINA RESULT:      -7.2      1.210      2.024
REMARK  Name = 
REMARK  5 active torsions:
REMARK  status: ('A' for Active; 'I' for Inactive)
REMARK    1  A    between atoms: C_1  and  N_2
REMARK    2  A    between atoms: C_3  and  C_5
REMARK    3  A    between atoms: C_7  and  C_8
REMARK    4  A    between atoms: N_10  and  C_11
REMARK    5  A    between atoms: C_19  and  C_20
REMARK                            x       y       z     vdW  Elec       q    Type
REMARK                         _______ _______ _______ _____ _____    ______ ____
ROOT
ATOM      1  C   UNL     1      -3.246  10.656  16.147  0.00  0.00    +0.000 A 
ATOM      2  C   UNL     1      -2.131  10.290  16.931  0.00  0.00    +0.000 A 
ATOM      3  C   UNL     1      -2.035  10.677  18.283  0.00  0.00    +0.000 A 
ATOM      4  C   UNL     1      -3.052  11.470  18.841  0.00  0.00    +0.000 A 
ATOM      5  C   UNL     1      -4.148  11.820  18.064  0.00  0.00    +0.000 A 
ATOM      6  C   UNL     1      -4.245  11.414  16.741  0.00  0.00    +0.000 A 
ATOM      7  O   UNL     1      -5.387  11.862  16.121  0.00  0.00    +0.000 OA
ATOM      8  C   UNL     1      -6.211  12.368  17.203  0.00  0.00    +0.000 C 
ATOM      9  C   UNL     1      -5.311  12.690  18.407  0.00  0.00    +0.000 C 
ENDROOT
BRANCH   9  10
ATOM     10  C   UNL     1      -5.962  12.439  19.747  0.00  0.00    +0.000 A 
ATOM     11  C   UNL     1      -7.039  11.528  19.863  0.00  0.00    +0.000 A 
ATOM     12  C   UNL     1      -7.666  11.273  21.080  0.00  0.00    +0.000 A 
ATOM     13  C   UNL     1      -7.247  11.917  22.245  0.00  0.00    +0.000 A 
ATOM     14  C   UNL     1      -6.180  12.812  22.139  0.00  0.00    +0.000 A 
ATOM     15  N   UNL     1      -5.564  13.560  23.121  0.00  0.00    +0.000 N 
ATOM     16  C   UNL     1      -4.549  14.301  22.583  0.00  0.00    +0.000 A 
ATOM     17  C   UNL     1      -4.506  14.034  21.234  0.00  0.00    +0.000 A 
ATOM     18  C   UNL     1      -5.532  13.090  20.935  0.00  0.00    +0.000 A 
ATOM     19  H   UNL     1      -5.825  13.549  24.097  0.00  0.00    +0.000 HD
ENDBRANCH   9  10
BRANCH   1  22
ATOM     20  C   UNL     1      -4.718   9.631  12.809  0.00  0.00    +0.000 C 
ATOM     21  N   UNL     1      -4.543  10.055  14.173  0.00  0.00    +0.000 N 
ATOM     22  C   UNL     1      -3.295  10.195  14.733  0.00  0.00    +0.000 C 
ATOM     23  O   UNL     1      -2.254   9.929  14.142  0.00  0.00    +0.000 OA
ATOM     24  H   UNL     1      -5.348  10.396  14.689  0.00  0.00    +0.000 HD
ENDBRANCH   1  22
BRANCH   3  25
ATOM     25  C   UNL     1      -0.898  10.293  19.183  0.00  0.00    +0.000 C 
ATOM     26  O   UNL     1       0.134   9.840  18.693  0.00  0.00    +0.000 OA
ATOM     27  N   UNL     1      -1.058  10.471  20.545  0.00  0.00    +0.000 N 
ATOM     28  H   UNL     1      -1.930  10.808  20.927  0.00  0.00    +0.000 HD
BRANCH  27  29
ATOM     29  C   UNL     1      -0.058  10.056  21.482  0.00  0.00    +0.000 C 
ATOM     30  C   UNL     1      -0.314  10.043  22.963  0.00  0.00    +0.000 C 
ATOM     31  C   UNL     1      -0.215   8.748  22.210  0.00  0.00    +0.000 C 
ENDBRANCH  27  29
ENDBRANCH   3  25
TORSDOF 4
ENDMDL
MODEL 4
REMARK VINA RESULT:      -7.1      1.520      1.764
REMARK  Name = 
REMARK  5 active torsions:
REMARK  status: ('A' for Active; 'I' for Inactive)
REMARK    1  A    between atoms: C_1  and  N_2
REMARK    2  A    between atoms: C_3  and  C_5
REMARK    3  A    between atoms: C_7  and  C_8
REMARK    4  A    between atoms: N_10  and  C_11
REMARK    5  A    between atoms: C_19  and  C_20
REMARK                            x       y       z     vdW  Elec       q    Type
REMARK                         _______ _______ _______ _____ _____    ______ ____
ROOT
ATOM      1  C   UNL     1      -3.330  10.606  15.775  0.00  0.00    +0.000 A 
ATOM      2  C   UNL     1      -2.174  10.228  16.491  0.00  0.00    +0.000 A 
ATOM      3  C   UNL     1      -1.986  10.623  17.831  0.00  0.00    +0.000 A 
ATOM      4  C   UNL     1      -2.954  11.436  18.445  0.00  0.00    +0.000 A 
ATOM      5  C   UNL     1      -4.091  11.799  17.735  0.00  0.00    +0.000 A 
ATOM      6  C   UNL     1      -4.277  11.384  16.425  0.00  0.00    +0.000 A 
ATOM      7  O   UNL     1      -5.450  11.846  15.874  0.00  0.00    +0.000 OA
ATOM      8  C   UNL     1      -6.195  12.373  17.001  0.00  0.00    +0.000 C 
ATOM      9  C   UNL     1      -5.217  12.689  18.143  0.00  0.00    +0.000 C 
ENDROOT
BRANCH   9  10
ATOM     10  C   UNL     1      -5.786  12.459  19.523  0.00  0.00    +0.000 A 
ATOM     11  C   UNL     1      -5.666  13.452  20.525  0.00  0.00    +0.000 A 
ATOM     12  C   UNL     1      -6.175  13.275  21.809  0.00  0.00    +0.000 A 
ATOM     13  C   UNL     1      -6.832  12.095  22.158  0.00  0.00    +0.000 A 
ATOM     14  C   UNL     1      -6.960  11.113  21.172  0.00  0.00    +0.000 A 
ATOM     15  N   UNL     1      -7.569   9.877  21.241  0.00  0.00    +0.000 N 
ATOM     16  C   UNL     1      -7.474   9.236  20.038  0.00  0.00    +0.000 A 
ATOM     17  C   UNL     1      -6.792  10.063  19.176  0.00  0.00    +0.000 A 
ATOM     18  C   UNL     1      -6.460  11.260  19.878  0.00  0.00    +0.000 A 
ATOM     19  H   UNL     1      -8.027   9.511  22.064  0.00  0.00    +0.000 HD
ENDBRANCH   9  10
BRANCH   1  22
ATOM     20  C   UNL     1      -5.026   9.537  12.560  0.00  0.00    +0.000 C 
ATOM     21  N   UNL     1      -4.759   9.973  13.904  0.00  0.00    +0.000 N 
ATOM     22  C   UNL     1      -3.475  10.135  14.371  0.00  0.00    +0.000 C 
ATOM     23  O   UNL     1      -2.476   9.882  13.706  0.00  0.00    +0.000 OA
ATOM     24  H   UNL     1      -5.529  10.304  14.477  0.00  0.00    +0.000 HD
ENDBRANCH   1  22
BRANCH   3  25
ATOM     25  C   UNL     1      -0.801  10.228  18.660  0.00  0.00    +0.000 C 
ATOM     26  O   UNL     1      -0.864  10.317  19.884  0.00  0.00    +0.000 OA
ATOM     27  N   UNL     1       0.328   9.772  18.005  0.00  0.00    +0.000 N 
ATOM     28  H   UNL     1       0.370   9.747  16.997  0.00  0.00    +0.000 HD
BRANCH  27  29
ATOM     29  C   UNL     1       1.532   9.454  18.711  0.00  0.00    +0.000 C 
ATOM     30  C   UNL     1       1.801   8.073  19.240  0.00  0.00    +0.000 C 
ATOM     31  C   UNL     1       2.572   8.584  18.058  0.00  0.00    +0.000 C 
ENDBRANCH  27  29
ENDBRANCH   3  25
TORSDOF 4
ENDMDL
MODEL 5
REMARK VINA RESULT:      -7.0      2.777      7.451
REMARK  Name = 
REMARK  5 active torsions:
REMARK  status: ('A' for Active; 'I' for Inactive)
REMARK    1  A    between atoms: C_1  and  N_2
REMARK    2  A    between atoms: C_3  and  C_5
REMARK    3  A    between atoms: C_7  and  C_8
REMARK    4  A    between atoms: N_10  and  C_11
REMARK    5  A    between atoms: C_19  and  C_20
REMARK                            x       y       z     vdW  Elec       q    Type
REMARK                         _______ _______ _______ _____ _____    ______ ____
ROOT
ATOM      1  C   UNL     1      -4.664  13.681  21.652  0.00  0.00    +0.000 A 
ATOM      2  C   UNL     1      -5.114  13.164  20.419  0.00  0.00    +0.000 A 
ATOM      3  C   UNL     1      -4.267  12.387  19.603  0.00  0.00    +0.000 A 
ATOM      4  C   UNL     1      -2.943  12.159  20.015  0.00  0.00    +0.000 A 
ATOM      5  C   UNL     1      -2.510  12.666  21.234  0.00  0.00    +0.000 A 
ATOM      6  C   UNL     1      -3.360  13.408  22.040  0.00  0.00    +0.000 A 
ATOM      7  O   UNL     1      -2.762  13.841  23.200  0.00  0.00    +0.000 OA
ATOM      8  C   UNL     1      -1.519  13.095  23.266  0.00  0.00    +0.000 C 
ATOM      9  C   UNL     1      -1.155  12.607  21.854  0.00  0.00    +0.000 C 
ENDROOT
BRANCH   9  10
ATOM     10  C   UNL     1      -0.463  11.265  21.826  0.00  0.00    +0.000 A 
ATOM     11  C   UNL     1      -0.481  10.423  22.964  0.00  0.00    +0.000 A 
ATOM     12  C   UNL     1       0.146   9.180  22.977  0.00  0.00    +0.000 A 
ATOM     13  C   UNL     1       0.826   8.714  21.851  0.00  0.00    +0.000 A 
ATOM     14  C   UNL     1       0.843   9.537  20.722  0.00  0.00    +0.000 A 
ATOM     15  N   UNL     1       1.418   9.318  19.487  0.00  0.00    +0.000 N 
ATOM     16  C   UNL     1       1.187  10.383  18.663  0.00  0.00    +0.000 A 
ATOM     17  C   UNL     1       0.454  11.308  19.370  0.00  0.00    +0.000 A 
ATOM     18  C   UNL     1       0.224  10.787  20.678  0.00  0.00    +0.000 A 
ATOM     19  H   UNL     1       1.928   8.483  19.234  0.00  0.00    +0.000 HD
ENDBRANCH   9  10
BRANCH   1  22
ATOM     20  C   UNL     1      -7.482  14.415  24.077  0.00  0.00    +0.000 C 
ATOM     21  N   UNL     1      -6.521  13.761  23.231  0.00  0.00    +0.000 N 
ATOM     22  C   UNL     1      -5.618  14.473  22.475  0.00  0.00    +0.000 C 
ATOM     23  O   UNL     1      -5.593  15.698  22.428  0.00  0.00    +0.000 OA
ATOM     24  H   UNL     1      -6.409  12.754  23.299  0.00  0.00    +0.000 HD
ENDBRANCH   1  22
BRANCH   3  25
ATOM     25  C   UNL     1      -4.690  11.778  18.299  0.00  0.00    +0.000 C 
ATOM     26  O   UNL     1      -5.838  11.359  18.173  0.00  0.00    +0.000 OA
ATOM     27  N   UNL     1      -3.759  11.716  17.279  0.00  0.00    +0.000 N 
ATOM     28  H   UNL     1      -2.811  12.031  17.419  0.00  0.00    +0.000 HD
BRANCH  27  29
ATOM     29  C   UNL     1      -4.051  11.078  16.031  0.00  0.00    +0.000 C 
ATOM     30  C   UNL     1      -3.000  10.881  14.974  0.00  0.00    +0.000 C 
ATOM     31  C   UNL     1      -3.508   9.702  15.752  0.00  0.00    +0.000 C 
ENDBRANCH  27  29
ENDBRANCH   3  25
TORSDOF 4
ENDMDL
MODEL 6
REMARK VINA RESULT:      -6.9      1.844      2.572
REMARK  Name = 
REMARK  5 active torsions:
REMARK  status: ('A' for Active; 'I' for Inactive)
REMARK    1  A    between atoms: C_1  and  N_2
REMARK    2  A    between atoms: C_3  and  C_5
REMARK    3  A    between atoms: C_7  and  C_8
REMARK    4  A    between atoms: N_10  and  C_11
REMARK    5  A    between atoms: C_19  and  C_20
REMARK                            x       y       z     vdW  Elec       q    Type
REMARK                         _______ _______ _______ _____ _____    ______ ____
ROOT
ATOM      1  C   UNL     1      -3.262  10.621  15.976  0.00  0.00    +0.000 A 
ATOM      2  C   UNL     1      -2.119  10.246  16.712  0.00  0.00    +0.000 A 
ATOM      3  C   UNL     1      -1.959  10.636  18.058  0.00  0.00    +0.000 A 
ATOM      4  C   UNL     1      -2.943  11.440  18.657  0.00  0.00    +0.000 A 
ATOM      5  C   UNL     1      -4.069  11.800  17.927  0.00  0.00    +0.000 A 
ATOM      6  C   UNL     1      -4.227  11.391  16.611  0.00  0.00    +0.000 A 
ATOM      7  O   UNL     1      -5.391  11.848  16.040  0.00  0.00    +0.000 OA
ATOM      8  C   UNL     1      -6.162  12.365  17.155  0.00  0.00    +0.000 C 
ATOM      9  C   UNL     1      -5.208  12.681  18.318  0.00  0.00    +0.000 C 
ENDROOT
BRANCH   9  10
ATOM     10  C   UNL     1      -5.802  12.441  19.685  0.00  0.00    +0.000 A 
ATOM     11  C   UNL     1      -6.905  11.568  19.846  0.00  0.00    +0.000 A 
ATOM     12  C   UNL     1      -7.481  11.323  21.089  0.00  0.00    +0.000 A 
ATOM     13  C   UNL     1      -6.983  11.939  22.239  0.00  0.00    +0.000 A 
ATOM     14  C   UNL     1      -5.891  12.797  22.088  0.00  0.00    +0.000 A 
ATOM     15  N   UNL     1      -5.201  13.511  23.045  0.00  0.00    +0.000 N 
ATOM     16  C   UNL     1      -4.187  14.221  22.465  0.00  0.00    +0.000 A 
ATOM     17  C   UNL     1      -4.219  13.967  21.113  0.00  0.00    +0.000 A 
ATOM     18  C   UNL     1      -5.292  13.063  20.856  0.00  0.00    +0.000 A 
ATOM     19  H   UNL     1      -5.415  13.499  24.033  0.00  0.00    +0.000 HD
ENDBRANCH   9  10
BRANCH   1  22
ATOM     20  C   UNL     1      -4.889   9.576  12.717  0.00  0.00    +0.000 C 
ATOM     21  N   UNL     1      -4.651  10.004  14.070  0.00  0.00    +0.000 N 
ATOM     22  C   UNL     1      -3.377  10.157  14.567  0.00  0.00    +0.000 C 
ATOM     23  O   UNL     1      -2.365   9.900  13.925  0.00  0.00    +0.000 OA
ATOM     24  H   UNL     1      -5.432  10.339  14.625  0.00  0.00    +0.000 HD
ENDBRANCH   1  22
BRANCH   3  25
ATOM     25  C   UNL     1      -0.788  10.244  18.908  0.00  0.00    +0.000 C 
ATOM     26  O   UNL     1      -0.822  10.456  20.118  0.00  0.00    +0.000 OA
ATOM     27  N   UNL     1       0.296   9.649  18.288  0.00  0.00    +0.000 N 
ATOM     28  H   UNL     1       0.317   9.521  17.287  0.00  0.00    +0.000 HD
BRANCH  27  29
ATOM     29  C   UNL     1       1.488   9.319  19.008  0.00  0.00    +0.000 C 
ATOM     30  C   UNL     1       1.582   8.091  19.870  0.00  0.00    +0.000 C 
ATOM     31  C   UNL     1       2.327   8.150  18.568  0.00  0.00    +0.000 C 
ENDBRANCH  27  29
ENDBRANCH   3  25
TORSDOF 4
ENDMDL
MODEL 7
REMARK VINA RESULT:      -6.9      8.963     11.646
REMARK  Name = 
REMARK  5 active torsions:
REMARK  status: ('A' for Active; 'I' for Inactive)
REMARK    1  A    between atoms: C_1  and  N_2
REMARK    2  A    between atoms: C_3  and  C_5
REMARK    3  A    between atoms: C_7  and  C_8
REMARK    4  A    between atoms: N_10  and  C_11
REMARK    5  A    between atoms: C_19  and  C_20
REMARK                            x       y       z     vdW  Elec       q    Type
REMARK                         _______ _______ _______ _____ _____    ______ ____
ROOT
ATOM      1  C   UNL     1       6.625   5.276  15.106  0.00  0.00    +0.000 A 
ATOM      2  C   UNL     1       7.433   6.147  15.866  0.00  0.00    +0.000 A 
ATOM      3  C   UNL     1       7.023   6.598  17.136  0.00  0.00    +0.000 A 
ATOM      4  C   UNL     1       5.770   6.197  17.631  0.00  0.00    +0.000 A 
ATOM      5  C   UNL     1       4.983   5.334  16.879  0.00  0.00    +0.000 A 
ATOM      6  C   UNL     1       5.408   4.877  15.641  0.00  0.00    +0.000 A 
ATOM      7  O   UNL     1       4.500   4.043  15.033  0.00  0.00    +0.000 OA
ATOM      8  C   UNL     1       3.541   3.731  16.076  0.00  0.00    +0.000 C 
ATOM      9  C   UNL     1       3.612   4.818  17.160  0.00  0.00    +0.000 C 
ENDROOT
BRANCH   9  10
ATOM     10  C   UNL     1       3.362   4.309  18.560  0.00  0.00    +0.000 A 
ATOM     11  C   UNL     1       3.760   3.002  18.932  0.00  0.00    +0.000 A 
ATOM     12  C   UNL     1       3.545   2.497  20.211  0.00  0.00    +0.000 A 
ATOM     13  C   UNL     1       2.919   3.273  21.187  0.00  0.00    +0.000 A 
ATOM     14  C   UNL     1       2.529   4.566  20.829  0.00  0.00    +0.000 A 
ATOM     15  N   UNL     1       1.915   5.537  21.593  0.00  0.00    +0.000 N 
ATOM     16  C   UNL     1       1.719   6.668  20.849  0.00  0.00    +0.000 A 
ATOM     17  C   UNL     1       2.210   6.429  19.587  0.00  0.00    +0.000 A 
ATOM     18  C   UNL     1       2.730   5.100  19.556  0.00  0.00    +0.000 A 
ATOM     19  H   UNL     1       1.658   5.424  22.563  0.00  0.00    +0.000 HD
ENDBRANCH   9  10
BRANCH   1  22
ATOM     20  C   UNL     1       6.951   3.154  11.984  0.00  0.00    +0.000 C 
ATOM     21  N   UNL     1       6.557   3.682  13.262  0.00  0.00    +0.000 N 
ATOM     22  C   UNL     1       7.130   4.820  13.782  0.00  0.00    +0.000 C 
ATOM     23  O   UNL     1       8.036   5.435  13.231  0.00  0.00    +0.000 OA
ATOM     24  H   UNL     1       5.742   3.293  13.725  0.00  0.00    +0.000 HD
ENDBRANCH   1  22
BRANCH   3  25
ATOM     25  C   UNL     1       7.846   7.496  18.011  0.00  0.00    +0.000 C 
ATOM     26  O   UNL     1       8.388   7.032  19.011  0.00  0.00    +0.000 OA
ATOM     27  N   UNL     1       7.965   8.825  17.649  0.00  0.00    +0.000 N 
ATOM     28  H   UNL     1       7.477   9.191  16.845  0.00  0.00    +0.000 HD
BRANCH  27  29
ATOM     29  C   UNL     1       8.661   9.770  18.469  0.00  0.00    +0.000 C 
ATOM     30  C   UNL     1       9.821  10.573  17.948  0.00  0.00    +0.000 C 
ATOM     31  C   UNL     1       8.504  11.244  18.209  0.00  0.00    +0.000 C 
ENDBRANCH  27  29
ENDBRANCH   3  25
TORSDOF 4
ENDMDL
MODEL 8
REMARK VINA RESULT:      -6.8      3.564      7.852
REMARK  Name = 
REMARK  5 active torsions:
REMARK  status: ('A' for Active; 'I' for Inactive)
REMARK    1  A    between atoms: C_1  and  N_2
REMARK    2  A    between atoms: C_3  and  C_5
REMARK    3  A    between atoms: C_7  and  C_8
REMARK    4  A    between atoms: N_10  and  C_11
REMARK    5  A    between atoms: C_19  and  C_20
REMARK                            x       y       z     vdW  Elec       q    Type
REMARK                         _______ _______ _______ _____ _____    ______ ____
ROOT
ATOM      1  C   UNL     1      -3.919  15.031  22.219  0.00  0.00    +0.000 A 
ATOM      2  C   UNL     1      -4.966  14.337  21.576  0.00  0.00    +0.000 A 
ATOM      3  C   UNL     1      -4.719  13.145  20.865  0.00  0.00    +0.000 A 
ATOM      4  C   UNL     1      -3.401  12.666  20.772  0.00  0.00    +0.000 A 
ATOM      5  C   UNL     1      -2.378  13.352  21.414  0.00  0.00    +0.000 A 
ATOM      6  C   UNL     1      -2.636  14.510  22.130  0.00  0.00    +0.000 A 
ATOM      7  O   UNL     1      -1.507  15.063  22.687  0.00  0.00    +0.000 OA
ATOM      8  C   UNL     1      -0.492  14.037  22.540  0.00  0.00    +0.000 C 
ATOM      9  C   UNL     1      -0.911  13.078  21.414  0.00  0.00    +0.000 C 
ENDROOT
BRANCH   9  10
ATOM     10  C   UNL     1      -0.498  11.643  21.641  0.00  0.00    +0.000 A 
ATOM     11  C   UNL     1      -0.767  11.004  22.875  0.00  0.00    +0.000 A 
ATOM     12  C   UNL     1      -0.399   9.684  23.122  0.00  0.00    +0.000 A 
ATOM     13  C   UNL     1       0.257   8.933  22.145  0.00  0.00    +0.000 A 
ATOM     14  C   UNL     1       0.519   9.556  20.922  0.00  0.00    +0.000 A 
ATOM     15  N   UNL     1       1.130   9.047  19.795  0.00  0.00    +0.000 N 
ATOM     16  C   UNL     1       1.176   9.997  18.813  0.00  0.00    +0.000 A 
ATOM     17  C   UNL     1       0.589  11.138  19.308  0.00  0.00    +0.000 A 
ATOM     18  C   UNL     1       0.165  10.876  20.645  0.00  0.00    +0.000 A 
ATOM     19  H   UNL     1       1.483   8.103  19.712  0.00  0.00    +0.000 HD
ENDBRANCH   9  10
BRANCH   1  22
ATOM     20  C   UNL     1      -4.885  17.246  25.138  0.00  0.00    +0.000 C 
ATOM     21  N   UNL     1      -4.560  16.120  24.304  0.00  0.00    +0.000 N 
ATOM     22  C   UNL     1      -4.254  16.270  22.971  0.00  0.00    +0.000 C 
ATOM     23  O   UNL     1      -4.278  17.349  22.389  0.00  0.00    +0.000 OA
ATOM     24  H   UNL     1      -4.414  15.213  24.736  0.00  0.00    +0.000 HD
ENDBRANCH   1  22
BRANCH   3  25
ATOM     25  C   UNL     1      -5.787  12.339  20.188  0.00  0.00    +0.000 C 
ATOM     26  O   UNL     1      -6.055  12.560  19.010  0.00  0.00    +0.000 OA
ATOM     27  N   UNL     1      -6.434  11.365  20.927  0.00  0.00    +0.000 N 
ATOM     28  H   UNL     1      -6.224  11.229  21.905  0.00  0.00    +0.000 HD
BRANCH  27  29
ATOM     29  C   UNL     1      -7.521  10.607  20.387  0.00  0.00    +0.000 C 
ATOM     30  C   UNL     1      -7.301   9.313  19.653  0.00  0.00    +0.000 C 
ATOM     31  C   UNL     1      -7.910   9.301  21.024  0.00  0.00    +0.000 C 
ENDBRANCH  27  29
ENDBRANCH   3  25
TORSDOF 4
ENDMDL
MODEL 9
REMARK VINA RESULT:      -6.8      3.032      3.801
REMARK  Name = 
REMARK  5 active torsions:
REMARK  status: ('A' for Active; 'I' for Inactive)
REMARK    1  A    between atoms: C_1  and  N_2
REMARK    2  A    between atoms: C_3  and  C_5
REMARK    3  A    between atoms: C_7  and  C_8
REMARK    4  A    between atoms: N_10  and  C_11
REMARK    5  A    between atoms: C_19  and  C_20
REMARK                            x       y       z     vdW  Elec       q    Type
REMARK                         _______ _______ _______ _____ _____    ______ ____
ROOT
ATOM      1  C   UNL     1      -2.205  11.385  18.045  0.00  0.00    +0.000 A 
ATOM      2  C   UNL     1      -0.906  11.697  18.500  0.00  0.00    +0.000 A 
ATOM      3  C   UNL     1      -0.708  12.427  19.689  0.00  0.00    +0.000 A 
ATOM      4  C   UNL     1      -1.828  12.877  20.409  0.00  0.00    +0.000 A 
ATOM      5  C   UNL     1      -3.103  12.560  19.957  0.00  0.00    +0.000 A 
ATOM      6  C   UNL     1      -3.286  11.820  18.799  0.00  0.00    +0.000 A 
ATOM      7  O   UNL     1      -4.610  11.611  18.495  0.00  0.00    +0.000 OA
ATOM      8  C   UNL     1      -5.323  12.019  19.691  0.00  0.00    +0.000 C 
ATOM      9  C   UNL     1      -4.429  12.965  20.508  0.00  0.00    +0.000 C 
ENDROOT
BRANCH   9  10
ATOM     10  C   UNL     1      -4.601  12.838  22.003  0.00  0.00    +0.000 A 
ATOM     11  C   UNL     1      -3.524  12.409  22.816  0.00  0.00    +0.000 A 
ATOM     12  C   UNL     1      -3.645  12.277  24.197  0.00  0.00    +0.000 A 
ATOM     13  C   UNL     1      -4.851  12.568  24.837  0.00  0.00    +0.000 A 
ATOM     14  C   UNL     1      -5.915  12.998  24.041  0.00  0.00    +0.000 A 
ATOM     15  N   UNL     1      -7.193  13.362  24.412  0.00  0.00    +0.000 N 
ATOM     16  C   UNL     1      -7.917  13.729  23.312  0.00  0.00    +0.000 A 
ATOM     17  C   UNL     1      -7.101  13.600  22.212  0.00  0.00    +0.000 A 
ATOM     18  C   UNL     1      -5.826  13.139  22.656  0.00  0.00    +0.000 A 
ATOM     19  H   UNL     1      -7.534  13.364  25.363  0.00  0.00    +0.000 HD
ENDBRANCH   9  10
BRANCH   1  22
ATOM     20  C   UNL     1      -3.384  10.429  14.573  0.00  0.00    +0.000 C 
ATOM     21  N   UNL     1      -3.183  11.098  15.830  0.00  0.00    +0.000 N 
ATOM     22  C   UNL     1      -2.341  10.591  16.794  0.00  0.00    +0.000 C 
ATOM     23  O   UNL     1      -1.744   9.527  16.678  0.00  0.00    +0.000 OA
ATOM     24  H   UNL     1      -3.556  12.034  15.955  0.00  0.00    +0.000 HD
ENDBRANCH   1  22
BRANCH   3  25
ATOM     25  C   UNL     1       0.642  12.764  20.248  0.00  0.00    +0.000 C 
ATOM     26  O   UNL     1       0.909  12.458  21.408  0.00  0.00    +0.000 OA
ATOM     27  N   UNL     1       1.544  13.411  19.423  0.00  0.00    +0.000 N 
ATOM     28  H   UNL     1       1.288  13.687  18.487  0.00  0.00    +0.000 HD
BRANCH  27  29
ATOM     29  C   UNL     1       2.823  13.844  19.899  0.00  0.00    +0.000 C 
ATOM     30  C   UNL     1       3.797  14.570  19.013  0.00  0.00    +0.000 C 
ATOM     31  C   UNL     1       3.085  15.311  20.107  0.00  0.00    +0.000 C 
ENDBRANCH  27  29
ENDBRANCH   3  25
TORSDOF 4
ENDMDL
