MODEL 1
REMARK VINA RESULT:      -7.3      0.000      0.000
REMARK  Name = 
REMARK  2 active torsions:
REMARK  status: ('A' for Active; 'I' for Inactive)
REMARK    1  A    between atoms: C_5  and  C_6
REMARK    2  A    between atoms: C_10  and  C_11
REMARK                            x       y       z     vdW  Elec       q    Type
REMARK                         _______ _______ _______ _____ _____    ______ ____
ROOT
ATOM      1  C   UNL     1       2.626   4.081  18.665  0.00  0.00    +0.000 A 
ATOM      2  N   UNL     1       1.704   3.156  18.981  0.00  0.00    +0.000 NA
ATOM      3  O   UNL     1       2.183   1.951  18.520  0.00  0.00    +0.000 OA
ATOM      4  C   UNL     1       3.391   2.136  17.942  0.00  0.00    +0.000 A 
ATOM      5  C   UNL     1       3.745   3.466  18.008  0.00  0.00    +0.000 A 
ENDROOT
BRANCH   1  10
ATOM      6  F   UNL     1       1.483   9.419  19.906  0.00  0.00    +0.000 F 
ATOM      7  C   UNL     1       1.812   8.151  19.626  0.00  0.00    +0.000 A 
ATOM      8  C   UNL     1       2.280   7.826  18.359  0.00  0.00    +0.000 A 
ATOM      9  C   UNL     1       2.579   6.495  18.056  0.00  0.00    +0.000 A 
ATOM     10  C   UNL     1       2.413   5.487  19.022  0.00  0.00    +0.000 A 
ATOM     11  C   UNL     1       2.004   5.853  20.314  0.00  0.00    +0.000 A 
ATOM     12  C   UNL     1       1.677   7.179  20.609  0.00  0.00    +0.000 A 
ENDBRANCH   1  10
BRANCH   5  13
ATOM     13  C   UNL     1       5.006   3.985  17.494  0.00  0.00    +0.000 A 
ATOM     14  C   UNL     1       5.966   4.519  18.355  0.00  0.00    +0.000 A 
ATOM     15  C   UNL     1       7.183   4.925  17.824  0.00  0.00    +0.000 A 
ATOM     16  N   UNL     1       7.500   4.826  16.518  0.00  0.00    +0.000 NA
ATOM     17  C   UNL     1       6.552   4.329  15.698  0.00  0.00    +0.000 A 
ATOM     18  C   UNL     1       5.299   3.928  16.129  0.00  0.00    +0.000 A 
ENDBRANCH   5  13
TORSDOF 2
ENDMDL
MODEL 2
REMARK VINA RESULT:      -7.3      2.798      5.218
REMARK  Name = 
REMARK  2 active torsions:
REMARK  status: ('A' for Active; 'I' for Inactive)
REMARK    1  A    between atoms: C_5  and  C_6
REMARK    2  A    between atoms: C_10  and  C_11
REMARK                            x       y       z     vdW  Elec       q    Type
REMARK                         _______ _______ _______ _____ _____    ______ ____
ROOT
ATOM      1  C   UNL     1       4.048   5.027  17.800  0.00  0.00    +0.000 A 
ATOM      2  N   UNL     1       3.935   3.820  17.221  0.00  0.00    +0.000 NA
ATOM      3  O   UNL     1       2.593   3.515  17.205  0.00  0.00    +0.000 OA
ATOM      4  C   UNL     1       1.893   4.532  17.755  0.00  0.00    +0.000 A 
ATOM      5  C   UNL     1       2.751   5.537  18.146  0.00  0.00    +0.000 A 
ENDROOT
BRANCH   1  10
ATOM      6  F   UNL     1       8.935   7.614  18.670  0.00  0.00    +0.000 F 
ATOM      7  C   UNL     1       7.793   6.960  18.423  0.00  0.00    +0.000 A 
ATOM      8  C   UNL     1       6.957   7.397  17.404  0.00  0.00    +0.000 A 
ATOM      9  C   UNL     1       5.744   6.740  17.178  0.00  0.00    +0.000 A 
ATOM     10  C   UNL     1       5.368   5.642  17.972  0.00  0.00    +0.000 A 
ATOM     11  C   UNL     1       6.263   5.179  18.949  0.00  0.00    +0.000 A 
ATOM     12  C   UNL     1       7.461   5.853  19.194  0.00  0.00    +0.000 A 
ENDBRANCH   1  10
BRANCH   5  13
ATOM     13  C   UNL     1       2.301   6.783  18.753  0.00  0.00    +0.000 A 
ATOM     14  C   UNL     1       2.103   7.928  17.977  0.00  0.00    +0.000 A 
ATOM     15  C   UNL     1       1.596   9.066  18.589  0.00  0.00    +0.000 A 
ATOM     16  N   UNL     1       1.272   9.132  19.895  0.00  0.00    +0.000 NA
ATOM     17  C   UNL     1       1.490   8.025  20.633  0.00  0.00    +0.000 A 
ATOM     18  C   UNL     1       2.021   6.853  20.120  0.00  0.00    +0.000 A 
ENDBRANCH   5  13
TORSDOF 2
ENDMDL
MODEL 3
REMARK VINA RESULT:      -7.2      0.214      1.126
REMARK  Name = 
REMARK  2 active torsions:
REMARK  status: ('A' for Active; 'I' for Inactive)
REMARK    1  A    between atoms: C_5  and  C_6
REMARK    2  A    between atoms: C_10  and  C_11
REMARK                            x       y       z     vdW  Elec       q    Type
REMARK                         _______ _______ _______ _____ _____    ______ ____
ROOT
ATOM      1  C   UNL     1       2.584   4.189  18.489  0.00  0.00    +0.000 A 
ATOM      2  N   UNL     1       1.607   3.302  18.744  0.00  0.00    +0.000 NA
ATOM      3  O   UNL     1       2.066   2.078  18.316  0.00  0.00    +0.000 OA
ATOM      4  C   UNL     1       3.316   2.212  17.820  0.00  0.00    +0.000 A 
ATOM      5  C   UNL     1       3.719   3.527  17.909  0.00  0.00    +0.000 A 
ENDROOT
BRANCH   1  10
ATOM      6  F   UNL     1       1.562   9.560  19.690  0.00  0.00    +0.000 F 
ATOM      7  C   UNL     1       1.863   8.285  19.416  0.00  0.00    +0.000 A 
ATOM      8  C   UNL     1       2.255   7.931  18.131  0.00  0.00    +0.000 A 
ATOM      9  C   UNL     1       2.525   6.592  17.838  0.00  0.00    +0.000 A 
ATOM     10  C   UNL     1       2.404   5.604  18.831  0.00  0.00    +0.000 A 
ATOM     11  C   UNL     1       2.074   5.998  20.137  0.00  0.00    +0.000 A 
ATOM     12  C   UNL     1       1.776   7.332  20.424  0.00  0.00    +0.000 A 
ENDBRANCH   1  10
BRANCH   5  13
ATOM     13  C   UNL     1       5.031   3.993  17.480  0.00  0.00    +0.000 A 
ATOM     14  C   UNL     1       5.404   3.948  16.135  0.00  0.00    +0.000 A 
ATOM     15  C   UNL     1       6.632   4.479  15.767  0.00  0.00    +0.000 A 
ATOM     16  N   UNL     1       7.491   5.049  16.636  0.00  0.00    +0.000 NA
ATOM     17  C   UNL     1       7.125   5.065  17.933  0.00  0.00    +0.000 A 
ATOM     18  C   UNL     1       5.935   4.532  18.400  0.00  0.00    +0.000 A 
ENDBRANCH   5  13
TORSDOF 2
ENDMDL
MODEL 4
REMARK VINA RESULT:      -7.2      3.223      4.243
REMARK  Name = 
REMARK  2 active torsions:
REMARK  status: ('A' for Active; 'I' for Inactive)
REMARK    1  A    between atoms: C_5  and  C_6
REMARK    2  A    between atoms: C_10  and  C_11
REMARK                            x       y       z     vdW  Elec       q    Type
REMARK                         _______ _______ _______ _____ _____    ______ ____
ROOT
ATOM      1  C   UNL     1       5.498   4.453  18.576  0.00  0.00    +0.000 A 
ATOM      2  N   UNL     1       5.950   4.861  19.774  0.00  0.00    +0.000 NA
ATOM      3  O   UNL     1       7.222   5.345  19.569  0.00  0.00    +0.000 OA
ATOM      4  C   UNL     1       7.537   5.247  18.259  0.00  0.00    +0.000 A 
ATOM      5  C   UNL     1       6.483   4.700  17.561  0.00  0.00    +0.000 A 
ENDROOT
BRANCH   1  10
ATOM      6  F   UNL     1       0.317   2.335  18.439  0.00  0.00    +0.000 F 
ATOM      7  C   UNL     1       1.564   2.823  18.416  0.00  0.00    +0.000 A 
ATOM      8  C   UNL     1       2.626   2.015  18.802  0.00  0.00    +0.000 A 
ATOM      9  C   UNL     1       3.920   2.541  18.821  0.00  0.00    +0.000 A 
ATOM     10  C   UNL     1       4.155   3.877  18.451  0.00  0.00    +0.000 A 
ATOM     11  C   UNL     1       3.073   4.651  18.000  0.00  0.00    +0.000 A 
ATOM     12  C   UNL     1       1.776   4.134  18.009  0.00  0.00    +0.000 A 
ENDBRANCH   1  10
BRANCH   5  13
ATOM     13  C   UNL     1       6.501   4.487  16.119  0.00  0.00    +0.000 A 
ATOM     14  C   UNL     1       5.552   3.669  15.502  0.00  0.00    +0.000 A 
ATOM     15  C   UNL     1       5.564   3.563  14.118  0.00  0.00    +0.000 A 
ATOM     16  N   UNL     1       6.437   4.216  13.326  0.00  0.00    +0.000 NA
ATOM     17  C   UNL     1       7.360   4.983  13.939  0.00  0.00    +0.000 A 
ATOM     18  C   UNL     1       7.448   5.126  15.314  0.00  0.00    +0.000 A 
ENDBRANCH   5  13
TORSDOF 2
ENDMDL
MODEL 5
REMARK VINA RESULT:      -7.2      1.576      2.080
REMARK  Name = 
REMARK  2 active torsions:
REMARK  status: ('A' for Active; 'I' for Inactive)
REMARK    1  A    between atoms: C_5  and  C_6
REMARK    2  A    between atoms: C_10  and  C_11
REMARK                            x       y       z     vdW  Elec       q    Type
REMARK                         _______ _______ _______ _____ _____    ______ ____
ROOT
ATOM      1  C   UNL     1       2.837   5.543  18.029  0.00  0.00    +0.000 A 
ATOM      2  N   UNL     1       1.933   4.607  17.695  0.00  0.00    +0.000 NA
ATOM      3  O   UNL     1       2.639   3.544  17.180  0.00  0.00    +0.000 OA
ATOM      4  C   UNL     1       3.961   3.823  17.213  0.00  0.00    +0.000 A 
ATOM      5  C   UNL     1       4.166   5.073  17.753  0.00  0.00    +0.000 A 
ENDROOT
BRANCH   1  10
ATOM      6  F   UNL     1       0.842  10.317  20.167  0.00  0.00    +0.000 F 
ATOM      7  C   UNL     1       1.374   9.194  19.668  0.00  0.00    +0.000 A 
ATOM      8  C   UNL     1       1.718   9.135  18.323  0.00  0.00    +0.000 A 
ATOM      9  C   UNL     1       2.230   7.947  17.795  0.00  0.00    +0.000 A 
ATOM     10  C   UNL     1       2.401   6.816  18.612  0.00  0.00    +0.000 A 
ATOM     11  C   UNL     1       2.111   6.924  19.981  0.00  0.00    +0.000 A 
ATOM     12  C   UNL     1       1.571   8.102  20.504  0.00  0.00    +0.000 A 
ENDBRANCH   1  10
BRANCH   5  13
ATOM     13  C   UNL     1       5.488   5.655  17.947  0.00  0.00    +0.000 A 
ATOM     14  C   UNL     1       5.930   6.714  17.151  0.00  0.00    +0.000 A 
ATOM     15  C   UNL     1       7.164   7.285  17.430  0.00  0.00    +0.000 A 
ATOM     16  N   UNL     1       7.964   6.883  18.437  0.00  0.00    +0.000 NA
ATOM     17  C   UNL     1       7.531   5.846  19.182  0.00  0.00    +0.000 A 
ATOM     18  C   UNL     1       6.331   5.192  18.960  0.00  0.00    +0.000 A 
ENDBRANCH   5  13
TORSDOF 2
ENDMDL
MODEL 6
REMARK VINA RESULT:      -7.2      3.181      4.175
REMARK  Name = 
REMARK  2 active torsions:
REMARK  status: ('A' for Active; 'I' for Inactive)
REMARK    1  A    between atoms: C_5  and  C_6
REMARK    2  A    between atoms: C_10  and  C_11
REMARK                            x       y       z     vdW  Elec       q    Type
REMARK                         _______ _______ _______ _____ _____    ______ ____
ROOT
ATOM      1  C   UNL     1       5.441   4.457  18.557  0.00  0.00    +0.000 A 
ATOM      2  N   UNL     1       5.929   4.806  19.759  0.00  0.00    +0.000 NA
ATOM      3  O   UNL     1       7.196   5.298  19.541  0.00  0.00    +0.000 OA
ATOM      4  C   UNL     1       7.471   5.265  18.218  0.00  0.00    +0.000 A 
ATOM      5  C   UNL     1       6.395   4.753  17.526  0.00  0.00    +0.000 A 
ENDROOT
BRANCH   1  10
ATOM      6  F   UNL     1       0.258   2.341  18.475  0.00  0.00    +0.000 F 
ATOM      7  C   UNL     1       1.503   2.833  18.438  0.00  0.00    +0.000 A 
ATOM      8  C   UNL     1       2.580   2.001  18.714  0.00  0.00    +0.000 A 
ATOM      9  C   UNL     1       3.874   2.528  18.719  0.00  0.00    +0.000 A 
ATOM     10  C   UNL     1       4.093   3.889  18.445  0.00  0.00    +0.000 A 
ATOM     11  C   UNL     1       2.994   4.692  18.101  0.00  0.00    +0.000 A 
ATOM     12  C   UNL     1       1.698   4.173  18.125  0.00  0.00    +0.000 A 
ENDBRANCH   1  10
BRANCH   5  13
ATOM     13  C   UNL     1       6.370   4.611  16.076  0.00  0.00    +0.000 A 
ATOM     14  C   UNL     1       7.410   5.109  15.288  0.00  0.00    +0.000 A 
ATOM     15  C   UNL     1       7.377   4.876  13.920  0.00  0.00    +0.000 A 
ATOM     16  N   UNL     1       6.399   4.185  13.301  0.00  0.00    +0.000 NA
ATOM     17  C   UNL     1       5.393   3.731  14.074  0.00  0.00    +0.000 A 
ATOM     18  C   UNL     1       5.321   3.940  15.441  0.00  0.00    +0.000 A 
ENDBRANCH   5  13
TORSDOF 2
ENDMDL
MODEL 7
REMARK VINA RESULT:      -7.2      1.604      1.937
REMARK  Name = 
REMARK  2 active torsions:
REMARK  status: ('A' for Active; 'I' for Inactive)
REMARK    1  A    between atoms: C_5  and  C_6
REMARK    2  A    between atoms: C_10  and  C_11
REMARK                            x       y       z     vdW  Elec       q    Type
REMARK                         _______ _______ _______ _____ _____    ______ ____
ROOT
ATOM      1  C   UNL     1       2.852   5.581  18.113  0.00  0.00    +0.000 A 
ATOM      2  N   UNL     1       1.979   4.628  17.745  0.00  0.00    +0.000 NA
ATOM      3  O   UNL     1       2.722   3.601  17.210  0.00  0.00    +0.000 OA
ATOM      4  C   UNL     1       4.035   3.916  17.265  0.00  0.00    +0.000 A 
ATOM      5  C   UNL     1       4.197   5.158  17.839  0.00  0.00    +0.000 A 
ENDROOT
BRANCH   1  10
ATOM      6  F   UNL     1       0.696  10.236  20.355  0.00  0.00    +0.000 F 
ATOM      7  C   UNL     1       1.266   9.143  19.831  0.00  0.00    +0.000 A 
ATOM      8  C   UNL     1       1.618   9.127  18.488  0.00  0.00    +0.000 A 
ATOM      9  C   UNL     1       2.170   7.970  17.933  0.00  0.00    +0.000 A 
ATOM     10  C   UNL     1       2.373   6.825  18.724  0.00  0.00    +0.000 A 
ATOM     11  C   UNL     1       2.073   6.891  20.094  0.00  0.00    +0.000 A 
ATOM     12  C   UNL     1       1.494   8.038  20.642  0.00  0.00    +0.000 A 
ENDBRANCH   1  10
BRANCH   5  13
ATOM     13  C   UNL     1       5.499   5.772  18.064  0.00  0.00    +0.000 A 
ATOM     14  C   UNL     1       6.349   5.306  19.069  0.00  0.00    +0.000 A 
ATOM     15  C   UNL     1       7.611   5.871  19.189  0.00  0.00    +0.000 A 
ATOM     16  N   UNL     1       8.073   6.846  18.381  0.00  0.00    +0.000 NA
ATOM     17  C   UNL     1       7.232   7.299  17.431  0.00  0.00    +0.000 A 
ATOM     18  C   UNL     1       5.945   6.820  17.254  0.00  0.00    +0.000 A 
ENDBRANCH   5  13
TORSDOF 2
ENDMDL
MODEL 8
REMARK VINA RESULT:      -7.2      0.242      1.164
REMARK  Name = 
REMARK  2 active torsions:
REMARK  status: ('A' for Active; 'I' for Inactive)
REMARK    1  A    between atoms: C_5  and  C_6
REMARK    2  A    between atoms: C_10  and  C_11
REMARK                            x       y       z     vdW  Elec       q    Type
REMARK                         _______ _______ _______ _____ _____    ______ ____
ROOT
ATOM      1  C   UNL     1       2.710   3.893  18.805  0.00  0.00    +0.000 A 
ATOM      2  N   UNL     1       1.897   2.905  19.214  0.00  0.00    +0.000 NA
ATOM      3  O   UNL     1       2.485   1.725  18.822  0.00  0.00    +0.000 OA
ATOM      4  C   UNL     1       3.652   1.988  18.194  0.00  0.00    +0.000 A 
ATOM      5  C   UNL     1       3.869   3.348  18.156  0.00  0.00    +0.000 A 
ENDROOT
BRANCH   1  10
ATOM      6  F   UNL     1       1.706   9.279  19.955  0.00  0.00    +0.000 F 
ATOM      7  C   UNL     1       1.891   7.986  19.662  0.00  0.00    +0.000 A 
ATOM      8  C   UNL     1       1.645   7.020  20.630  0.00  0.00    +0.000 A 
ATOM      9  C   UNL     1       1.881   5.675  20.335  0.00  0.00    +0.000 A 
ATOM     10  C   UNL     1       2.362   5.293  19.070  0.00  0.00    +0.000 A 
ATOM     11  C   UNL     1       2.536   6.282  18.089  0.00  0.00    +0.000 A 
ATOM     12  C   UNL     1       2.328   7.630  18.392  0.00  0.00    +0.000 A 
ENDBRANCH   1  10
BRANCH   5  13
ATOM     13  C   UNL     1       5.057   3.953  17.567  0.00  0.00    +0.000 A 
ATOM     14  C   UNL     1       6.035   4.544  18.370  0.00  0.00    +0.000 A 
ATOM     15  C   UNL     1       7.185   5.034  17.765  0.00  0.00    +0.000 A 
ATOM     16  N   UNL     1       7.421   4.965  16.440  0.00  0.00    +0.000 NA
ATOM     17  C   UNL     1       6.456   4.412  15.678  0.00  0.00    +0.000 A 
ATOM     18  C   UNL     1       5.263   3.925  16.185  0.00  0.00    +0.000 A 
ENDBRANCH   5  13
TORSDOF 2
ENDMDL
MODEL 9
REMARK VINA RESULT:      -7.1      1.093      1.194
REMARK  Name = 
REMARK  2 active torsions:
REMARK  status: ('A' for Active; 'I' for Inactive)
REMARK    1  A    between atoms: C_5  and  C_6
REMARK    2  A    between atoms: C_10  and  C_11
REMARK                            x       y       z     vdW  Elec       q    Type
REMARK                         _______ _______ _______ _____ _____    ______ ____
ROOT
ATOM      1  C   UNL     1       2.512   4.844  18.104  0.00  0.00    +0.000 A 
ATOM      2  N   UNL     1       1.486   4.065  17.724  0.00  0.00    +0.000 NA
ATOM      3  O   UNL     1       2.036   2.941  17.153  0.00  0.00    +0.000 OA
ATOM      4  C   UNL     1       3.384   3.025  17.198  0.00  0.00    +0.000 A 
ATOM      5  C   UNL     1       3.762   4.204  17.802  0.00  0.00    +0.000 A 
ENDROOT
BRANCH   1  10
ATOM      6  F   UNL     1       1.210   9.747  20.473  0.00  0.00    +0.000 F 
ATOM      7  C   UNL     1       1.578   8.583  19.922  0.00  0.00    +0.000 A 
ATOM      8  C   UNL     1       1.984   8.549  18.594  0.00  0.00    +0.000 A 
ATOM      9  C   UNL     1       2.323   7.326  18.009  0.00  0.00    +0.000 A 
ATOM     10  C   UNL     1       2.259   6.135  18.753  0.00  0.00    +0.000 A 
ATOM     11  C   UNL     1       1.912   6.207  20.112  0.00  0.00    +0.000 A 
ATOM     12  C   UNL     1       1.545   7.425  20.689  0.00  0.00    +0.000 A 
ENDBRANCH   1  10
BRANCH   5  13
ATOM     13  C   UNL     1       5.152   4.581  18.025  0.00  0.00    +0.000 A 
ATOM     14  C   UNL     1       5.550   5.180  19.222  0.00  0.00    +0.000 A 
ATOM     15  C   UNL     1       6.899   5.445  19.417  0.00  0.00    +0.000 A 
ATOM     16  N   UNL     1       7.857   5.147  18.517  0.00  0.00    +0.000 NA
ATOM     17  C   UNL     1       7.453   4.590  17.359  0.00  0.00    +0.000 A 
ATOM     18  C   UNL     1       6.128   4.317  17.060  0.00  0.00    +0.000 A 
ENDBRANCH   5  13
TORSDOF 2
ENDMDL
