MODEL 1
REMARK VINA RESULT:      -7.8      0.000      0.000
REMARK  Name = 
REMARK  9 active torsions:
REMARK  status: ('A' for Active; 'I' for Inactive)
REMARK    1  A    between atoms: C_1  and  C_2
REMARK    2  A    between atoms: C_2  and  C_3
REMARK    3  A    between atoms: C_2  and  C_4
REMARK    4  A    between atoms: C_7  and  C_8
REMARK    5  A    between atoms: N_11  and  C_12
REMARK    6  A    between atoms: C_20  and  C_21
REMARK    7  A    between atoms: C_24  and  C_25
REMARK    8  A    between atoms: C_25  and  C_26
REMARK    9  A    between atoms: C_25  and  C_27
REMARK                            x       y       z     vdW  Elec       q    Type
REMARK                         _______ _______ _______ _____ _____    ______ ____
ROOT
ATOM      1  C   UNL     1       1.076  10.686  19.641  0.00  0.00    +0.000 C 
ATOM      2  C   UNL     1      -0.224  11.058  19.592  0.00  0.00    +0.000 C 
ATOM      3  C   UNL     1      -1.318  10.143  19.049  0.00  0.00    +0.000 C 
ATOM      4  N   UNL     1      -2.292  10.871  18.221  0.00  0.00    +0.000 NA
ATOM      5  C   UNL     1      -3.293   9.951  17.682  0.00  0.00    +0.000 C 
ATOM      6  C   UNL     1      -2.944  11.917  19.014  0.00  0.00    +0.000 C 
ATOM      7  C   UNL     1      -1.979  12.753  19.814  0.00  0.00    +0.000 C 
ATOM      8  C   UNL     1      -0.717  12.359  20.060  0.00  0.00    +0.000 C 
ATOM      9  N   UNL     1       0.084  13.169  20.827  0.00  0.00    +0.000 N 
ATOM     10  C   UNL     1      -0.276  14.388  21.306  0.00  0.00    +0.000 C 
ATOM     11  S   UNL     1       0.766  15.299  22.226  0.00  0.00    +0.000 S 
ATOM     12  N   UNL     1      -1.516  14.839  21.002  0.00  0.00    +0.000 N 
ATOM     13  C   UNL     1      -2.540  14.042  20.363  0.00  0.00    +0.000 C 
ATOM     14  H   UNL     1       1.017  12.867  21.071  0.00  0.00    +0.000 HD
ATOM     15  H   UNL     1      -1.782  15.730  21.400  0.00  0.00    +0.000 HD
ENDROOT
BRANCH   1  19
ATOM     16  C   UNL     1       2.633   6.876  18.436  0.00  0.00    +0.000 A 
ATOM     17  C   UNL     1       2.168   7.082  19.745  0.00  0.00    +0.000 A 
ATOM     18  C   UNL     1       1.642   8.318  20.133  0.00  0.00    +0.000 A 
ATOM     19  C   UNL     1       1.571   9.371  19.219  0.00  0.00    +0.000 A 
ATOM     20  C   UNL     1       2.007   9.169  17.907  0.00  0.00    +0.000 A 
ATOM     21  C   UNL     1       2.530   7.932  17.519  0.00  0.00    +0.000 A 
BRANCH  16  23
ATOM     22  C   UNL     1       4.159   5.018  19.097  0.00  0.00    +0.000 C 
ATOM     23  C   UNL     1       3.174   5.514  18.037  0.00  0.00    +0.000 C 
ATOM     24  C   UNL     1       2.086   4.464  17.784  0.00  0.00    +0.000 C 
ENDBRANCH  16  23
ENDBRANCH   1  19
BRANCH  13  25
ATOM     25  C   UNL     1      -3.692  13.809  21.325  0.00  0.00    +0.000 A 
ATOM     26  C   UNL     1      -4.978  14.283  21.031  0.00  0.00    +0.000 A 
ATOM     27  C   UNL     1      -6.054  13.996  21.878  0.00  0.00    +0.000 A 
ATOM     28  C   UNL     1      -5.871  13.230  23.038  0.00  0.00    +0.000 A 
ATOM     29  C   UNL     1      -4.579  12.782  23.346  0.00  0.00    +0.000 A 
ATOM     30  C   UNL     1      -3.505  13.068  22.503  0.00  0.00    +0.000 A 
BRANCH  28  31
ATOM     31  C   UNL     1      -7.060  12.878  23.914  0.00  0.00    +0.000 C 
ATOM     32  C   UNL     1      -7.913  14.114  24.216  0.00  0.00    +0.000 C 
ATOM     33  C   UNL     1      -7.912  11.766  23.297  0.00  0.00    +0.000 C 
ENDBRANCH  28  31
ENDBRANCH  13  25
TORSDOF 4
ENDMDL
MODEL 2
REMARK VINA RESULT:      -7.2      0.515      1.426
REMARK  Name = 
REMARK  9 active torsions:
REMARK  status: ('A' for Active; 'I' for Inactive)
REMARK    1  A    between atoms: C_1  and  C_2
REMARK    2  A    between atoms: C_2  and  C_3
REMARK    3  A    between atoms: C_2  and  C_4
REMARK    4  A    between atoms: C_7  and  C_8
REMARK    5  A    between atoms: N_11  and  C_12
REMARK    6  A    between atoms: C_20  and  C_21
REMARK    7  A    between atoms: C_24  and  C_25
REMARK    8  A    between atoms: C_25  and  C_26
REMARK    9  A    between atoms: C_25  and  C_27
REMARK                            x       y       z     vdW  Elec       q    Type
REMARK                         _______ _______ _______ _____ _____    ______ ____
ROOT
ATOM      1  C   UNL     1       1.244  10.384  19.682  0.00  0.00    +0.000 C 
ATOM      2  C   UNL     1      -0.044  10.783  19.579  0.00  0.00    +0.000 C 
ATOM      3  C   UNL     1      -1.140   9.880  19.021  0.00  0.00    +0.000 C 
ATOM      4  N   UNL     1      -2.067  10.608  18.142  0.00  0.00    +0.000 NA
ATOM      5  C   UNL     1      -3.071   9.697  17.592  0.00  0.00    +0.000 C 
ATOM      6  C   UNL     1      -2.721  11.688  18.886  0.00  0.00    +0.000 C 
ATOM      7  C   UNL     1      -1.766  12.522  19.697  0.00  0.00    +0.000 C 
ATOM      8  C   UNL     1      -0.522  12.107  19.997  0.00  0.00    +0.000 C 
ATOM      9  N   UNL     1       0.271  12.918  20.771  0.00  0.00    +0.000 N 
ATOM     10  C   UNL     1      -0.077  14.156  21.206  0.00  0.00    +0.000 C 
ATOM     11  S   UNL     1       0.954  15.068  22.139  0.00  0.00    +0.000 S 
ATOM     12  N   UNL     1      -1.295  14.627  20.849  0.00  0.00    +0.000 N 
ATOM     13  C   UNL     1      -2.314  13.837  20.194  0.00  0.00    +0.000 C 
ATOM     14  H   UNL     1       1.188  12.602  21.055  0.00  0.00    +0.000 HD
ATOM     15  H   UNL     1      -1.554  15.534  21.214  0.00  0.00    +0.000 HD
ENDROOT
BRANCH   1  19
ATOM     16  C   UNL     1       2.534   6.448  18.569  0.00  0.00    +0.000 A 
ATOM     17  C   UNL     1       2.534   7.496  17.635  0.00  0.00    +0.000 A 
ATOM     18  C   UNL     1       2.132   8.784  18.001  0.00  0.00    +0.000 A 
ATOM     19  C   UNL     1       1.723   9.047  19.310  0.00  0.00    +0.000 A 
ATOM     20  C   UNL     1       1.745   8.019  20.255  0.00  0.00    +0.000 A 
ATOM     21  C   UNL     1       2.150   6.732  19.888  0.00  0.00    +0.000 A 
BRANCH  16  23
ATOM     22  C   UNL     1       1.810   4.248  17.645  0.00  0.00    +0.000 C 
ATOM     23  C   UNL     1       3.002   5.065  18.147  0.00  0.00    +0.000 C 
ATOM     24  C   UNL     1       4.120   5.082  17.098  0.00  0.00    +0.000 C 
ENDBRANCH  16  23
ENDBRANCH   1  19
BRANCH  13  25
ATOM     25  C   UNL     1      -3.504  13.655  21.121  0.00  0.00    +0.000 A 
ATOM     26  C   UNL     1      -3.320  13.498  22.502  0.00  0.00    +0.000 A 
ATOM     27  C   UNL     1      -4.420  13.413  23.362  0.00  0.00    +0.000 A 
ATOM     28  C   UNL     1      -5.729  13.483  22.864  0.00  0.00    +0.000 A 
ATOM     29  C   UNL     1      -5.912  13.610  21.480  0.00  0.00    +0.000 A 
ATOM     30  C   UNL     1      -4.816  13.693  20.621  0.00  0.00    +0.000 A 
BRANCH  28  31
ATOM     31  C   UNL     1      -6.910  13.450  23.818  0.00  0.00    +0.000 C 
ATOM     32  C   UNL     1      -7.600  14.815  23.896  0.00  0.00    +0.000 C 
ATOM     33  C   UNL     1      -7.911  12.354  23.446  0.00  0.00    +0.000 C 
ENDBRANCH  28  31
ENDBRANCH  13  25
TORSDOF 4
ENDMDL
MODEL 3
REMARK VINA RESULT:      -7.1      3.204      5.066
REMARK  Name = 
REMARK  9 active torsions:
REMARK  status: ('A' for Active; 'I' for Inactive)
REMARK    1  A    between atoms: C_1  and  C_2
REMARK    2  A    between atoms: C_2  and  C_3
REMARK    3  A    between atoms: C_2  and  C_4
REMARK    4  A    between atoms: C_7  and  C_8
REMARK    5  A    between atoms: N_11  and  C_12
REMARK    6  A    between atoms: C_20  and  C_21
REMARK    7  A    between atoms: C_24  and  C_25
REMARK    8  A    between atoms: C_25  and  C_26
REMARK    9  A    between atoms: C_25  and  C_27
REMARK                            x       y       z     vdW  Elec       q    Type
REMARK                         _______ _______ _______ _____ _____    ______ ____
ROOT
ATOM      1  C   UNL     1       1.308   8.130  17.821  0.00  0.00    +0.000 C 
ATOM      2  C   UNL     1       0.871   9.013  18.748  0.00  0.00    +0.000 C 
ATOM      3  C   UNL     1       1.604   9.249  20.065  0.00  0.00    +0.000 C 
ATOM      4  N   UNL     1       0.679   9.385  21.200  0.00  0.00    +0.000 NA
ATOM      5  C   UNL     1       1.423   9.562  22.448  0.00  0.00    +0.000 C 
ATOM      6  C   UNL     1      -0.219  10.523  20.984  0.00  0.00    +0.000 C 
ATOM      7  C   UNL     1      -0.830  10.552  19.608  0.00  0.00    +0.000 C 
ATOM      8  C   UNL     1      -0.334   9.836  18.584  0.00  0.00    +0.000 C 
ATOM      9  N   UNL     1      -0.935   9.949  17.354  0.00  0.00    +0.000 N 
ATOM     10  C   UNL     1      -2.050  10.681  17.099  0.00  0.00    +0.000 C 
ATOM     11  S   UNL     1      -2.708  10.754  15.574  0.00  0.00    +0.000 S 
ATOM     12  N   UNL     1      -2.613  11.347  18.135  0.00  0.00    +0.000 N 
ATOM     13  C   UNL     1      -2.010  11.479  19.443  0.00  0.00    +0.000 C 
ATOM     14  H   UNL     1      -0.545   9.464  16.558  0.00  0.00    +0.000 HD
ATOM     15  H   UNL     1      -3.419  11.918  17.920  0.00  0.00    +0.000 HD
ENDROOT
BRANCH   1  19
ATOM     16  C   UNL     1       4.864   5.752  18.119  0.00  0.00    +0.000 A 
ATOM     17  C   UNL     1       4.864   6.959  17.401  0.00  0.00    +0.000 A 
ATOM     18  C   UNL     1       3.710   7.745  17.319  0.00  0.00    +0.000 A 
ATOM     19  C   UNL     1       2.536   7.338  17.956  0.00  0.00    +0.000 A 
ATOM     20  C   UNL     1       2.532   6.153  18.695  0.00  0.00    +0.000 A 
ATOM     21  C   UNL     1       3.687   5.369  18.778  0.00  0.00    +0.000 A 
BRANCH  16  23
ATOM     22  C   UNL     1       6.556   4.465  16.816  0.00  0.00    +0.000 C 
ATOM     23  C   UNL     1       6.141   4.933  18.212  0.00  0.00    +0.000 C 
ATOM     24  C   UNL     1       7.300   5.667  18.897  0.00  0.00    +0.000 C 
ENDBRANCH  16  23
ENDBRANCH   1  19
BRANCH  13  25
ATOM     25  C   UNL     1      -1.647  12.931  19.703  0.00  0.00    +0.000 A 
ATOM     26  C   UNL     1      -0.627  13.557  18.974  0.00  0.00    +0.000 A 
ATOM     27  C   UNL     1      -0.351  14.915  19.157  0.00  0.00    +0.000 A 
ATOM     28  C   UNL     1      -1.086  15.681  20.073  0.00  0.00    +0.000 A 
ATOM     29  C   UNL     1      -2.086  15.047  20.824  0.00  0.00    +0.000 A 
ATOM     30  C   UNL     1      -2.362  13.692  20.643  0.00  0.00    +0.000 A 
BRANCH  28  31
ATOM     31  C   UNL     1      -0.813  17.168  20.216  0.00  0.00    +0.000 C 
ATOM     32  C   UNL     1       0.599  17.425  20.753  0.00  0.00    +0.000 C 
ATOM     33  C   UNL     1      -1.039  17.917  18.901  0.00  0.00    +0.000 C 
ENDBRANCH  28  31
ENDBRANCH  13  25
TORSDOF 4
ENDMDL
MODEL 4
REMARK VINA RESULT:      -7.0      2.847      9.459
REMARK  Name = 
REMARK  9 active torsions:
REMARK  status: ('A' for Active; 'I' for Inactive)
REMARK    1  A    between atoms: C_1  and  C_2
REMARK    2  A    between atoms: C_2  and  C_3
REMARK    3  A    between atoms: C_2  and  C_4
REMARK    4  A    between atoms: C_7  and  C_8
REMARK    5  A    between atoms: N_11  and  C_12
REMARK    6  A    between atoms: C_20  and  C_21
REMARK    7  A    between atoms: C_24  and  C_25
REMARK    8  A    between atoms: C_25  and  C_26
REMARK    9  A    between atoms: C_25  and  C_27
REMARK                            x       y       z     vdW  Elec       q    Type
REMARK                         _______ _______ _______ _____ _____    ______ ____
ROOT
ATOM      1  C   UNL     1      -2.201  13.555  21.058  0.00  0.00    +0.000 C 
ATOM      2  C   UNL     1      -1.028  12.996  20.682  0.00  0.00    +0.000 C 
ATOM      3  C   UNL     1       0.294  13.324  21.370  0.00  0.00    +0.000 C 
ATOM      4  N   UNL     1       1.399  13.469  20.411  0.00  0.00    +0.000 NA
ATOM      5  C   UNL     1       2.635  13.830  21.106  0.00  0.00    +0.000 C 
ATOM      6  C   UNL     1       1.586  12.221  19.665  0.00  0.00    +0.000 C 
ATOM      7  C   UNL     1       0.302  11.643  19.133  0.00  0.00    +0.000 C 
ATOM      8  C   UNL     1      -0.904  12.020  19.593  0.00  0.00    +0.000 C 
ATOM      9  N   UNL     1      -2.022  11.415  19.073  0.00  0.00    +0.000 N 
ATOM     10  C   UNL     1      -2.014  10.503  18.066  0.00  0.00    +0.000 C 
ATOM     11  S   UNL     1      -3.423   9.826  17.500  0.00  0.00    +0.000 S 
ATOM     12  N   UNL     1      -0.815  10.168  17.534  0.00  0.00    +0.000 N 
ATOM     13  C   UNL     1       0.461  10.573  18.080  0.00  0.00    +0.000 C 
ATOM     14  H   UNL     1      -2.934  11.642  19.442  0.00  0.00    +0.000 HD
ATOM     15  H   UNL     1      -0.824   9.459  16.813  0.00  0.00    +0.000 HD
ENDROOT
BRANCH   1  19
ATOM     16  C   UNL     1      -2.498  16.302  24.339  0.00  0.00    +0.000 A 
ATOM     17  C   UNL     1      -2.360  16.767  23.021  0.00  0.00    +0.000 A 
ATOM     18  C   UNL     1      -2.282  15.873  21.949  0.00  0.00    +0.000 A 
ATOM     19  C   UNL     1      -2.342  14.496  22.175  0.00  0.00    +0.000 A 
ATOM     20  C   UNL     1      -2.507  14.023  23.479  0.00  0.00    +0.000 A 
ATOM     21  C   UNL     1      -2.587  14.919  24.550  0.00  0.00    +0.000 A 
BRANCH  16  23
ATOM     22  C   UNL     1      -1.284  18.052  25.636  0.00  0.00    +0.000 C 
ATOM     23  C   UNL     1      -2.607  17.299  25.480  0.00  0.00    +0.000 C 
ATOM     24  C   UNL     1      -3.771  18.286  25.332  0.00  0.00    +0.000 C 
ENDBRANCH  16  23
ENDBRANCH   1  19
BRANCH  13  25
ATOM     25  C   UNL     1       1.213   9.358  18.598  0.00  0.00    +0.000 A 
ATOM     26  C   UNL     1       1.084   8.950  19.933  0.00  0.00    +0.000 A 
ATOM     27  C   UNL     1       1.711   7.785  20.387  0.00  0.00    +0.000 A 
ATOM     28  C   UNL     1       2.481   6.999  19.517  0.00  0.00    +0.000 A 
ATOM     29  C   UNL     1       2.634   7.424  18.191  0.00  0.00    +0.000 A 
ATOM     30  C   UNL     1       2.010   8.587  17.737  0.00  0.00    +0.000 A 
BRANCH  28  31
ATOM     31  C   UNL     1       3.105   5.706  20.011  0.00  0.00    +0.000 C 
ATOM     32  C   UNL     1       2.080   4.840  20.750  0.00  0.00    +0.000 C 
ATOM     33  C   UNL     1       3.761   4.920  18.874  0.00  0.00    +0.000 C 
ENDBRANCH  28  31
ENDBRANCH  13  25
TORSDOF 4
ENDMDL
MODEL 5
REMARK VINA RESULT:      -6.9      0.777      1.442
REMARK  Name = 
REMARK  9 active torsions:
REMARK  status: ('A' for Active; 'I' for Inactive)
REMARK    1  A    between atoms: C_1  and  C_2
REMARK    2  A    between atoms: C_2  and  C_3
REMARK    3  A    between atoms: C_2  and  C_4
REMARK    4  A    between atoms: C_7  and  C_8
REMARK    5  A    between atoms: N_11  and  C_12
REMARK    6  A    between atoms: C_20  and  C_21
REMARK    7  A    between atoms: C_24  and  C_25
REMARK    8  A    between atoms: C_25  and  C_26
REMARK    9  A    between atoms: C_25  and  C_27
REMARK                            x       y       z     vdW  Elec       q    Type
REMARK                         _______ _______ _______ _____ _____    ______ ____
ROOT
ATOM      1  C   UNL     1       1.344  10.310  19.682  0.00  0.00    +0.000 C 
ATOM      2  C   UNL     1       0.097  10.809  19.528  0.00  0.00    +0.000 C 
ATOM      3  C   UNL     1      -1.053   9.982  18.959  0.00  0.00    +0.000 C 
ATOM      4  N   UNL     1      -1.891  10.758  18.032  0.00  0.00    +0.000 NA
ATOM      5  C   UNL     1      -2.950   9.916  17.474  0.00  0.00    +0.000 C 
ATOM      6  C   UNL     1      -2.476  11.909  18.727  0.00  0.00    +0.000 C 
ATOM      7  C   UNL     1      -1.479  12.685  19.546  0.00  0.00    +0.000 C 
ATOM      8  C   UNL     1      -0.284  12.178  19.896  0.00  0.00    +0.000 C 
ATOM      9  N   UNL     1       0.550  12.944  20.674  0.00  0.00    +0.000 N 
ATOM     10  C   UNL     1       0.292  14.219  21.066  0.00  0.00    +0.000 C 
ATOM     11  S   UNL     1       1.367  15.069  22.007  0.00  0.00    +0.000 S 
ATOM     12  N   UNL     1      -0.872  14.777  20.657  0.00  0.00    +0.000 N 
ATOM     13  C   UNL     1      -1.933  14.054  19.991  0.00  0.00    +0.000 C 
ATOM     14  H   UNL     1       1.429  12.563  20.995  0.00  0.00    +0.000 HD
ATOM     15  H   UNL     1      -1.066  15.712  20.991  0.00  0.00    +0.000 HD
ENDROOT
BRANCH   1  19
ATOM     16  C   UNL     1       2.337   6.250  18.719  0.00  0.00    +0.000 A 
ATOM     17  C   UNL     1       2.397   7.257  17.742  0.00  0.00    +0.000 A 
ATOM     18  C   UNL     1       2.092   8.584  18.059  0.00  0.00    +0.000 A 
ATOM     19  C   UNL     1       1.722   8.928  19.361  0.00  0.00    +0.000 A 
ATOM     20  C   UNL     1       1.685   7.940  20.347  0.00  0.00    +0.000 A 
ATOM     21  C   UNL     1       1.993   6.614  20.029  0.00  0.00    +0.000 A 
BRANCH  16  23
ATOM     22  C   UNL     1       1.464   4.096  17.816  0.00  0.00    +0.000 C 
ATOM     23  C   UNL     1       2.701   4.822  18.349  0.00  0.00    +0.000 C 
ATOM     24  C   UNL     1       3.858   4.715  17.349  0.00  0.00    +0.000 C 
ENDBRANCH  16  23
ENDBRANCH   1  19
BRANCH  13  25
ATOM     25  C   UNL     1      -3.161  13.996  20.884  0.00  0.00    +0.000 A 
ATOM     26  C   UNL     1      -4.166  14.967  20.785  0.00  0.00    +0.000 A 
ATOM     27  C   UNL     1      -5.333  14.866  21.549  0.00  0.00    +0.000 A 
ATOM     28  C   UNL     1      -5.523  13.792  22.431  0.00  0.00    +0.000 A 
ATOM     29  C   UNL     1      -4.504  12.838  22.552  0.00  0.00    +0.000 A 
ATOM     30  C   UNL     1      -3.339  12.938  21.791  0.00  0.00    +0.000 A 
BRANCH  28  31
ATOM     31  C   UNL     1      -6.822  13.665  23.208  0.00  0.00    +0.000 C 
ATOM     32  C   UNL     1      -6.735  12.552  24.257  0.00  0.00    +0.000 C 
ATOM     33  C   UNL     1      -7.229  14.991  23.854  0.00  0.00    +0.000 C 
ENDBRANCH  28  31
ENDBRANCH  13  25
TORSDOF 4
ENDMDL
MODEL 6
REMARK VINA RESULT:      -6.9      3.213      5.005
REMARK  Name = 
REMARK  9 active torsions:
REMARK  status: ('A' for Active; 'I' for Inactive)
REMARK    1  A    between atoms: C_1  and  C_2
REMARK    2  A    between atoms: C_2  and  C_3
REMARK    3  A    between atoms: C_2  and  C_4
REMARK    4  A    between atoms: C_7  and  C_8
REMARK    5  A    between atoms: N_11  and  C_12
REMARK    6  A    between atoms: C_20  and  C_21
REMARK    7  A    between atoms: C_24  and  C_25
REMARK    8  A    between atoms: C_25  and  C_26
REMARK    9  A    between atoms: C_25  and  C_27
REMARK                            x       y       z     vdW  Elec       q    Type
REMARK                         _______ _______ _______ _____ _____    ______ ____
ROOT
ATOM      1  C   UNL     1       1.239   8.140  17.785  0.00  0.00    +0.000 C 
ATOM      2  C   UNL     1       0.825   9.025  18.720  0.00  0.00    +0.000 C 
ATOM      3  C   UNL     1       1.576   9.245  20.031  0.00  0.00    +0.000 C 
ATOM      4  N   UNL     1       0.666   9.389  21.177  0.00  0.00    +0.000 NA
ATOM      5  C   UNL     1       1.426   9.549  22.416  0.00  0.00    +0.000 C 
ATOM      6  C   UNL     1      -0.219  10.540  20.976  0.00  0.00    +0.000 C 
ATOM      7  C   UNL     1      -0.845  10.584  19.607  0.00  0.00    +0.000 C 
ATOM      8  C   UNL     1      -0.370   9.866  18.574  0.00  0.00    +0.000 C 
ATOM      9  N   UNL     1      -0.983   9.992  17.351  0.00  0.00    +0.000 N 
ATOM     10  C   UNL     1      -2.090  10.740  17.112  0.00  0.00    +0.000 C 
ATOM     11  S   UNL     1      -2.764  10.830  15.595  0.00  0.00    +0.000 S 
ATOM     12  N   UNL     1      -2.633  11.409  18.157  0.00  0.00    +0.000 N 
ATOM     13  C   UNL     1      -2.014  11.527  19.459  0.00  0.00    +0.000 C 
ATOM     14  H   UNL     1      -0.609   9.505  16.549  0.00  0.00    +0.000 HD
ATOM     15  H   UNL     1      -3.433  11.993  17.953  0.00  0.00    +0.000 HD
ENDROOT
BRANCH   1  19
ATOM     16  C   UNL     1       4.829   5.834  18.223  0.00  0.00    +0.000 A 
ATOM     17  C   UNL     1       3.625   5.409  18.806  0.00  0.00    +0.000 A 
ATOM     18  C   UNL     1       2.449   6.150  18.648  0.00  0.00    +0.000 A 
ATOM     19  C   UNL     1       2.457   7.330  17.902  0.00  0.00    +0.000 A 
ATOM     20  C   UNL     1       3.643   7.749  17.295  0.00  0.00    +0.000 A 
ATOM     21  C   UNL     1       4.817   7.005  17.451  0.00  0.00    +0.000 A 
BRANCH  16  23
ATOM     22  C   UNL     1       6.570   4.515  17.021  0.00  0.00    +0.000 C 
ATOM     23  C   UNL     1       6.083   4.993  18.390  0.00  0.00    +0.000 C 
ATOM     24  C   UNL     1       7.213   5.707  19.141  0.00  0.00    +0.000 C 
ENDBRANCH  16  23
ENDBRANCH   1  19
BRANCH  13  25
ATOM     25  C   UNL     1      -1.628  12.973  19.721  0.00  0.00    +0.000 A 
ATOM     26  C   UNL     1      -2.239  13.703  20.750  0.00  0.00    +0.000 A 
ATOM     27  C   UNL     1      -1.824  15.006  21.042  0.00  0.00    +0.000 A 
ATOM     28  C   UNL     1      -0.790  15.611  20.314  0.00  0.00    +0.000 A 
ATOM     29  C   UNL     1      -0.200  14.892  19.266  0.00  0.00    +0.000 A 
ATOM     30  C   UNL     1      -0.614  13.592  18.972  0.00  0.00    +0.000 A 
BRANCH  28  31
ATOM     31  C   UNL     1      -0.312  17.004  20.684  0.00  0.00    +0.000 C 
ATOM     32  C   UNL     1       1.110  17.258  20.174  0.00  0.00    +0.000 C 
ATOM     33  C   UNL     1      -1.271  18.087  20.183  0.00  0.00    +0.000 C 
ENDBRANCH  28  31
ENDBRANCH  13  25
TORSDOF 4
ENDMDL
MODEL 7
REMARK VINA RESULT:      -6.9      0.643      1.521
REMARK  Name = 
REMARK  9 active torsions:
REMARK  status: ('A' for Active; 'I' for Inactive)
REMARK    1  A    between atoms: C_1  and  C_2
REMARK    2  A    between atoms: C_2  and  C_3
REMARK    3  A    between atoms: C_2  and  C_4
REMARK    4  A    between atoms: C_7  and  C_8
REMARK    5  A    between atoms: N_11  and  C_12
REMARK    6  A    between atoms: C_20  and  C_21
REMARK    7  A    between atoms: C_24  and  C_25
REMARK    8  A    between atoms: C_25  and  C_26
REMARK    9  A    between atoms: C_25  and  C_27
REMARK                            x       y       z     vdW  Elec       q    Type
REMARK                         _______ _______ _______ _____ _____    ______ ____
ROOT
ATOM      1  C   UNL     1       0.842  10.556  19.788  0.00  0.00    +0.000 C 
ATOM      2  C   UNL     1      -0.438  10.907  19.533  0.00  0.00    +0.000 C 
ATOM      3  C   UNL     1      -1.424   9.968  18.845  0.00  0.00    +0.000 C 
ATOM      4  N   UNL     1      -2.268  10.668  17.864  0.00  0.00    +0.000 NA
ATOM      5  C   UNL     1      -3.163   9.724  17.194  0.00  0.00    +0.000 C 
ATOM      6  C   UNL     1      -3.047  11.716  18.528  0.00  0.00    +0.000 C 
ATOM      7  C   UNL     1      -2.227  12.579  19.451  0.00  0.00    +0.000 C 
ATOM      8  C   UNL     1      -1.014  12.208  19.896  0.00  0.00    +0.000 C 
ATOM      9  N   UNL     1      -0.351  13.042  20.763  0.00  0.00    +0.000 N 
ATOM     10  C   UNL     1      -0.795  14.263  21.158  0.00  0.00    +0.000 C 
ATOM     11  S   UNL     1       0.081  15.204  22.211  0.00  0.00    +0.000 S 
ATOM     12  N   UNL     1      -1.979  14.690  20.659  0.00  0.00    +0.000 N 
ATOM     13  C   UNL     1      -2.882  13.868  19.884  0.00  0.00    +0.000 C 
ATOM     14  H   UNL     1       0.537  12.758  21.153  0.00  0.00    +0.000 HD
ATOM     15  H   UNL     1      -2.314  15.584  20.994  0.00  0.00    +0.000 HD
ENDROOT
BRANCH   1  19
ATOM     16  C   UNL     1       2.404   6.676  18.838  0.00  0.00    +0.000 A 
ATOM     17  C   UNL     1       2.327   7.680  17.859  0.00  0.00    +0.000 A 
ATOM     18  C   UNL     1       1.836   8.951  18.173  0.00  0.00    +0.000 A 
ATOM     19  C   UNL     1       1.414   9.241  19.471  0.00  0.00    +0.000 A 
ATOM     20  C   UNL     1       1.511   8.259  20.459  0.00  0.00    +0.000 A 
ATOM     21  C   UNL     1       2.004   6.989  20.145  0.00  0.00    +0.000 A 
BRANCH  16  23
ATOM     22  C   UNL     1       3.236   4.508  19.746  0.00  0.00    +0.000 C 
ATOM     23  C   UNL     1       2.967   5.312  18.473  0.00  0.00    +0.000 C 
ATOM     24  C   UNL     1       2.079   4.512  17.511  0.00  0.00    +0.000 C 
ENDBRANCH  16  23
ENDBRANCH   1  19
BRANCH  13  25
ATOM     25  C   UNL     1      -4.166  13.633  20.661  0.00  0.00    +0.000 A 
ATOM     26  C   UNL     1      -4.186  12.778  21.771  0.00  0.00    +0.000 A 
ATOM     27  C   UNL     1      -5.349  12.627  22.534  0.00  0.00    +0.000 A 
ATOM     28  C   UNL     1      -6.519  13.328  22.206  0.00  0.00    +0.000 A 
ATOM     29  C   UNL     1      -6.506  14.160  21.078  0.00  0.00    +0.000 A 
ATOM     30  C   UNL     1      -5.347  14.310  20.316  0.00  0.00    +0.000 A 
BRANCH  28  31
ATOM     31  C   UNL     1      -7.754  13.199  23.080  0.00  0.00    +0.000 C 
ATOM     32  C   UNL     1      -7.915  11.770  23.607  0.00  0.00    +0.000 C 
ATOM     33  C   UNL     1      -7.744  14.206  24.232  0.00  0.00    +0.000 C 
ENDBRANCH  28  31
ENDBRANCH  13  25
TORSDOF 4
ENDMDL
MODEL 8
REMARK VINA RESULT:      -6.8      2.869      9.433
REMARK  Name = 
REMARK  9 active torsions:
REMARK  status: ('A' for Active; 'I' for Inactive)
REMARK    1  A    between atoms: C_1  and  C_2
REMARK    2  A    between atoms: C_2  and  C_3
REMARK    3  A    between atoms: C_2  and  C_4
REMARK    4  A    between atoms: C_7  and  C_8
REMARK    5  A    between atoms: N_11  and  C_12
REMARK    6  A    between atoms: C_20  and  C_21
REMARK    7  A    between atoms: C_24  and  C_25
REMARK    8  A    between atoms: C_25  and  C_26
REMARK    9  A    between atoms: C_25  and  C_27
REMARK                            x       y       z     vdW  Elec       q    Type
REMARK                         _______ _______ _______ _____ _____    ______ ____
ROOT
ATOM      1  C   UNL     1      -2.034  13.849  20.755  0.00  0.00    +0.000 C 
ATOM      2  C   UNL     1      -0.886  13.208  20.439  0.00  0.00    +0.000 C 
ATOM      3  C   UNL     1       0.442  13.520  21.124  0.00  0.00    +0.000 C 
ATOM      4  N   UNL     1       1.566  13.542  20.175  0.00  0.00    +0.000 NA
ATOM      5  C   UNL     1       2.809  13.891  20.864  0.00  0.00    +0.000 C 
ATOM      6  C   UNL     1       1.700  12.236  19.524  0.00  0.00    +0.000 C 
ATOM      7  C   UNL     1       0.396  11.684  19.012  0.00  0.00    +0.000 C 
ATOM      8  C   UNL     1      -0.795  12.151  19.424  0.00  0.00    +0.000 C 
ATOM      9  N   UNL     1      -1.935  11.565  18.930  0.00  0.00    +0.000 N 
ATOM     10  C   UNL     1      -1.959  10.585  17.991  0.00  0.00    +0.000 C 
ATOM     11  S   UNL     1      -3.393   9.938  17.451  0.00  0.00    +0.000 S 
ATOM     12  N   UNL     1      -0.772  10.154  17.504  0.00  0.00    +0.000 N 
ATOM     13  C   UNL     1       0.516  10.535  18.041  0.00  0.00    +0.000 C 
ATOM     14  H   UNL     1      -2.840  11.863  19.267  0.00  0.00    +0.000 HD
ATOM     15  H   UNL     1      -0.806   9.396  16.835  0.00  0.00    +0.000 HD
ENDROOT
BRANCH   1  19
ATOM     16  C   UNL     1      -2.462  16.867  23.772  0.00  0.00    +0.000 A 
ATOM     17  C   UNL     1      -2.796  15.530  24.040  0.00  0.00    +0.000 A 
ATOM     18  C   UNL     1      -2.639  14.542  23.063  0.00  0.00    +0.000 A 
ATOM     19  C   UNL     1      -2.143  14.873  21.800  0.00  0.00    +0.000 A 
ATOM     20  C   UNL     1      -1.782  16.195  21.532  0.00  0.00    +0.000 A 
ATOM     21  C   UNL     1      -1.937  17.182  22.510  0.00  0.00    +0.000 A 
BRANCH  16  23
ATOM     22  C   UNL     1      -4.055  17.901  25.387  0.00  0.00    +0.000 C 
ATOM     23  C   UNL     1      -2.618  17.914  24.862  0.00  0.00    +0.000 C 
ATOM     24  C   UNL     1      -1.623  17.759  26.018  0.00  0.00    +0.000 C 
ENDBRANCH  16  23
ENDBRANCH   1  19
BRANCH  13  25
ATOM     25  C   UNL     1       1.199   9.325  18.656  0.00  0.00    +0.000 A 
ATOM     26  C   UNL     1       0.991   8.992  20.002  0.00  0.00    +0.000 A 
ATOM     27  C   UNL     1       1.555   7.832  20.544  0.00  0.00    +0.000 A 
ATOM     28  C   UNL     1       2.340   6.978  19.755  0.00  0.00    +0.000 A 
ATOM     29  C   UNL     1       2.571   7.328  18.418  0.00  0.00    +0.000 A 
ATOM     30  C   UNL     1       2.010   8.485  17.876  0.00  0.00    +0.000 A 
BRANCH  28  31
ATOM     31  C   UNL     1       2.895   5.693  20.344  0.00  0.00    +0.000 C 
ATOM     32  C   UNL     1       1.774   4.701  20.668  0.00  0.00    +0.000 C 
ATOM     33  C   UNL     1       3.940   5.052  19.428  0.00  0.00    +0.000 C 
ENDBRANCH  28  31
ENDBRANCH  13  25
TORSDOF 4
ENDMDL
MODEL 9
REMARK VINA RESULT:      -6.8      1.472      2.051
REMARK  Name = 
REMARK  9 active torsions:
REMARK  status: ('A' for Active; 'I' for Inactive)
REMARK    1  A    between atoms: C_1  and  C_2
REMARK    2  A    between atoms: C_2  and  C_3
REMARK    3  A    between atoms: C_2  and  C_4
REMARK    4  A    between atoms: C_7  and  C_8
REMARK    5  A    between atoms: N_11  and  C_12
REMARK    6  A    between atoms: C_20  and  C_21
REMARK    7  A    between atoms: C_24  and  C_25
REMARK    8  A    between atoms: C_25  and  C_26
REMARK    9  A    between atoms: C_25  and  C_27
REMARK                            x       y       z     vdW  Elec       q    Type
REMARK                         _______ _______ _______ _____ _____    ______ ____
ROOT
ATOM      1  C   UNL     1       1.678   9.916  19.726  0.00  0.00    +0.000 C 
ATOM      2  C   UNL     1       0.511  10.592  19.625  0.00  0.00    +0.000 C 
ATOM      3  C   UNL     1      -0.799   9.913  19.236  0.00  0.00    +0.000 C 
ATOM      4  N   UNL     1      -1.596  10.731  18.310  0.00  0.00    +0.000 NA
ATOM      5  C   UNL     1      -2.818  10.023  17.926  0.00  0.00    +0.000 C 
ATOM      6  C   UNL     1      -1.932  12.014  18.932  0.00  0.00    +0.000 C 
ATOM      7  C   UNL     1      -0.755  12.689  19.587  0.00  0.00    +0.000 C 
ATOM      8  C   UNL     1       0.378  12.031  19.886  0.00  0.00    +0.000 C 
ATOM      9  N   UNL     1       1.388  12.718  20.514  0.00  0.00    +0.000 N 
ATOM     10  C   UNL     1       1.365  14.045  20.797  0.00  0.00    +0.000 C 
ATOM     11  S   UNL     1       2.640  14.792  21.559  0.00  0.00    +0.000 S 
ATOM     12  N   UNL     1       0.264  14.745  20.432  0.00  0.00    +0.000 N 
ATOM     13  C   UNL     1      -0.953  14.146  19.930  0.00  0.00    +0.000 C 
ATOM     14  H   UNL     1       2.227  12.230  20.798  0.00  0.00    +0.000 HD
ATOM     15  H   UNL     1       0.246  15.723  20.687  0.00  0.00    +0.000 HD
ENDROOT
BRANCH   1  19
ATOM     16  C   UNL     1       2.181   5.698  19.133  0.00  0.00    +0.000 A 
ATOM     17  C   UNL     1       1.761   6.205  20.373  0.00  0.00    +0.000 A 
ATOM     18  C   UNL     1       1.577   7.579  20.562  0.00  0.00    +0.000 A 
ATOM     19  C   UNL     1       1.811   8.470  19.513  0.00  0.00    +0.000 A 
ATOM     20  C   UNL     1       2.204   7.974  18.267  0.00  0.00    +0.000 A 
ATOM     21  C   UNL     1       2.384   6.601  18.079  0.00  0.00    +0.000 A 
BRANCH  16  23
ATOM     22  C   UNL     1       1.157   3.469  19.579  0.00  0.00    +0.000 C 
ATOM     23  C   UNL     1       2.345   4.198  18.951  0.00  0.00    +0.000 C 
ATOM     24  C   UNL     1       2.528   3.768  17.491  0.00  0.00    +0.000 C 
ENDBRANCH  16  23
ENDBRANCH   1  19
BRANCH  13  25
ATOM     25  C   UNL     1      -2.084  14.359  20.922  0.00  0.00    +0.000 A 
ATOM     26  C   UNL     1      -2.225  13.524  22.039  0.00  0.00    +0.000 A 
ATOM     27  C   UNL     1      -3.217  13.773  22.993  0.00  0.00    +0.000 A 
ATOM     28  C   UNL     1      -4.091  14.861  22.855  0.00  0.00    +0.000 A 
ATOM     29  C   UNL     1      -3.968  15.677  21.722  0.00  0.00    +0.000 A 
ATOM     30  C   UNL     1      -2.980  15.430  20.768  0.00  0.00    +0.000 A 
BRANCH  28  31
ATOM     31  C   UNL     1      -5.122  15.151  23.931  0.00  0.00    +0.000 C 
ATOM     32  C   UNL     1      -4.934  16.554  24.517  0.00  0.00    +0.000 C 
ATOM     33  C   UNL     1      -6.551  14.964  23.415  0.00  0.00    +0.000 C 
ENDBRANCH  28  31
ENDBRANCH  13  25
TORSDOF 4
ENDMDL
