MODEL 1
REMARK VINA RESULT:      -7.8      0.000      0.000
REMARK  Name = 
REMARK  7 active torsions:
REMARK  status: ('A' for Active; 'I' for Inactive)
REMARK    1  A    between atoms: C_1  and  C_2
REMARK    2  A    between atoms: C_2  and  C_3
REMARK    3  A    between atoms: C_3  and  C_4
REMARK    4  A    between atoms: N_5  and  N_6
REMARK    5  A    between atoms: C_9  and  C_10
REMARK    6  A    between atoms: C_16  and  O_17
REMARK    7  A    between atoms: O_17  and  C_18
REMARK                            x       y       z     vdW  Elec       q    Type
REMARK                         _______ _______ _______ _____ _____    ______ ____
ROOT
ATOM      1  C   UNL     1       1.863   6.898  20.090  0.00  0.00    +0.000 A 
ATOM      2  C   UNL     1       1.214   7.286  21.202  0.00  0.00    +0.000 A 
ATOM      3  C   UNL     1       0.720   8.653  21.348  0.00  0.00    +0.000 A 
ATOM      4  C   UNL     1       0.009   9.047  22.481  0.00  0.00    +0.000 A 
ATOM      5  C   UNL     1      -0.411  10.375  22.613  0.00  0.00    +0.000 A 
ATOM      6  C   UNL     1      -0.110  11.303  21.617  0.00  0.00    +0.000 A 
ATOM      7  C   UNL     1       0.602  10.930  20.465  0.00  0.00    +0.000 A 
ATOM      8  C   UNL     1       0.999   9.595  20.354  0.00  0.00    +0.000 A 
ATOM      9  O   UNL     1       1.673   9.160  19.189  0.00  0.00    +0.000 OA
ATOM     10  C   UNL     1       2.049   7.843  18.961  0.00  0.00    +0.000 A 
ATOM     11  O   UNL     1       2.484   7.500  17.866  0.00  0.00    +0.000 OA
ENDROOT
BRANCH   1  15
ATOM     12  N   UNL     1       5.330   3.741  19.243  0.00  0.00    +0.000 N 
ATOM     13  C   UNL     1       4.089   4.212  19.518  0.00  0.00    +0.000 A 
ATOM     14  N   UNL     1       3.759   5.481  19.674  0.00  0.00    +0.000 NA
ATOM     15  C   UNL     1       2.413   5.593  19.932  0.00  0.00    +0.000 A 
ATOM     16  C   UNL     1       1.701   4.417  19.978  0.00  0.00    +0.000 A 
ATOM     17  S   UNL     1       2.773   3.104  19.719  0.00  0.00    +0.000 S 
ATOM     18  H   UNL     1       5.549   2.822  19.619  0.00  0.00    +0.000 HD
BRANCH  12  21
ATOM     19  C   UNL     1       6.266   4.640  17.356  0.00  0.00    +0.000 C 
ATOM     20  C   UNL     1       5.244   3.992  16.451  0.00  0.00    +0.000 C 
ATOM     21  N   UNL     1       6.298   4.490  18.647  0.00  0.00    +0.000 NA
BRANCH  19  23
ATOM     22  C   UNL     1       7.384   6.895  17.381  0.00  0.00    +0.000 C 
ATOM     23  C   UNL     1       7.323   5.529  16.724  0.00  0.00    +0.000 C 
ENDBRANCH  19  23
ENDBRANCH  12  21
ENDBRANCH   1  15
BRANCH   7  24
ATOM     24  O   UNL     1       0.808  11.963  19.598  0.00  0.00    +0.000 OA
ATOM     25  C   UNL     1      -0.303  12.474  18.869  0.00  0.00    +0.000 C 
ENDBRANCH   7  24
TORSDOF 4
ENDMDL
MODEL 2
REMARK VINA RESULT:      -7.8      1.044      1.204
REMARK  Name = 
REMARK  7 active torsions:
REMARK  status: ('A' for Active; 'I' for Inactive)
REMARK    1  A    between atoms: C_1  and  C_2
REMARK    2  A    between atoms: C_2  and  C_3
REMARK    3  A    between atoms: C_3  and  C_4
REMARK    4  A    between atoms: N_5  and  N_6
REMARK    5  A    between atoms: C_9  and  C_10
REMARK    6  A    between atoms: C_16  and  O_17
REMARK    7  A    between atoms: O_17  and  C_18
REMARK                            x       y       z     vdW  Elec       q    Type
REMARK                         _______ _______ _______ _____ _____    ______ ____
ROOT
ATOM      1  C   UNL     1       1.907   7.264  19.753  0.00  0.00    +0.000 A 
ATOM      2  C   UNL     1       1.287   7.390  20.940  0.00  0.00    +0.000 A 
ATOM      3  C   UNL     1       0.650   8.646  21.329  0.00  0.00    +0.000 A 
ATOM      4  C   UNL     1      -0.031   8.766  22.539  0.00  0.00    +0.000 A 
ATOM      5  C   UNL     1      -0.591   9.995  22.905  0.00  0.00    +0.000 A 
ATOM      6  C   UNL     1      -0.459  11.098  22.063  0.00  0.00    +0.000 A 
ATOM      7  C   UNL     1       0.220  11.002  20.837  0.00  0.00    +0.000 A 
ATOM      8  C   UNL     1       0.759   9.760  20.491  0.00  0.00    +0.000 A 
ATOM      9  O   UNL     1       1.406   9.600  19.244  0.00  0.00    +0.000 OA
ATOM     10  C   UNL     1       1.914   8.392  18.787  0.00  0.00    +0.000 A 
ATOM     11  O   UNL     1       2.319   8.282  17.633  0.00  0.00    +0.000 OA
ENDROOT
BRANCH   1  15
ATOM     12  N   UNL     1       5.707   4.438  19.230  0.00  0.00    +0.000 N 
ATOM     13  C   UNL     1       4.417   4.848  19.155  0.00  0.00    +0.000 A 
ATOM     14  N   UNL     1       3.939   5.988  19.618  0.00  0.00    +0.000 NA
ATOM     15  C   UNL     1       2.592   6.079  19.360  0.00  0.00    +0.000 A 
ATOM     16  C   UNL     1       2.025   5.012  18.700  0.00  0.00    +0.000 A 
ATOM     17  S   UNL     1       3.229   3.825  18.419  0.00  0.00    +0.000 S 
ATOM     18  H   UNL     1       5.849   3.434  19.302  0.00  0.00    +0.000 HD
BRANCH  12  21
ATOM     19  C   UNL     1       7.134   5.989  18.335  0.00  0.00    +0.000 C 
ATOM     20  C   UNL     1       6.514   5.877  16.962  0.00  0.00    +0.000 C 
ATOM     21  N   UNL     1       6.757   5.294  19.366  0.00  0.00    +0.000 NA
BRANCH  19  23
ATOM     22  C   UNL     1       8.004   8.295  17.823  0.00  0.00    +0.000 C 
ATOM     23  C   UNL     1       8.269   6.980  18.531  0.00  0.00    +0.000 C 
ENDBRANCH  19  23
ENDBRANCH  12  21
ENDBRANCH   1  15
BRANCH   7  24
ATOM     24  O   UNL     1       0.253  12.177  20.143  0.00  0.00    +0.000 OA
ATOM     25  C   UNL     1       0.974  13.274  20.693  0.00  0.00    +0.000 C 
ENDBRANCH   7  24
TORSDOF 4
ENDMDL
MODEL 3
REMARK VINA RESULT:      -7.6      2.199      2.952
REMARK  Name = 
REMARK  7 active torsions:
REMARK  status: ('A' for Active; 'I' for Inactive)
REMARK    1  A    between atoms: C_1  and  C_2
REMARK    2  A    between atoms: C_2  and  C_3
REMARK    3  A    between atoms: C_3  and  C_4
REMARK    4  A    between atoms: N_5  and  N_6
REMARK    5  A    between atoms: C_9  and  C_10
REMARK    6  A    between atoms: C_16  and  O_17
REMARK    7  A    between atoms: O_17  and  C_18
REMARK                            x       y       z     vdW  Elec       q    Type
REMARK                         _______ _______ _______ _____ _____    ______ ____
ROOT
ATOM      1  C   UNL     1       2.440   6.258  18.731  0.00  0.00    +0.000 A 
ATOM      2  C   UNL     1       2.331   7.419  18.061  0.00  0.00    +0.000 A 
ATOM      3  C   UNL     1       1.854   8.631  18.723  0.00  0.00    +0.000 A 
ATOM      4  C   UNL     1       1.782   9.845  18.043  0.00  0.00    +0.000 A 
ATOM      5  C   UNL     1       1.276  10.978  18.690  0.00  0.00    +0.000 A 
ATOM      6  C   UNL     1       0.837  10.887  20.009  0.00  0.00    +0.000 A 
ATOM      7  C   UNL     1       0.902   9.676  20.717  0.00  0.00    +0.000 A 
ATOM      8  C   UNL     1       1.423   8.564  20.051  0.00  0.00    +0.000 A 
ATOM      9  O   UNL     1       1.556   7.335  20.738  0.00  0.00    +0.000 OA
ATOM     10  C   UNL     1       2.120   6.196  20.180  0.00  0.00    +0.000 A 
ATOM     11  O   UNL     1       2.355   5.211  20.875  0.00  0.00    +0.000 OA
ENDROOT
BRANCH   1  15
ATOM     12  N   UNL     1       5.457   3.359  16.451  0.00  0.00    +0.000 N 
ATOM     13  C   UNL     1       4.313   3.779  17.045  0.00  0.00    +0.000 A 
ATOM     14  N   UNL     1       4.124   4.953  17.620  0.00  0.00    +0.000 NA
ATOM     15  C   UNL     1       2.843   5.042  18.110  0.00  0.00    +0.000 A 
ATOM     16  C   UNL     1       2.040   3.940  17.920  0.00  0.00    +0.000 A 
ATOM     17  S   UNL     1       2.943   2.722  17.118  0.00  0.00    +0.000 S 
ATOM     18  H   UNL     1       5.641   2.361  16.499  0.00  0.00    +0.000 HD
BRANCH  12  21
ATOM     19  C   UNL     1       6.461   4.393  14.671  0.00  0.00    +0.000 C 
ATOM     20  C   UNL     1       5.585   3.679  13.667  0.00  0.00    +0.000 C 
ATOM     21  N   UNL     1       6.397   4.211  15.956  0.00  0.00    +0.000 NA
BRANCH  19  23
ATOM     22  C   UNL     1       7.795   5.173  12.683  0.00  0.00    +0.000 C 
ATOM     23  C   UNL     1       7.480   5.393  14.151  0.00  0.00    +0.000 C 
ENDBRANCH  19  23
ENDBRANCH  12  21
ENDBRANCH   1  15
BRANCH   7  24
ATOM     24  O   UNL     1       0.430   9.769  21.995  0.00  0.00    +0.000 OA
ATOM     25  C   UNL     1      -0.563  10.746  22.286  0.00  0.00    +0.000 C 
ENDBRANCH   7  24
TORSDOF 4
ENDMDL
MODEL 4
REMARK VINA RESULT:      -7.5      0.941      1.292
REMARK  Name = 
REMARK  7 active torsions:
REMARK  status: ('A' for Active; 'I' for Inactive)
REMARK    1  A    between atoms: C_1  and  C_2
REMARK    2  A    between atoms: C_2  and  C_3
REMARK    3  A    between atoms: C_3  and  C_4
REMARK    4  A    between atoms: N_5  and  N_6
REMARK    5  A    between atoms: C_9  and  C_10
REMARK    6  A    between atoms: C_16  and  O_17
REMARK    7  A    between atoms: O_17  and  C_18
REMARK                            x       y       z     vdW  Elec       q    Type
REMARK                         _______ _______ _______ _____ _____    ______ ____
ROOT
ATOM      1  C   UNL     1       2.064   6.853  19.943  0.00  0.00    +0.000 A 
ATOM      2  C   UNL     1       1.378   7.256  21.027  0.00  0.00    +0.000 A 
ATOM      3  C   UNL     1       0.806   8.598  21.101  0.00  0.00    +0.000 A 
ATOM      4  C   UNL     1       0.056   9.004  22.204  0.00  0.00    +0.000 A 
ATOM      5  C   UNL     1      -0.439  10.311  22.268  0.00  0.00    +0.000 A 
ATOM      6  C   UNL     1      -0.174  11.207  21.233  0.00  0.00    +0.000 A 
ATOM      7  C   UNL     1       0.576  10.821  20.110  0.00  0.00    +0.000 A 
ATOM      8  C   UNL     1       1.048   9.507  20.067  0.00  0.00    +0.000 A 
ATOM      9  O   UNL     1       1.764   9.056  18.933  0.00  0.00    +0.000 OA
ATOM     10  C   UNL     1       2.216   7.753  18.773  0.00  0.00    +0.000 A 
ATOM     11  O   UNL     1       2.687   7.385  17.701  0.00  0.00    +0.000 OA
ENDROOT
BRANCH   1  15
ATOM     12  N   UNL     1       5.020   3.603  18.097  0.00  0.00    +0.000 N 
ATOM     13  C   UNL     1       4.084   4.138  18.919  0.00  0.00    +0.000 A 
ATOM     14  N   UNL     1       3.642   5.382  18.884  0.00  0.00    +0.000 NA
ATOM     15  C   UNL     1       2.689   5.576  19.855  0.00  0.00    +0.000 A 
ATOM     16  C   UNL     1       2.393   4.487  20.644  0.00  0.00    +0.000 A 
ATOM     17  S   UNL     1       3.379   3.167  20.168  0.00  0.00    +0.000 S 
ATOM     18  H   UNL     1       5.599   2.872  18.502  0.00  0.00    +0.000 HD
BRANCH  12  21
ATOM     19  C   UNL     1       6.502   4.529  16.618  0.00  0.00    +0.000 C 
ATOM     20  C   UNL     1       7.615   4.564  17.640  0.00  0.00    +0.000 C 
ATOM     21  N   UNL     1       5.300   4.099  16.860  0.00  0.00    +0.000 NA
BRANCH  19  23
ATOM     22  C   UNL     1       6.264   4.081  14.152  0.00  0.00    +0.000 C 
ATOM     23  C   UNL     1       6.803   5.022  15.212  0.00  0.00    +0.000 C 
ENDBRANCH  19  23
ENDBRANCH  12  21
ENDBRANCH   1  15
BRANCH   7  24
ATOM     24  O   UNL     1       0.738  11.823  19.196  0.00  0.00    +0.000 OA
ATOM     25  C   UNL     1      -0.422  12.438  18.646  0.00  0.00    +0.000 C 
ENDBRANCH   7  24
TORSDOF 4
ENDMDL
MODEL 5
REMARK VINA RESULT:      -7.5      1.065      1.255
REMARK  Name = 
REMARK  7 active torsions:
REMARK  status: ('A' for Active; 'I' for Inactive)
REMARK    1  A    between atoms: C_1  and  C_2
REMARK    2  A    between atoms: C_2  and  C_3
REMARK    3  A    between atoms: C_3  and  C_4
REMARK    4  A    between atoms: N_5  and  N_6
REMARK    5  A    between atoms: C_9  and  C_10
REMARK    6  A    between atoms: C_16  and  O_17
REMARK    7  A    between atoms: O_17  and  C_18
REMARK                            x       y       z     vdW  Elec       q    Type
REMARK                         _______ _______ _______ _____ _____    ______ ____
ROOT
ATOM      1  C   UNL     1       1.570   7.468  20.339  0.00  0.00    +0.000 A 
ATOM      2  C   UNL     1       0.952   7.769  21.495  0.00  0.00    +0.000 A 
ATOM      3  C   UNL     1       0.353   9.084  21.710  0.00  0.00    +0.000 A 
ATOM      4  C   UNL     1      -0.327   9.383  22.889  0.00  0.00    +0.000 A 
ATOM      5  C   UNL     1      -0.850  10.666  23.085  0.00  0.00    +0.000 A 
ATOM      6  C   UNL     1      -0.682  11.644  22.105  0.00  0.00    +0.000 A 
ATOM      7  C   UNL     1      -0.004  11.365  20.907  0.00  0.00    +0.000 A 
ATOM      8  C   UNL     1       0.498  10.073  20.733  0.00  0.00    +0.000 A 
ATOM      9  O   UNL     1       1.143   9.729  19.522  0.00  0.00    +0.000 OA
ATOM     10  C   UNL     1       1.615   8.457  19.232  0.00  0.00    +0.000 A 
ATOM     11  O   UNL     1       2.019   8.183  18.106  0.00  0.00    +0.000 OA
ENDROOT
BRANCH   1  15
ATOM     12  N   UNL     1       5.048   4.632  18.737  0.00  0.00    +0.000 N 
ATOM     13  C   UNL     1       3.880   4.992  19.323  0.00  0.00    +0.000 A 
ATOM     14  N   UNL     1       3.445   6.228  19.489  0.00  0.00    +0.000 NA
ATOM     15  C   UNL     1       2.220   6.221  20.111  0.00  0.00    +0.000 A 
ATOM     16  C   UNL     1       1.705   4.984  20.430  0.00  0.00    +0.000 A 
ATOM     17  S   UNL     1       2.825   3.775  19.958  0.00  0.00    +0.000 S 
ATOM     18  H   UNL     1       5.478   3.782  19.091  0.00  0.00    +0.000 HD
BRANCH  12  21
ATOM     19  C   UNL     1       6.856   5.928  18.190  0.00  0.00    +0.000 C 
ATOM     20  C   UNL     1       7.493   5.743  19.548  0.00  0.00    +0.000 C 
ATOM     21  N   UNL     1       5.711   5.420  17.845  0.00  0.00    +0.000 NA
BRANCH  19  23
ATOM     22  C   UNL     1       7.886   8.160  17.645  0.00  0.00    +0.000 C 
ATOM     23  C   UNL     1       7.601   6.753  17.154  0.00  0.00    +0.000 C 
ENDBRANCH  19  23
ENDBRANCH  12  21
ENDBRANCH   1  15
BRANCH   7  24
ATOM     24  O   UNL     1       0.067  12.436  20.064  0.00  0.00    +0.000 OA
ATOM     25  C   UNL     1      -0.962  12.611  19.095  0.00  0.00    +0.000 C 
ENDBRANCH   7  24
TORSDOF 4
ENDMDL
MODEL 6
REMARK VINA RESULT:      -7.4      4.375      8.060
REMARK  Name = 
REMARK  7 active torsions:
REMARK  status: ('A' for Active; 'I' for Inactive)
REMARK    1  A    between atoms: C_1  and  C_2
REMARK    2  A    between atoms: C_2  and  C_3
REMARK    3  A    between atoms: C_3  and  C_4
REMARK    4  A    between atoms: N_5  and  N_6
REMARK    5  A    between atoms: C_9  and  C_10
REMARK    6  A    between atoms: C_16  and  O_17
REMARK    7  A    between atoms: O_17  and  C_18
REMARK                            x       y       z     vdW  Elec       q    Type
REMARK                         _______ _______ _______ _____ _____    ______ ____
ROOT
ATOM      1  C   UNL     1       1.176   8.965  19.543  0.00  0.00    +0.000 A 
ATOM      2  C   UNL     1       2.023   8.471  18.623  0.00  0.00    +0.000 A 
ATOM      3  C   UNL     1       2.610   7.142  18.776  0.00  0.00    +0.000 A 
ATOM      4  C   UNL     1       3.453   6.608  17.803  0.00  0.00    +0.000 A 
ATOM      5  C   UNL     1       4.038   5.352  17.999  0.00  0.00    +0.000 A 
ATOM      6  C   UNL     1       3.782   4.641  19.171  0.00  0.00    +0.000 A 
ATOM      7  C   UNL     1       2.933   5.156  20.165  0.00  0.00    +0.000 A 
ATOM      8  C   UNL     1       2.354   6.407  19.937  0.00  0.00    +0.000 A 
ATOM      9  O   UNL     1       1.452   6.944  20.885  0.00  0.00    +0.000 OA
ATOM     10  C   UNL     1       0.780   8.147  20.716  0.00  0.00    +0.000 A 
ATOM     11  O   UNL     1      -0.108   8.479  21.495  0.00  0.00    +0.000 OA
ENDROOT
BRANCH   1  15
ATOM     12  N   UNL     1      -1.801  12.320  17.934  0.00  0.00    +0.000 N 
ATOM     13  C   UNL     1      -0.791  11.763  18.646  0.00  0.00    +0.000 A 
ATOM     14  N   UNL     1      -0.441  10.490  18.627  0.00  0.00    +0.000 NA
ATOM     15  C   UNL     1       0.629  10.278  19.463  0.00  0.00    +0.000 A 
ATOM     16  C   UNL     1       1.108  11.383  20.131  0.00  0.00    +0.000 A 
ATOM     17  S   UNL     1       0.151  12.744  19.718  0.00  0.00    +0.000 S 
ATOM     18  H   UNL     1      -2.266  13.112  18.369  0.00  0.00    +0.000 HD
BRANCH  12  21
ATOM     19  C   UNL     1      -3.467  11.227  16.805  0.00  0.00    +0.000 C 
ATOM     20  C   UNL     1      -4.321  11.094  18.045  0.00  0.00    +0.000 C 
ATOM     21  N   UNL     1      -2.291  11.780  16.784  0.00  0.00    +0.000 NA
BRANCH  19  23
ATOM     22  C   UNL     1      -2.933  10.037  14.651  0.00  0.00    +0.000 C 
ATOM     23  C   UNL     1      -4.014  10.686  15.495  0.00  0.00    +0.000 C 
ENDBRANCH  19  23
ENDBRANCH  12  21
ENDBRANCH   1  15
BRANCH   7  24
ATOM     24  O   UNL     1       2.797   4.328  21.242  0.00  0.00    +0.000 OA
ATOM     25  C   UNL     1       1.734   3.382  21.244  0.00  0.00    +0.000 C 
ENDBRANCH   7  24
TORSDOF 4
ENDMDL
MODEL 7
REMARK VINA RESULT:      -7.4      4.091      7.897
REMARK  Name = 
REMARK  7 active torsions:
REMARK  status: ('A' for Active; 'I' for Inactive)
REMARK    1  A    between atoms: C_1  and  C_2
REMARK    2  A    between atoms: C_2  and  C_3
REMARK    3  A    between atoms: C_3  and  C_4
REMARK    4  A    between atoms: N_5  and  N_6
REMARK    5  A    between atoms: C_9  and  C_10
REMARK    6  A    between atoms: C_16  and  O_17
REMARK    7  A    between atoms: O_17  and  C_18
REMARK                            x       y       z     vdW  Elec       q    Type
REMARK                         _______ _______ _______ _____ _____    ______ ____
ROOT
ATOM      1  C   UNL     1       1.505   8.662  19.364  0.00  0.00    +0.000 A 
ATOM      2  C   UNL     1       1.598   7.538  20.096  0.00  0.00    +0.000 A 
ATOM      3  C   UNL     1       2.423   6.416  19.655  0.00  0.00    +0.000 A 
ATOM      4  C   UNL     1       2.557   5.268  20.433  0.00  0.00    +0.000 A 
ATOM      5  C   UNL     1       3.316   4.191  19.963  0.00  0.00    +0.000 A 
ATOM      6  C   UNL     1       3.930   4.266  18.713  0.00  0.00    +0.000 A 
ATOM      7  C   UNL     1       3.812   5.413  17.912  0.00  0.00    +0.000 A 
ATOM      8  C   UNL     1       3.058   6.478  18.411  0.00  0.00    +0.000 A 
ATOM      9  O   UNL     1       2.954   7.674  17.664  0.00  0.00    +0.000 OA
ATOM     10  C   UNL     1       2.281   8.805  18.107  0.00  0.00    +0.000 A 
ATOM     11  O   UNL     1       2.363   9.861  17.487  0.00  0.00    +0.000 OA
ENDROOT
BRANCH   1  15
ATOM     12  N   UNL     1      -2.110  11.713  18.793  0.00  0.00    +0.000 N 
ATOM     13  C   UNL     1      -1.030  11.126  19.364  0.00  0.00    +0.000 A 
ATOM     14  N   UNL     1      -0.386  10.071  18.900  0.00  0.00    +0.000 NA
ATOM     15  C   UNL     1       0.665   9.754  19.727  0.00  0.00    +0.000 A 
ATOM     16  C   UNL     1       0.836  10.558  20.831  0.00  0.00    +0.000 A 
ATOM     17  S   UNL     1      -0.399  11.748  20.852  0.00  0.00    +0.000 S 
ATOM     18  H   UNL     1      -2.769  12.146  19.433  0.00  0.00    +0.000 HD
BRANCH  12  21
ATOM     19  C   UNL     1      -3.573  11.155  17.122  0.00  0.00    +0.000 C 
ATOM     20  C   UNL     1      -4.626  10.686  18.099  0.00  0.00    +0.000 C 
ATOM     21  N   UNL     1      -2.405  11.607  17.467  0.00  0.00    +0.000 NA
BRANCH  19  23
ATOM     22  C   UNL     1      -2.954  10.188  14.881  0.00  0.00    +0.000 C 
ATOM     23  C   UNL     1      -3.898  11.103  15.638  0.00  0.00    +0.000 C 
ENDBRANCH  19  23
ENDBRANCH  12  21
ENDBRANCH   1  15
BRANCH   7  24
ATOM     24  O   UNL     1       4.476   5.313  16.723  0.00  0.00    +0.000 OA
ATOM     25  C   UNL     1       5.066   4.066  16.374  0.00  0.00    +0.000 C 
ENDBRANCH   7  24
TORSDOF 4
ENDMDL
MODEL 8
REMARK VINA RESULT:      -7.3      4.164      8.151
REMARK  Name = 
REMARK  7 active torsions:
REMARK  status: ('A' for Active; 'I' for Inactive)
REMARK    1  A    between atoms: C_1  and  C_2
REMARK    2  A    between atoms: C_2  and  C_3
REMARK    3  A    between atoms: C_3  and  C_4
REMARK    4  A    between atoms: N_5  and  N_6
REMARK    5  A    between atoms: C_9  and  C_10
REMARK    6  A    between atoms: C_16  and  O_17
REMARK    7  A    between atoms: O_17  and  C_18
REMARK                            x       y       z     vdW  Elec       q    Type
REMARK                         _______ _______ _______ _____ _____    ______ ____
ROOT
ATOM      1  C   UNL     1       2.311   8.147  18.552  0.00  0.00    +0.000 A 
ATOM      2  C   UNL     1       3.111   7.939  17.491  0.00  0.00    +0.000 A 
ATOM      3  C   UNL     1       3.995   6.777  17.430  0.00  0.00    +0.000 A 
ATOM      4  C   UNL     1       4.792   6.535  16.313  0.00  0.00    +0.000 A 
ATOM      5  C   UNL     1       5.664   5.440  16.303  0.00  0.00    +0.000 A 
ATOM      6  C   UNL     1       5.738   4.599  17.412  0.00  0.00    +0.000 A 
ATOM      7  C   UNL     1       4.942   4.821  18.549  0.00  0.00    +0.000 A 
ATOM      8  C   UNL     1       4.073   5.914  18.527  0.00  0.00    +0.000 A 
ATOM      9  O   UNL     1       3.214   6.149  19.626  0.00  0.00    +0.000 OA
ATOM     10  C   UNL     1       2.274   7.169  19.668  0.00  0.00    +0.000 A 
ATOM     11  O   UNL     1       1.451   7.222  20.577  0.00  0.00    +0.000 OA
ENDROOT
BRANCH   1  15
ATOM     12  N   UNL     1      -1.554  10.804  17.711  0.00  0.00    +0.000 N 
ATOM     13  C   UNL     1      -0.346  10.455  18.218  0.00  0.00    +0.000 A 
ATOM     14  N   UNL     1       0.271   9.304  18.025  0.00  0.00    +0.000 NA
ATOM     15  C   UNL     1       1.480   9.297  18.679  0.00  0.00    +0.000 A 
ATOM     16  C   UNL     1       1.800  10.438  19.380  0.00  0.00    +0.000 A 
ATOM     17  S   UNL     1       0.510  11.559  19.240  0.00  0.00    +0.000 S 
ATOM     18  H   UNL     1      -2.109  11.435  18.283  0.00  0.00    +0.000 HD
BRANCH  12  21
ATOM     19  C   UNL     1      -3.319  10.510  16.282  0.00  0.00    +0.000 C 
ATOM     20  C   UNL     1      -4.233  11.381  17.112  0.00  0.00    +0.000 C 
ATOM     21  N   UNL     1      -2.087  10.239  16.592  0.00  0.00    +0.000 NA
BRANCH  19  23
ATOM     22  C   UNL     1      -2.845   9.934  13.877  0.00  0.00    +0.000 C 
ATOM     23  C   UNL     1      -3.869   9.914  14.997  0.00  0.00    +0.000 C 
ENDBRANCH  19  23
ENDBRANCH  12  21
ENDBRANCH   1  15
BRANCH   7  24
ATOM     24  O   UNL     1       5.144   3.903  19.539  0.00  0.00    +0.000 OA
ATOM     25  C   UNL     1       4.225   2.823  19.665  0.00  0.00    +0.000 C 
ENDBRANCH   7  24
TORSDOF 4
ENDMDL
MODEL 9
REMARK VINA RESULT:      -7.3      1.748      2.188
REMARK  Name = 
REMARK  7 active torsions:
REMARK  status: ('A' for Active; 'I' for Inactive)
REMARK    1  A    between atoms: C_1  and  C_2
REMARK    2  A    between atoms: C_2  and  C_3
REMARK    3  A    between atoms: C_3  and  C_4
REMARK    4  A    between atoms: N_5  and  N_6
REMARK    5  A    between atoms: C_9  and  C_10
REMARK    6  A    between atoms: C_16  and  O_17
REMARK    7  A    between atoms: O_17  and  C_18
REMARK                            x       y       z     vdW  Elec       q    Type
REMARK                         _______ _______ _______ _____ _____    ______ ____
ROOT
ATOM      1  C   UNL     1       1.841   7.942  19.341  0.00  0.00    +0.000 A 
ATOM      2  C   UNL     1       1.408   7.848  20.611  0.00  0.00    +0.000 A 
ATOM      3  C   UNL     1       0.685   8.948  21.245  0.00  0.00    +0.000 A 
ATOM      4  C   UNL     1       0.196   8.836  22.545  0.00  0.00    +0.000 A 
ATOM      5  C   UNL     1      -0.451   9.924  23.142  0.00  0.00    +0.000 A 
ATOM      6  C   UNL     1      -0.596  11.119  22.439  0.00  0.00    +0.000 A 
ATOM      7  C   UNL     1      -0.114  11.255  21.127  0.00  0.00    +0.000 A 
ATOM      8  C   UNL     1       0.516  10.150  20.551  0.00  0.00    +0.000 A 
ATOM      9  O   UNL     1       0.972  10.221  19.214  0.00  0.00    +0.000 OA
ATOM     10  C   UNL     1       1.551   9.156  18.537  0.00  0.00    +0.000 A 
ATOM     11  O   UNL     1       1.778   9.231  17.333  0.00  0.00    +0.000 OA
ENDROOT
BRANCH   1  15
ATOM     12  N   UNL     1       5.728   6.058  17.329  0.00  0.00    +0.000 N 
ATOM     13  C   UNL     1       4.452   6.141  17.781  0.00  0.00    +0.000 A 
ATOM     14  N   UNL     1       3.915   7.177  18.398  0.00  0.00    +0.000 NA
ATOM     15  C   UNL     1       2.601   6.918  18.705  0.00  0.00    +0.000 A 
ATOM     16  C   UNL     1       2.119   5.684  18.331  0.00  0.00    +0.000 A 
ATOM     17  S   UNL     1       3.381   4.793  17.588  0.00  0.00    +0.000 S 
ATOM     18  H   UNL     1       6.141   5.130  17.337  0.00  0.00    +0.000 HD
BRANCH  12  21
ATOM     19  C   UNL     1       7.552   7.381  17.736  0.00  0.00    +0.000 C 
ATOM     20  C   UNL     1       7.989   6.543  18.915  0.00  0.00    +0.000 C 
ATOM     21  N   UNL     1       6.487   7.148  17.029  0.00  0.00    +0.000 NA
BRANCH  19  23
ATOM     22  C   UNL     1       8.626   9.526  18.500  0.00  0.00    +0.000 C 
ATOM     23  C   UNL     1       8.413   8.569  17.342  0.00  0.00    +0.000 C 
ENDBRANCH  19  23
ENDBRANCH  12  21
ENDBRANCH   1  15
BRANCH   7  24
ATOM     24  O   UNL     1      -0.342  12.490  20.592  0.00  0.00    +0.000 OA
ATOM     25  C   UNL     1      -1.632  12.777  20.061  0.00  0.00    +0.000 C 
ENDBRANCH   7  24
TORSDOF 4
ENDMDL
