MODEL 1
REMARK VINA RESULT:      -7.3      0.000      0.000
REMARK  Name = 
REMARK  6 active torsions:
REMARK  status: ('A' for Active; 'I' for Inactive)
REMARK    1  A    between atoms: C_2  and  C_3
REMARK    2  A    between atoms: C_3  and  C_4
REMARK    3  A    between atoms: C_4  and  N_5
REMARK    4  A    between atoms: N_5  and  C_6
REMARK    5  A    between atoms: C_6  and  C_7
REMARK    6  A    between atoms: C_11  and  C_13
REMARK                            x       y       z     vdW  Elec       q    Type
REMARK                         _______ _______ _______ _____ _____    ______ ____
ROOT
ATOM      1  N   UNL     1       5.622   5.191  16.990  0.00  0.00    +0.000 N 
ATOM      2  C   UNL     1       4.727   4.199  17.411  0.00  0.00    +0.000 C 
ATOM      3  O   UNL     1       4.078   3.541  16.595  0.00  0.00    +0.000 OA
ENDROOT
BRANCH   2   4
ATOM      4  C   UNL     1       4.587   3.919  18.934  0.00  0.00    +0.000 C 
ATOM      5  C   UNL     1       4.678   2.416  19.214  0.00  0.00    +0.000 C 
ATOM      6  C   UNL     1       3.326   1.761  18.976  0.00  0.00    +0.000 C 
ATOM      7  O   UNL     1       2.324   2.274  19.854  0.00  0.00    +0.000 OA
ATOM      8  C   UNL     1       2.265   3.638  19.916  0.00  0.00    +0.000 A 
ATOM      9  C   UNL     1       1.094   4.170  20.465  0.00  0.00    +0.000 A 
ATOM     10  C   UNL     1       0.942   5.549  20.592  0.00  0.00    +0.000 A 
ATOM     11  C   UNL     1       1.968   6.396  20.181  0.00  0.00    +0.000 A 
ATOM     12 CL   UNL     1       1.787   8.098  20.340  0.00  0.00    +0.000 Cl
ATOM     13  C   UNL     1       3.145   5.872  19.644  0.00  0.00    +0.000 A 
ATOM     14  C   UNL     1       3.304   4.482  19.510  0.00  0.00    +0.000 A 
ENDBRANCH   2   4
BRANCH   1  15
ATOM     15  C   UNL     1       5.674   5.430  15.532  0.00  0.00    +0.000 C 
BRANCH  15  16
ATOM     16  C   UNL     1       6.822   4.738  14.775  0.00  0.00    +0.000 C 
BRANCH  16  18
ATOM     17  N   UNL     1       5.896   3.367  12.539  0.00  0.00    +0.000 NA
ATOM     18  C   UNL     1       6.316   3.988  13.553  0.00  0.00    +0.000 C 
ENDBRANCH  16  18
ENDBRANCH  15  16
ENDBRANCH   1  15
BRANCH   1  19
ATOM     19  C   UNL     1       6.276   6.120  17.956  0.00  0.00    +0.000 C 
BRANCH  19  20
ATOM     20  C   UNL     1       7.567   5.796  18.734  0.00  0.00    +0.000 C 
ATOM     21  F   UNL     1       7.385   5.526  20.037  0.00  0.00    +0.000 F 
ATOM     22  F   UNL     1       8.181   4.726  18.175  0.00  0.00    +0.000 F 
ATOM     23  F   UNL     1       8.433   6.834  18.654  0.00  0.00    +0.000 F 
ENDBRANCH  19  20
ENDBRANCH   1  19
TORSDOF 6
ENDMDL
MODEL 2
REMARK VINA RESULT:      -7.1      1.188      1.309
REMARK  Name = 
REMARK  6 active torsions:
REMARK  status: ('A' for Active; 'I' for Inactive)
REMARK    1  A    between atoms: C_2  and  C_3
REMARK    2  A    between atoms: C_3  and  C_4
REMARK    3  A    between atoms: C_4  and  N_5
REMARK    4  A    between atoms: N_5  and  C_6
REMARK    5  A    between atoms: C_6  and  C_7
REMARK    6  A    between atoms: C_11  and  C_13
REMARK                            x       y       z     vdW  Elec       q    Type
REMARK                         _______ _______ _______ _____ _____    ______ ____
ROOT
ATOM      1  N   UNL     1       5.614   4.482  16.495  0.00  0.00    +0.000 N 
ATOM      2  C   UNL     1       4.447   4.051  17.138  0.00  0.00    +0.000 C 
ATOM      3  O   UNL     1       3.411   3.845  16.503  0.00  0.00    +0.000 OA
ENDROOT
BRANCH   2   4
ATOM      4  C   UNL     1       4.489   3.803  18.672  0.00  0.00    +0.000 C 
ATOM      5  C   UNL     1       4.600   2.305  18.971  0.00  0.00    +0.000 C 
ATOM      6  C   UNL     1       3.224   1.661  18.911  0.00  0.00    +0.000 C 
ATOM      7  O   UNL     1       2.339   2.203  19.892  0.00  0.00    +0.000 OA
ATOM      8  C   UNL     1       2.298   3.568  19.931  0.00  0.00    +0.000 A 
ATOM      9  C   UNL     1       1.207   4.123  20.605  0.00  0.00    +0.000 A 
ATOM     10  C   UNL     1       1.083   5.506  20.719  0.00  0.00    +0.000 A 
ATOM     11  C   UNL     1       2.059   6.334  20.170  0.00  0.00    +0.000 A 
ATOM     12 CL   UNL     1       1.912   8.041  20.312  0.00  0.00    +0.000 Cl
ATOM     13  C   UNL     1       3.158   5.786  19.508  0.00  0.00    +0.000 A 
ATOM     14  C   UNL     1       3.288   4.391  19.385  0.00  0.00    +0.000 A 
ENDBRANCH   2   4
BRANCH   1  15
ATOM     15  C   UNL     1       5.490   4.735  15.044  0.00  0.00    +0.000 C 
BRANCH  15  16
ATOM     16  C   UNL     1       6.525   4.033  14.146  0.00  0.00    +0.000 C 
BRANCH  16  18
ATOM     17  N   UNL     1       8.419   5.822  13.172  0.00  0.00    +0.000 NA
ATOM     18  C   UNL     1       7.560   5.011  13.613  0.00  0.00    +0.000 C 
ENDBRANCH  16  18
ENDBRANCH  15  16
ENDBRANCH   1  15
BRANCH   1  19
ATOM     19  C   UNL     1       6.819   4.912  17.261  0.00  0.00    +0.000 C 
BRANCH  19  20
ATOM     20  C   UNL     1       7.101   6.366  17.692  0.00  0.00    +0.000 C 
ATOM     21  F   UNL     1       7.711   6.490  18.882  0.00  0.00    +0.000 F 
ATOM     22  F   UNL     1       7.879   6.976  16.766  0.00  0.00    +0.000 F 
ATOM     23  F   UNL     1       5.943   7.065  17.757  0.00  0.00    +0.000 F 
ENDBRANCH  19  20
ENDBRANCH   1  19
TORSDOF 6
ENDMDL
MODEL 3
REMARK VINA RESULT:      -7.0      1.114      1.328
REMARK  Name = 
REMARK  6 active torsions:
REMARK  status: ('A' for Active; 'I' for Inactive)
REMARK    1  A    between atoms: C_2  and  C_3
REMARK    2  A    between atoms: C_3  and  C_4
REMARK    3  A    between atoms: C_4  and  N_5
REMARK    4  A    between atoms: N_5  and  C_6
REMARK    5  A    between atoms: C_6  and  C_7
REMARK    6  A    between atoms: C_11  and  C_13
REMARK                            x       y       z     vdW  Elec       q    Type
REMARK                         _______ _______ _______ _____ _____    ______ ____
ROOT
ATOM      1  N   UNL     1       5.914   4.589  16.869  0.00  0.00    +0.000 N 
ATOM      2  C   UNL     1       4.638   4.235  17.324  0.00  0.00    +0.000 C 
ATOM      3  O   UNL     1       3.647   4.365  16.602  0.00  0.00    +0.000 OA
ENDROOT
BRANCH   2   4
ATOM      4  C   UNL     1       4.494   3.640  18.754  0.00  0.00    +0.000 C 
ATOM      5  C   UNL     1       4.623   2.115  18.716  0.00  0.00    +0.000 C 
ATOM      6  C   UNL     1       3.290   1.491  18.330  0.00  0.00    +0.000 C 
ATOM      7  O   UNL     1       2.268   1.786  19.282  0.00  0.00    +0.000 OA
ATOM      8  C   UNL     1       2.172   3.105  19.625  0.00  0.00    +0.000 A 
ATOM      9  C   UNL     1       0.983   3.482  20.257  0.00  0.00    +0.000 A 
ATOM     10  C   UNL     1       0.794   4.801  20.666  0.00  0.00    +0.000 A 
ATOM     11  C   UNL     1       1.800   5.740  20.453  0.00  0.00    +0.000 A 
ATOM     12 CL   UNL     1       1.572   7.367  20.959  0.00  0.00    +0.000 Cl
ATOM     13  C   UNL     1       2.994   5.368  19.835  0.00  0.00    +0.000 A 
ATOM     14  C   UNL     1       3.191   4.040  19.417  0.00  0.00    +0.000 A 
ENDBRANCH   2   4
BRANCH   1  15
ATOM     15  C   UNL     1       5.970   5.183  15.517  0.00  0.00    +0.000 C 
BRANCH  15  16
ATOM     16  C   UNL     1       6.662   4.334  14.435  0.00  0.00    +0.000 C 
BRANCH  16  18
ATOM     17  N   UNL     1       8.507   5.827  12.985  0.00  0.00    +0.000 NA
ATOM     18  C   UNL     1       7.671   5.150  13.642  0.00  0.00    +0.000 C 
ENDBRANCH  16  18
ENDBRANCH  15  16
ENDBRANCH   1  15
BRANCH   1  19
ATOM     19  C   UNL     1       7.094   4.615  17.781  0.00  0.00    +0.000 C 
BRANCH  19  20
ATOM     20  C   UNL     1       7.409   5.763  18.761  0.00  0.00    +0.000 C 
ATOM     21  F   UNL     1       7.520   6.974  18.190  0.00  0.00    +0.000 F 
ATOM     22  F   UNL     1       6.438   5.841  19.702  0.00  0.00    +0.000 F 
ATOM     23  F   UNL     1       8.570   5.516  19.411  0.00  0.00    +0.000 F 
ENDBRANCH  19  20
ENDBRANCH   1  19
TORSDOF 6
ENDMDL
MODEL 4
REMARK VINA RESULT:      -7.0      3.590      6.635
REMARK  Name = 
REMARK  6 active torsions:
REMARK  status: ('A' for Active; 'I' for Inactive)
REMARK    1  A    between atoms: C_2  and  C_3
REMARK    2  A    between atoms: C_3  and  C_4
REMARK    3  A    between atoms: C_4  and  N_5
REMARK    4  A    between atoms: N_5  and  C_6
REMARK    5  A    between atoms: C_6  and  C_7
REMARK    6  A    between atoms: C_11  and  C_13
REMARK                            x       y       z     vdW  Elec       q    Type
REMARK                         _______ _______ _______ _____ _____    ______ ____
ROOT
ATOM      1  N   UNL     1       3.205   4.129  17.552  0.00  0.00    +0.000 N 
ATOM      2  C   UNL     1       4.278   4.885  17.064  0.00  0.00    +0.000 C 
ATOM      3  O   UNL     1       4.174   6.102  16.896  0.00  0.00    +0.000 OA
ENDROOT
BRANCH   2   4
ATOM      4  C   UNL     1       5.623   4.164  16.764  0.00  0.00    +0.000 C 
ATOM      5  C   UNL     1       6.729   4.686  17.686  0.00  0.00    +0.000 C 
ATOM      6  C   UNL     1       7.304   5.978  17.126  0.00  0.00    +0.000 C 
ATOM      7  O   UNL     1       7.906   5.782  15.846  0.00  0.00    +0.000 OA
ATOM      8  C   UNL     1       7.131   5.099  14.951  0.00  0.00    +0.000 A 
ATOM      9  C   UNL     1       7.520   5.200  13.612  0.00  0.00    +0.000 A 
ATOM     10  C   UNL     1       6.809   4.524  12.622  0.00  0.00    +0.000 A 
ATOM     11  C   UNL     1       5.717   3.736  12.975  0.00  0.00    +0.000 A 
ATOM     12 CL   UNL     1       4.839   2.897  11.757  0.00  0.00    +0.000 Cl
ATOM     13  C   UNL     1       5.331   3.619  14.310  0.00  0.00    +0.000 A 
ATOM     14  C   UNL     1       6.042   4.301  15.314  0.00  0.00    +0.000 A 
ENDBRANCH   2   4
BRANCH   1  15
ATOM     15  C   UNL     1       1.948   4.873  17.778  0.00  0.00    +0.000 C 
BRANCH  15  16
ATOM     16  C   UNL     1       1.896   5.743  19.047  0.00  0.00    +0.000 C 
BRANCH  16  18
ATOM     17  N   UNL     1       2.197   4.215  21.351  0.00  0.00    +0.000 NA
ATOM     18  C   UNL     1       2.060   4.908  20.306  0.00  0.00    +0.000 C 
ENDBRANCH  16  18
ENDBRANCH  15  16
ENDBRANCH   1  15
BRANCH   1  19
ATOM     19  C   UNL     1       3.246   2.639  17.589  0.00  0.00    +0.000 C 
BRANCH  19  20
ATOM     20  C   UNL     1       3.473   1.808  18.868  0.00  0.00    +0.000 C 
ATOM     21  F   UNL     1       4.343   2.345  19.739  0.00  0.00    +0.000 F 
ATOM     22  F   UNL     1       2.297   1.636  19.517  0.00  0.00    +0.000 F 
ATOM     23  F   UNL     1       3.931   0.575  18.549  0.00  0.00    +0.000 F 
ENDBRANCH  19  20
ENDBRANCH   1  19
TORSDOF 6
ENDMDL
MODEL 5
REMARK VINA RESULT:      -6.8      1.092      1.229
REMARK  Name = 
REMARK  6 active torsions:
REMARK  status: ('A' for Active; 'I' for Inactive)
REMARK    1  A    between atoms: C_2  and  C_3
REMARK    2  A    between atoms: C_3  and  C_4
REMARK    3  A    between atoms: C_4  and  N_5
REMARK    4  A    between atoms: N_5  and  C_6
REMARK    5  A    between atoms: C_6  and  C_7
REMARK    6  A    between atoms: C_11  and  C_13
REMARK                            x       y       z     vdW  Elec       q    Type
REMARK                         _______ _______ _______ _____ _____    ______ ____
ROOT
ATOM      1  N   UNL     1       5.741   4.297  16.632  0.00  0.00    +0.000 N 
ATOM      2  C   UNL     1       4.605   4.055  17.414  0.00  0.00    +0.000 C 
ATOM      3  O   UNL     1       3.548   3.682  16.901  0.00  0.00    +0.000 OA
ENDROOT
BRANCH   2   4
ATOM      4  C   UNL     1       4.708   4.235  18.955  0.00  0.00    +0.000 C 
ATOM      5  C   UNL     1       4.936   2.884  19.639  0.00  0.00    +0.000 C 
ATOM      6  C   UNL     1       3.608   2.164  19.819  0.00  0.00    +0.000 C 
ATOM      7  O   UNL     1       2.715   2.895  20.659  0.00  0.00    +0.000 OA
ATOM      8  C   UNL     1       2.577   4.214  20.332  0.00  0.00    +0.000 A 
ATOM      9  C   UNL     1       1.468   4.863  20.883  0.00  0.00    +0.000 A 
ATOM     10  C   UNL     1       1.248   6.216  20.628  0.00  0.00    +0.000 A 
ATOM     11  C   UNL     1       2.146   6.922  19.832  0.00  0.00    +0.000 A 
ATOM     12 CL   UNL     1       1.881   8.591  19.518  0.00  0.00    +0.000 Cl
ATOM     13  C   UNL     1       3.263   6.284  19.290  0.00  0.00    +0.000 A 
ATOM     14  C   UNL     1       3.489   4.919  19.540  0.00  0.00    +0.000 A 
ENDBRANCH   2   4
BRANCH   1  15
ATOM     15  C   UNL     1       5.559   4.143  15.173  0.00  0.00    +0.000 C 
BRANCH  15  16
ATOM     16  C   UNL     1       6.719   4.639  14.292  0.00  0.00    +0.000 C 
BRANCH  16  18
ATOM     17  N   UNL     1       6.773   3.335  11.836  0.00  0.00    +0.000 NA
ATOM     18  C   UNL     1       6.748   3.927  12.949  0.00  0.00    +0.000 C 
ENDBRANCH  16  18
ENDBRANCH  15  16
ENDBRANCH   1  15
BRANCH   1  19
ATOM     19  C   UNL     1       6.969   4.921  17.202  0.00  0.00    +0.000 C 
BRANCH  19  20
ATOM     20  C   UNL     1       7.087   6.410  17.588  0.00  0.00    +0.000 C 
ATOM     21  F   UNL     1       5.927   7.087  17.575  0.00  0.00    +0.000 F 
ATOM     22  F   UNL     1       7.612   6.520  18.832  0.00  0.00    +0.000 F 
ATOM     23  F   UNL     1       7.934   7.045  16.745  0.00  0.00    +0.000 F 
ENDBRANCH  19  20
ENDBRANCH   1  19
TORSDOF 6
ENDMDL
MODEL 6
REMARK VINA RESULT:      -6.8      3.817      6.690
REMARK  Name = 
REMARK  6 active torsions:
REMARK  status: ('A' for Active; 'I' for Inactive)
REMARK    1  A    between atoms: C_2  and  C_3
REMARK    2  A    between atoms: C_3  and  C_4
REMARK    3  A    between atoms: C_4  and  N_5
REMARK    4  A    between atoms: N_5  and  C_6
REMARK    5  A    between atoms: C_6  and  C_7
REMARK    6  A    between atoms: C_11  and  C_13
REMARK                            x       y       z     vdW  Elec       q    Type
REMARK                         _______ _______ _______ _____ _____    ______ ____
ROOT
ATOM      1  N   UNL     1       3.432   4.408  18.536  0.00  0.00    +0.000 N 
ATOM      2  C   UNL     1       4.297   5.056  17.645  0.00  0.00    +0.000 C 
ATOM      3  O   UNL     1       3.983   6.126  17.120  0.00  0.00    +0.000 OA
ENDROOT
BRANCH   2   4
ATOM      4  C   UNL     1       5.682   4.414  17.351  0.00  0.00    +0.000 C 
ATOM      5  C   UNL     1       6.758   5.020  18.257  0.00  0.00    +0.000 C 
ATOM      6  C   UNL     1       7.250   6.334  17.671  0.00  0.00    +0.000 C 
ATOM      7  O   UNL     1       7.856   6.153  16.391  0.00  0.00    +0.000 OA
ATOM      8  C   UNL     1       7.122   5.408  15.513  0.00  0.00    +0.000 A 
ATOM      9  C   UNL     1       7.497   5.508  14.170  0.00  0.00    +0.000 A 
ATOM     10  C   UNL     1       6.825   4.772  13.196  0.00  0.00    +0.000 A 
ATOM     11  C   UNL     1       5.784   3.925  13.569  0.00  0.00    +0.000 A 
ATOM     12 CL   UNL     1       4.955   3.012  12.371  0.00  0.00    +0.000 Cl
ATOM     13  C   UNL     1       5.413   3.809  14.909  0.00  0.00    +0.000 A 
ATOM     14  C   UNL     1       6.085   4.551  15.896  0.00  0.00    +0.000 A 
ENDBRANCH   2   4
BRANCH   1  15
ATOM     15  C   UNL     1       2.119   5.055  18.739  0.00  0.00    +0.000 C 
BRANCH  15  16
ATOM     16  C   UNL     1       1.706   5.305  20.201  0.00  0.00    +0.000 C 
BRANCH  16  18
ATOM     17  N   UNL     1       1.581   8.021  20.784  0.00  0.00    +0.000 NA
ATOM     18  C   UNL     1       1.638   6.790  20.519  0.00  0.00    +0.000 C 
ENDBRANCH  16  18
ENDBRANCH  15  16
ENDBRANCH   1  15
BRANCH   1  19
ATOM     19  C   UNL     1       3.708   3.032  19.038  0.00  0.00    +0.000 C 
BRANCH  19  20
ATOM     20  C   UNL     1       2.961   1.769  18.563  0.00  0.00    +0.000 C 
ATOM     21  F   UNL     1       1.904   1.425  19.317  0.00  0.00    +0.000 F 
ATOM     22  F   UNL     1       2.520   1.948  17.295  0.00  0.00    +0.000 F 
ATOM     23  F   UNL     1       3.803   0.709  18.542  0.00  0.00    +0.000 F 
ENDBRANCH  19  20
ENDBRANCH   1  19
TORSDOF 6
ENDMDL
MODEL 7
REMARK VINA RESULT:      -6.7      3.542      6.615
REMARK  Name = 
REMARK  6 active torsions:
REMARK  status: ('A' for Active; 'I' for Inactive)
REMARK    1  A    between atoms: C_2  and  C_3
REMARK    2  A    between atoms: C_3  and  C_4
REMARK    3  A    between atoms: C_4  and  N_5
REMARK    4  A    between atoms: N_5  and  C_6
REMARK    5  A    between atoms: C_6  and  C_7
REMARK    6  A    between atoms: C_11  and  C_13
REMARK                            x       y       z     vdW  Elec       q    Type
REMARK                         _______ _______ _______ _____ _____    ______ ____
ROOT
ATOM      1  N   UNL     1       3.320   4.042  17.543  0.00  0.00    +0.000 N 
ATOM      2  C   UNL     1       4.337   4.848  17.017  0.00  0.00    +0.000 C 
ATOM      3  O   UNL     1       4.153   6.048  16.805  0.00  0.00    +0.000 OA
ENDROOT
BRANCH   2   4
ATOM      4  C   UNL     1       5.725   4.205  16.732  0.00  0.00    +0.000 C 
ATOM      5  C   UNL     1       6.797   4.821  17.635  0.00  0.00    +0.000 C 
ATOM      6  C   UNL     1       7.288   6.130  17.039  0.00  0.00    +0.000 C 
ATOM      7  O   UNL     1       7.898   5.939  15.762  0.00  0.00    +0.000 OA
ATOM      8  C   UNL     1       7.167   5.184  14.889  0.00  0.00    +0.000 A 
ATOM      9  C   UNL     1       7.546   5.273  13.546  0.00  0.00    +0.000 A 
ATOM     10  C   UNL     1       6.878   4.527  12.578  0.00  0.00    +0.000 A 
ATOM     11  C   UNL     1       5.838   3.681  12.955  0.00  0.00    +0.000 A 
ATOM     12 CL   UNL     1       5.013   2.755  11.764  0.00  0.00    +0.000 Cl
ATOM     13  C   UNL     1       5.463   3.577  14.295  0.00  0.00    +0.000 A 
ATOM     14  C   UNL     1       6.131   4.329  15.278  0.00  0.00    +0.000 A 
ENDBRANCH   2   4
BRANCH   1  15
ATOM     15  C   UNL     1       2.018   4.710  17.752  0.00  0.00    +0.000 C 
BRANCH  15  16
ATOM     16  C   UNL     1       1.591   4.914  19.217  0.00  0.00    +0.000 C 
BRANCH  16  18
ATOM     17  N   UNL     1       2.185   7.479  20.113  0.00  0.00    +0.000 NA
ATOM     18  C   UNL     1       1.915   6.316  19.706  0.00  0.00    +0.000 C 
ENDBRANCH  16  18
ENDBRANCH  15  16
ENDBRANCH   1  15
BRANCH   1  19
ATOM     19  C   UNL     1       3.458   2.560  17.634  0.00  0.00    +0.000 C 
BRANCH  19  20
ATOM     20  C   UNL     1       3.624   1.784  18.956  0.00  0.00    +0.000 C 
ATOM     21  F   UNL     1       2.531   1.762  19.736  0.00  0.00    +0.000 F 
ATOM     22  F   UNL     1       3.966   0.500  18.693  0.00  0.00    +0.000 F 
ATOM     23  F   UNL     1       4.631   2.318  19.687  0.00  0.00    +0.000 F 
ENDBRANCH  19  20
ENDBRANCH   1  19
TORSDOF 6
ENDMDL
MODEL 8
REMARK VINA RESULT:      -6.7      4.059      6.687
REMARK  Name = 
REMARK  6 active torsions:
REMARK  status: ('A' for Active; 'I' for Inactive)
REMARK    1  A    between atoms: C_2  and  C_3
REMARK    2  A    between atoms: C_3  and  C_4
REMARK    3  A    between atoms: C_4  and  N_5
REMARK    4  A    between atoms: N_5  and  C_6
REMARK    5  A    between atoms: C_6  and  C_7
REMARK    6  A    between atoms: C_11  and  C_13
REMARK                            x       y       z     vdW  Elec       q    Type
REMARK                         _______ _______ _______ _____ _____    ______ ____
ROOT
ATOM      1  N   UNL     1       3.010   6.166  19.014  0.00  0.00    +0.000 N 
ATOM      2  C   UNL     1       4.042   6.167  18.067  0.00  0.00    +0.000 C 
ATOM      3  O   UNL     1       4.199   7.117  17.298  0.00  0.00    +0.000 OA
ENDROOT
BRANCH   2   4
ATOM      4  C   UNL     1       5.013   4.952  18.021  0.00  0.00    +0.000 C 
ATOM      5  C   UNL     1       6.052   5.054  19.141  0.00  0.00    +0.000 C 
ATOM      6  C   UNL     1       7.188   5.970  18.714  0.00  0.00    +0.000 C 
ATOM      7  O   UNL     1       7.877   5.466  17.569  0.00  0.00    +0.000 OA
ATOM      8  C   UNL     1       7.066   5.087  16.537  0.00  0.00    +0.000 A 
ATOM      9  C   UNL     1       7.694   4.935  15.297  0.00  0.00    +0.000 A 
ATOM     10  C   UNL     1       6.960   4.531  14.184  0.00  0.00    +0.000 A 
ATOM     11  C   UNL     1       5.599   4.268  14.314  0.00  0.00    +0.000 A 
ATOM     12 CL   UNL     1       4.690   3.765  12.944  0.00  0.00    +0.000 Cl
ATOM     13  C   UNL     1       4.968   4.404  15.551  0.00  0.00    +0.000 A 
ATOM     14  C   UNL     1       5.702   4.814  16.679  0.00  0.00    +0.000 A 
ENDBRANCH   2   4
BRANCH   1  15
ATOM     15  C   UNL     1       2.104   7.333  18.974  0.00  0.00    +0.000 C 
BRANCH  15  16
ATOM     16  C   UNL     1       1.722   7.939  20.336  0.00  0.00    +0.000 C 
BRANCH  16  18
ATOM     17  N   UNL     1       0.389  10.363  20.046  0.00  0.00    +0.000 NA
ATOM     18  C   UNL     1       0.993   9.264  20.177  0.00  0.00    +0.000 C 
ENDBRANCH  16  18
ENDBRANCH  15  16
ENDBRANCH   1  15
BRANCH   1  19
ATOM     19  C   UNL     1       2.688   4.957  19.824  0.00  0.00    +0.000 C 
BRANCH  19  20
ATOM     20  C   UNL     1       1.541   3.977  19.503  0.00  0.00    +0.000 C 
ATOM     21  F   UNL     1       1.851   2.680  19.657  0.00  0.00    +0.000 F 
ATOM     22  F   UNL     1       0.477   4.242  20.298  0.00  0.00    +0.000 F 
ATOM     23  F   UNL     1       1.129   4.144  18.224  0.00  0.00    +0.000 F 
ENDBRANCH  19  20
ENDBRANCH   1  19
TORSDOF 6
ENDMDL
MODEL 9
REMARK VINA RESULT:      -6.6      4.401      6.771
REMARK  Name = 
REMARK  6 active torsions:
REMARK  status: ('A' for Active; 'I' for Inactive)
REMARK    1  A    between atoms: C_2  and  C_3
REMARK    2  A    between atoms: C_3  and  C_4
REMARK    3  A    between atoms: C_4  and  N_5
REMARK    4  A    between atoms: N_5  and  C_6
REMARK    5  A    between atoms: C_6  and  C_7
REMARK    6  A    between atoms: C_11  and  C_13
REMARK                            x       y       z     vdW  Elec       q    Type
REMARK                         _______ _______ _______ _____ _____    ______ ____
ROOT
ATOM      1  N   UNL     1       1.982   7.647  19.575  0.00  0.00    +0.000 N 
ATOM      2  C   UNL     1       2.294   6.290  19.424  0.00  0.00    +0.000 C 
ATOM      3  O   UNL     1       2.284   5.524  20.390  0.00  0.00    +0.000 OA
ENDROOT
BRANCH   2   4
ATOM      4  C   UNL     1       2.625   5.755  18.002  0.00  0.00    +0.000 C 
ATOM      5  C   UNL     1       1.832   4.478  17.710  0.00  0.00    +0.000 C 
ATOM      6  C   UNL     1       2.539   3.277  18.319  0.00  0.00    +0.000 C 
ATOM      7  O   UNL     1       3.837   3.082  17.758  0.00  0.00    +0.000 OA
ATOM      8  C   UNL     1       4.614   4.205  17.713  0.00  0.00    +0.000 A 
ATOM      9  C   UNL     1       5.981   3.990  17.514  0.00  0.00    +0.000 A 
ATOM     10  C   UNL     1       6.857   5.071  17.433  0.00  0.00    +0.000 A 
ATOM     11  C   UNL     1       6.362   6.368  17.538  0.00  0.00    +0.000 A 
ATOM     12 CL   UNL     1       7.438   7.705  17.434  0.00  0.00    +0.000 Cl
ATOM     13  C   UNL     1       4.997   6.592  17.723  0.00  0.00    +0.000 A 
ATOM     14  C   UNL     1       4.108   5.506  17.809  0.00  0.00    +0.000 A 
ENDBRANCH   2   4
BRANCH   1  15
ATOM     15  C   UNL     1       1.716   8.092  20.959  0.00  0.00    +0.000 C 
BRANCH  15  16
ATOM     16  C   UNL     1       0.235   8.270  21.339  0.00  0.00    +0.000 C 
BRANCH  16  18
ATOM     17  N   UNL     1      -0.080  10.068  23.437  0.00  0.00    +0.000 NA
ATOM     18  C   UNL     1       0.063   9.253  22.485  0.00  0.00    +0.000 C 
ENDBRANCH  16  18
ENDBRANCH  15  16
ENDBRANCH   1  15
BRANCH   1  19
ATOM     19  C   UNL     1       2.166   8.624  18.464  0.00  0.00    +0.000 C 
BRANCH  19  20
ATOM     20  C   UNL     1       1.411   9.963  18.352  0.00  0.00    +0.000 C 
ATOM     21  F   UNL     1       1.286  10.636  19.508  0.00  0.00    +0.000 F 
ATOM     22  F   UNL     1       2.045  10.774  17.472  0.00  0.00    +0.000 F 
ATOM     23  F   UNL     1       0.163   9.756  17.869  0.00  0.00    +0.000 F 
ENDBRANCH  19  20
ENDBRANCH   1  19
TORSDOF 6
ENDMDL
