MODEL 1
REMARK VINA RESULT:      -9.0      0.000      0.000
REMARK  Name = 
REMARK  6 active torsions:
REMARK  status: ('A' for Active; 'I' for Inactive)
REMARK    1  A    between atoms: C_1  and  C_2
REMARK    2  A    between atoms: C_2  and  O_3
REMARK    3  A    between atoms: O_3  and  C_4
REMARK    4  A    between atoms: C_7  and  N_8
REMARK    5  A    between atoms: N_8  and  S_9
REMARK    6  A    between atoms: S_9  and  C_12
REMARK                            x       y       z     vdW  Elec       q    Type
REMARK                         _______ _______ _______ _____ _____    ______ ____
ROOT
ATOM      1  S   UNL     1       7.251   5.352  17.145  0.00  0.00    +0.000 S 
ATOM      2  O   UNL     1       7.971   4.090  17.093  0.00  0.00    +0.000 OA
ATOM      3  O   UNL     1       7.684   6.400  18.029  0.00  0.00    +0.000 OA
ENDROOT
BRANCH   1   4
ATOM      4  C   UNL     1       5.544   4.980  17.466  0.00  0.00    +0.000 A 
ATOM      5  C   UNL     1       5.116   3.631  17.559  0.00  0.00    +0.000 A 
ATOM      6  C   UNL     1       3.881   3.339  18.154  0.00  0.00    +0.000 A 
ATOM      7  C   UNL     1       3.227   4.414  18.684  0.00  0.00    +0.000 A 
ATOM      8  C   UNL     1       3.540   5.748  18.452  0.00  0.00    +0.000 A 
ATOM      9  C   UNL     1       4.710   6.062  17.802  0.00  0.00    +0.000 A 
ATOM     10  C   UNL     1       2.476   6.583  19.098  0.00  0.00    +0.000 C 
ATOM     11  C   UNL     1       2.176   5.664  20.290  0.00  0.00    +0.000 C 
ATOM     12  N   UNL     1       2.266   4.328  19.675  0.00  0.00    +0.000 N 
ATOM     13  C   UNL     1       1.682   3.155  20.050  0.00  0.00    +0.000 C 
ATOM     14  O   UNL     1       0.920   3.064  21.007  0.00  0.00    +0.000 OA
ATOM     15  C   UNL     1       1.911   2.008  19.075  0.00  0.00    +0.000 C 
ATOM     16  C   UNL     1       3.270   1.982  18.338  0.00  0.00    +0.000 C 
ENDBRANCH   1   4
BRANCH   1  17
ATOM     17  N   UNL     1       7.180   5.915  15.560  0.00  0.00    +0.000 N 
ATOM     18  H   UNL     1       7.062   6.919  15.460  0.00  0.00    +0.000 HD
BRANCH  17  22
ATOM     19  C   UNL     1       5.832   3.485  12.387  0.00  0.00    +0.000 A 
ATOM     20  C   UNL     1       5.029   3.688  13.512  0.00  0.00    +0.000 A 
ATOM     21  C   UNL     1       5.473   4.483  14.573  0.00  0.00    +0.000 A 
ATOM     22  C   UNL     1       6.733   5.065  14.514  0.00  0.00    +0.000 A 
ATOM     23  C   UNL     1       7.551   4.853  13.404  0.00  0.00    +0.000 A 
ATOM     24  C   UNL     1       7.104   4.054  12.344  0.00  0.00    +0.000 A 
BRANCH  19  25
ATOM     25  O   UNL     1       5.273   2.709  11.405  0.00  0.00    +0.000 OA
BRANCH  25  27
ATOM     26  C   UNL     1       3.597   3.954  10.251  0.00  0.00    +0.000 C 
ATOM     27  C   UNL     1       3.860   2.818  11.226  0.00  0.00    +0.000 C 
ENDBRANCH  25  27
ENDBRANCH  19  25
ENDBRANCH  17  22
ENDBRANCH   1  17
TORSDOF 5
ENDMDL
MODEL 2
REMARK VINA RESULT:      -9.0      3.022      7.212
REMARK  Name = 
REMARK  6 active torsions:
REMARK  status: ('A' for Active; 'I' for Inactive)
REMARK    1  A    between atoms: C_1  and  C_2
REMARK    2  A    between atoms: C_2  and  O_3
REMARK    3  A    between atoms: O_3  and  C_4
REMARK    4  A    between atoms: C_7  and  N_8
REMARK    5  A    between atoms: N_8  and  S_9
REMARK    6  A    between atoms: S_9  and  C_12
REMARK                            x       y       z     vdW  Elec       q    Type
REMARK                         _______ _______ _______ _____ _____    ______ ____
ROOT
ATOM      1  S   UNL     1       2.509   4.474  19.830  0.00  0.00    +0.000 S 
ATOM      2  O   UNL     1       2.574   3.536  20.939  0.00  0.00    +0.000 OA
ATOM      3  O   UNL     1       1.355   4.507  18.972  0.00  0.00    +0.000 OA
ENDROOT
BRANCH   1   4
ATOM      4  C   UNL     1       3.968   4.234  18.843  0.00  0.00    +0.000 A 
ATOM      5  C   UNL     1       3.855   3.755  17.513  0.00  0.00    +0.000 A 
ATOM      6  C   UNL     1       4.936   3.903  16.633  0.00  0.00    +0.000 A 
ATOM      7  C   UNL     1       5.998   4.597  17.137  0.00  0.00    +0.000 A 
ATOM      8  C   UNL     1       6.197   4.916  18.474  0.00  0.00    +0.000 A 
ATOM      9  C   UNL     1       5.180   4.711  19.374  0.00  0.00    +0.000 A 
ATOM     10  C   UNL     1       7.557   5.537  18.595  0.00  0.00    +0.000 C 
ATOM     11  C   UNL     1       7.596   6.235  17.228  0.00  0.00    +0.000 C 
ATOM     12  N   UNL     1       6.944   5.241  16.359  0.00  0.00    +0.000 N 
ATOM     13  C   UNL     1       7.069   5.041  15.016  0.00  0.00    +0.000 C 
ATOM     14  O   UNL     1       7.827   5.699  14.311  0.00  0.00    +0.000 OA
ATOM     15  C   UNL     1       6.326   3.817  14.498  0.00  0.00    +0.000 C 
ATOM     16  C   UNL     1       4.996   3.461  15.202  0.00  0.00    +0.000 C 
ENDBRANCH   1   4
BRANCH   1  17
ATOM     17  N   UNL     1       2.795   5.997  20.487  0.00  0.00    +0.000 N 
ATOM     18  H   UNL     1       3.023   6.007  21.477  0.00  0.00    +0.000 HD
BRANCH  17  22
ATOM     19  C   UNL     1       1.161   9.484  18.766  0.00  0.00    +0.000 A 
ATOM     20  C   UNL     1       0.878   9.152  20.093  0.00  0.00    +0.000 A 
ATOM     21  C   UNL     1       1.408   7.992  20.668  0.00  0.00    +0.000 A 
ATOM     22  C   UNL     1       2.210   7.153  19.906  0.00  0.00    +0.000 A 
ATOM     23  C   UNL     1       2.482   7.464  18.573  0.00  0.00    +0.000 A 
ATOM     24  C   UNL     1       1.949   8.626  18.000  0.00  0.00    +0.000 A 
BRANCH  19  25
ATOM     25  O   UNL     1       0.605  10.658  18.329  0.00  0.00    +0.000 OA
BRANCH  25  27
ATOM     26  C   UNL     1      -1.605  10.181  17.568  0.00  0.00    +0.000 C 
ATOM     27  C   UNL     1      -0.773  10.871  18.636  0.00  0.00    +0.000 C 
ENDBRANCH  25  27
ENDBRANCH  19  25
ENDBRANCH  17  22
ENDBRANCH   1  17
TORSDOF 5
ENDMDL
MODEL 3
REMARK VINA RESULT:      -9.0      0.878      1.124
REMARK  Name = 
REMARK  6 active torsions:
REMARK  status: ('A' for Active; 'I' for Inactive)
REMARK    1  A    between atoms: C_1  and  C_2
REMARK    2  A    between atoms: C_2  and  O_3
REMARK    3  A    between atoms: O_3  and  C_4
REMARK    4  A    between atoms: C_7  and  N_8
REMARK    5  A    between atoms: N_8  and  S_9
REMARK    6  A    between atoms: S_9  and  C_12
REMARK                            x       y       z     vdW  Elec       q    Type
REMARK                         _______ _______ _______ _____ _____    ______ ____
ROOT
ATOM      1  S   UNL     1       7.168   5.426  17.154  0.00  0.00    +0.000 S 
ATOM      2  O   UNL     1       7.908   4.175  17.101  0.00  0.00    +0.000 OA
ATOM      3  O   UNL     1       7.603   6.492  18.016  0.00  0.00    +0.000 OA
ENDROOT
BRANCH   1   4
ATOM      4  C   UNL     1       5.474   5.030  17.518  0.00  0.00    +0.000 A 
ATOM      5  C   UNL     1       5.061   3.675  17.590  0.00  0.00    +0.000 A 
ATOM      6  C   UNL     1       3.848   3.358  18.215  0.00  0.00    +0.000 A 
ATOM      7  C   UNL     1       3.201   4.414  18.790  0.00  0.00    +0.000 A 
ATOM      8  C   UNL     1       3.495   5.755  18.581  0.00  0.00    +0.000 A 
ATOM      9  C   UNL     1       4.642   6.096  17.904  0.00  0.00    +0.000 A 
ATOM     10  C   UNL     1       2.444   6.564  19.279  0.00  0.00    +0.000 C 
ATOM     11  C   UNL     1       2.188   5.614  20.457  0.00  0.00    +0.000 C 
ATOM     12  N   UNL     1       2.271   4.295  19.807  0.00  0.00    +0.000 N 
ATOM     13  C   UNL     1       1.709   3.107  20.170  0.00  0.00    +0.000 C 
ATOM     14  O   UNL     1       0.977   2.986  21.147  0.00  0.00    +0.000 OA
ATOM     15  C   UNL     1       1.918   1.986  19.161  0.00  0.00    +0.000 C 
ATOM     16  C   UNL     1       3.254   1.991  18.383  0.00  0.00    +0.000 C 
ENDBRANCH   1   4
BRANCH   1  17
ATOM     17  N   UNL     1       7.053   5.968  15.565  0.00  0.00    +0.000 N 
ATOM     18  H   UNL     1       6.781   6.941  15.456  0.00  0.00    +0.000 HD
BRANCH  17  22
ATOM     19  C   UNL     1       6.201   3.350  12.369  0.00  0.00    +0.000 A 
ATOM     20  C   UNL     1       5.330   3.444  13.457  0.00  0.00    +0.000 A 
ATOM     21  C   UNL     1       5.611   4.301  14.526  0.00  0.00    +0.000 A 
ATOM     22  C   UNL     1       6.776   5.057  14.512  0.00  0.00    +0.000 A 
ATOM     23  C   UNL     1       7.663   4.956  13.439  0.00  0.00    +0.000 A 
ATOM     24  C   UNL     1       7.380   4.095  12.371  0.00  0.00    +0.000 A 
BRANCH  19  25
ATOM     25  O   UNL     1       5.800   2.497  11.375  0.00  0.00    +0.000 OA
BRANCH  25  27
ATOM     26  C   UNL     1       6.098   0.136  11.195  0.00  0.00    +0.000 C 
ATOM     27  C   UNL     1       6.736   1.497  10.969  0.00  0.00    +0.000 C 
ENDBRANCH  25  27
ENDBRANCH  19  25
ENDBRANCH  17  22
ENDBRANCH   1  17
TORSDOF 5
ENDMDL
MODEL 4
REMARK VINA RESULT:      -8.7      1.136      2.425
REMARK  Name = 
REMARK  6 active torsions:
REMARK  status: ('A' for Active; 'I' for Inactive)
REMARK    1  A    between atoms: C_1  and  C_2
REMARK    2  A    between atoms: C_2  and  O_3
REMARK    3  A    between atoms: O_3  and  C_4
REMARK    4  A    between atoms: C_7  and  N_8
REMARK    5  A    between atoms: N_8  and  S_9
REMARK    6  A    between atoms: S_9  and  C_12
REMARK                            x       y       z     vdW  Elec       q    Type
REMARK                         _______ _______ _______ _____ _____    ______ ____
ROOT
ATOM      1  S   UNL     1       6.847   6.396  17.423  0.00  0.00    +0.000 S 
ATOM      2  O   UNL     1       7.928   6.923  18.241  0.00  0.00    +0.000 OA
ATOM      3  O   UNL     1       6.135   7.256  16.517  0.00  0.00    +0.000 OA
ENDROOT
BRANCH   1   4
ATOM      4  C   UNL     1       5.690   5.604  18.515  0.00  0.00    +0.000 A 
ATOM      5  C   UNL     1       4.523   6.293  18.933  0.00  0.00    +0.000 A 
ATOM      6  C   UNL     1       3.456   5.570  19.484  0.00  0.00    +0.000 A 
ATOM      7  C   UNL     1       3.617   4.214  19.483  0.00  0.00    +0.000 A 
ATOM      8  C   UNL     1       4.808   3.539  19.245  0.00  0.00    +0.000 A 
ATOM      9  C   UNL     1       5.895   4.237  18.775  0.00  0.00    +0.000 A 
ATOM     10  C   UNL     1       4.563   2.082  19.498  0.00  0.00    +0.000 C 
ATOM     11  C   UNL     1       3.099   2.027  19.040  0.00  0.00    +0.000 C 
ATOM     12  N   UNL     1       2.574   3.308  19.544  0.00  0.00    +0.000 N 
ATOM     13  C   UNL     1       1.297   3.659  19.870  0.00  0.00    +0.000 C 
ATOM     14  O   UNL     1       0.354   2.877  19.808  0.00  0.00    +0.000 OA
ATOM     15  C   UNL     1       1.172   5.045  20.488  0.00  0.00    +0.000 C 
ATOM     16  C   UNL     1       2.154   6.125  19.978  0.00  0.00    +0.000 C 
ENDBRANCH   1   4
BRANCH   1  17
ATOM     17  N   UNL     1       7.488   5.076  16.597  0.00  0.00    +0.000 N 
ATOM     18  H   UNL     1       8.456   4.856  16.813  0.00  0.00    +0.000 HD
BRANCH  17  22
ATOM     19  C   UNL     1       5.964   3.831  12.867  0.00  0.00    +0.000 A 
ATOM     20  C   UNL     1       7.132   4.595  12.934  0.00  0.00    +0.000 A 
ATOM     21  C   UNL     1       7.637   5.020  14.166  0.00  0.00    +0.000 A 
ATOM     22  C   UNL     1       6.962   4.693  15.335  0.00  0.00    +0.000 A 
ATOM     23  C   UNL     1       5.784   3.948  15.279  0.00  0.00    +0.000 A 
ATOM     24  C   UNL     1       5.280   3.525  14.043  0.00  0.00    +0.000 A 
BRANCH  19  25
ATOM     25  O   UNL     1       5.587   3.453  11.604  0.00  0.00    +0.000 OA
BRANCH  25  27
ATOM     26  C   UNL     1       3.541   3.795  10.426  0.00  0.00    +0.000 C 
ATOM     27  C   UNL     1       4.263   2.940  11.454  0.00  0.00    +0.000 C 
ENDBRANCH  25  27
ENDBRANCH  19  25
ENDBRANCH  17  22
ENDBRANCH   1  17
TORSDOF 5
ENDMDL
MODEL 5
REMARK VINA RESULT:      -8.7      1.070      2.223
REMARK  Name = 
REMARK  6 active torsions:
REMARK  status: ('A' for Active; 'I' for Inactive)
REMARK    1  A    between atoms: C_1  and  C_2
REMARK    2  A    between atoms: C_2  and  O_3
REMARK    3  A    between atoms: O_3  and  C_4
REMARK    4  A    between atoms: C_7  and  N_8
REMARK    5  A    between atoms: N_8  and  S_9
REMARK    6  A    between atoms: S_9  and  C_12
REMARK                            x       y       z     vdW  Elec       q    Type
REMARK                         _______ _______ _______ _____ _____    ______ ____
ROOT
ATOM      1  S   UNL     1       6.457   6.443  16.537  0.00  0.00    +0.000 S 
ATOM      2  O   UNL     1       7.540   7.222  17.116  0.00  0.00    +0.000 OA
ATOM      3  O   UNL     1       5.558   7.042  15.588  0.00  0.00    +0.000 OA
ENDROOT
BRANCH   1   4
ATOM      4  C   UNL     1       5.520   5.752  17.879  0.00  0.00    +0.000 A 
ATOM      5  C   UNL     1       4.407   6.456  18.405  0.00  0.00    +0.000 A 
ATOM      6  C   UNL     1       3.471   5.774  19.195  0.00  0.00    +0.000 A 
ATOM      7  C   UNL     1       3.686   4.431  19.313  0.00  0.00    +0.000 A 
ATOM      8  C   UNL     1       4.851   3.762  18.959  0.00  0.00    +0.000 A 
ATOM      9  C   UNL     1       5.820   4.428  18.248  0.00  0.00    +0.000 A 
ATOM     10  C   UNL     1       4.709   2.337  19.403  0.00  0.00    +0.000 C 
ATOM     11  C   UNL     1       3.195   2.197  19.196  0.00  0.00    +0.000 C 
ATOM     12  N   UNL     1       2.703   3.513  19.639  0.00  0.00    +0.000 N 
ATOM     13  C   UNL     1       1.481   3.868  20.126  0.00  0.00    +0.000 C 
ATOM     14  O   UNL     1       0.572   3.062  20.301  0.00  0.00    +0.000 OA
ATOM     15  C   UNL     1       1.398   5.311  20.605  0.00  0.00    +0.000 C 
ATOM     16  C   UNL     1       2.241   6.351  19.830  0.00  0.00    +0.000 C 
ENDBRANCH   1   4
BRANCH   1  17
ATOM     17  N   UNL     1       7.170   5.067  15.880  0.00  0.00    +0.000 N 
ATOM     18  H   UNL     1       8.144   4.921  16.128  0.00  0.00    +0.000 HD
BRANCH  17  22
ATOM     19  C   UNL     1       5.686   3.523  12.246  0.00  0.00    +0.000 A 
ATOM     20  C   UNL     1       4.959   3.369  13.429  0.00  0.00    +0.000 A 
ATOM     21  C   UNL     1       5.449   3.868  14.639  0.00  0.00    +0.000 A 
ATOM     22  C   UNL     1       6.680   4.511  14.669  0.00  0.00    +0.000 A 
ATOM     23  C   UNL     1       7.424   4.653  13.498  0.00  0.00    +0.000 A 
ATOM     24  C   UNL     1       6.931   4.150  12.287  0.00  0.00    +0.000 A 
BRANCH  19  25
ATOM     25  O   UNL     1       5.087   3.015  11.123  0.00  0.00    +0.000 OA
BRANCH  25  27
ATOM     26  C   UNL     1       3.256   4.013   9.964  0.00  0.00    +0.000 C 
ATOM     27  C   UNL     1       3.660   3.062  11.079  0.00  0.00    +0.000 C 
ENDBRANCH  25  27
ENDBRANCH  19  25
ENDBRANCH  17  22
ENDBRANCH   1  17
TORSDOF 5
ENDMDL
MODEL 6
REMARK VINA RESULT:      -8.6      3.024      7.329
REMARK  Name = 
REMARK  6 active torsions:
REMARK  status: ('A' for Active; 'I' for Inactive)
REMARK    1  A    between atoms: C_1  and  C_2
REMARK    2  A    between atoms: C_2  and  O_3
REMARK    3  A    between atoms: O_3  and  C_4
REMARK    4  A    between atoms: C_7  and  N_8
REMARK    5  A    between atoms: N_8  and  S_9
REMARK    6  A    between atoms: S_9  and  C_12
REMARK                            x       y       z     vdW  Elec       q    Type
REMARK                         _______ _______ _______ _____ _____    ______ ____
ROOT
ATOM      1  S   UNL     1       2.376   4.305  19.735  0.00  0.00    +0.000 S 
ATOM      2  O   UNL     1       2.366   3.261  20.747  0.00  0.00    +0.000 OA
ATOM      3  O   UNL     1       1.267   4.453  18.832  0.00  0.00    +0.000 OA
ENDROOT
BRANCH   1   4
ATOM      4  C   UNL     1       3.877   4.126  18.799  0.00  0.00    +0.000 A 
ATOM      5  C   UNL     1       3.828   3.659  17.462  0.00  0.00    +0.000 A 
ATOM      6  C   UNL     1       4.934   3.854  16.623  0.00  0.00    +0.000 A 
ATOM      7  C   UNL     1       5.953   4.579  17.172  0.00  0.00    +0.000 A 
ATOM      8  C   UNL     1       6.093   4.889  18.519  0.00  0.00    +0.000 A 
ATOM      9  C   UNL     1       5.052   4.638  19.379  0.00  0.00    +0.000 A 
ATOM     10  C   UNL     1       7.425   5.555  18.695  0.00  0.00    +0.000 C 
ATOM     11  C   UNL     1       7.489   6.270  17.339  0.00  0.00    +0.000 C 
ATOM     12  N   UNL     1       6.904   5.264  16.436  0.00  0.00    +0.000 N 
ATOM     13  C   UNL     1       7.084   5.084  15.097  0.00  0.00    +0.000 C 
ATOM     14  O   UNL     1       7.843   5.776  14.426  0.00  0.00    +0.000 OA
ATOM     15  C   UNL     1       6.403   3.841  14.539  0.00  0.00    +0.000 C 
ATOM     16  C   UNL     1       5.062   3.431  15.190  0.00  0.00    +0.000 C 
ENDBRANCH   1   4
BRANCH   1  17
ATOM     17  N   UNL     1       2.661   5.747  20.555  0.00  0.00    +0.000 N 
ATOM     18  H   UNL     1       2.738   5.665  21.564  0.00  0.00    +0.000 HD
BRANCH  17  22
ATOM     19  C   UNL     1       1.323   9.383  18.888  0.00  0.00    +0.000 A 
ATOM     20  C   UNL     1       2.095   8.500  18.129  0.00  0.00    +0.000 A 
ATOM     21  C   UNL     1       2.552   7.298  18.679  0.00  0.00    +0.000 A 
ATOM     22  C   UNL     1       2.247   6.986  19.997  0.00  0.00    +0.000 A 
ATOM     23  C   UNL     1       1.493   7.869  20.770  0.00  0.00    +0.000 A 
ATOM     24  C   UNL     1       1.038   9.073  20.217  0.00  0.00    +0.000 A 
BRANCH  19  25
ATOM     25  O   UNL     1       0.914  10.513  18.228  0.00  0.00    +0.000 OA
BRANCH  25  27
ATOM     26  C   UNL     1       1.790  12.718  18.482  0.00  0.00    +0.000 C 
ATOM     27  C   UNL     1       0.788  11.703  19.008  0.00  0.00    +0.000 C 
ENDBRANCH  25  27
ENDBRANCH  19  25
ENDBRANCH  17  22
ENDBRANCH   1  17
TORSDOF 5
ENDMDL
MODEL 7
REMARK VINA RESULT:      -8.4      3.573      6.122
REMARK  Name = 
REMARK  6 active torsions:
REMARK  status: ('A' for Active; 'I' for Inactive)
REMARK    1  A    between atoms: C_1  and  C_2
REMARK    2  A    between atoms: C_2  and  O_3
REMARK    3  A    between atoms: O_3  and  C_4
REMARK    4  A    between atoms: C_7  and  N_8
REMARK    5  A    between atoms: N_8  and  S_9
REMARK    6  A    between atoms: S_9  and  C_12
REMARK                            x       y       z     vdW  Elec       q    Type
REMARK                         _______ _______ _______ _____ _____    ______ ____
ROOT
ATOM      1  S   UNL     1       1.694   3.745  19.075  0.00  0.00    +0.000 S 
ATOM      2  O   UNL     1       1.218   3.607  17.708  0.00  0.00    +0.000 OA
ATOM      3  O   UNL     1       0.937   3.194  20.167  0.00  0.00    +0.000 OA
ENDROOT
BRANCH   1   4
ATOM      4  C   UNL     1       1.976   5.475  19.370  0.00  0.00    +0.000 A 
ATOM      5  C   UNL     1       2.266   6.342  18.286  0.00  0.00    +0.000 A 
ATOM      6  C   UNL     1       2.135   7.727  18.458  0.00  0.00    +0.000 A 
ATOM      7  C   UNL     1       1.640   8.113  19.671  0.00  0.00    +0.000 A 
ATOM      8  C   UNL     1       1.519   7.302  20.792  0.00  0.00    +0.000 A 
ATOM      9  C   UNL     1       1.716   5.948  20.669  0.00  0.00    +0.000 A 
ATOM     10  C   UNL     1       1.082   8.170  21.935  0.00  0.00    +0.000 C 
ATOM     11  C   UNL     1       0.226   9.162  21.136  0.00  0.00    +0.000 C 
ATOM     12  N   UNL     1       1.018   9.327  19.905  0.00  0.00    +0.000 N 
ATOM     13  C   UNL     1       1.059  10.369  19.027  0.00  0.00    +0.000 C 
ATOM     14  O   UNL     1       0.410  11.399  19.183  0.00  0.00    +0.000 OA
ATOM     15  C   UNL     1       2.112  10.222  17.937  0.00  0.00    +0.000 C 
ATOM     16  C   UNL     1       2.396   8.789  17.432  0.00  0.00    +0.000 C 
ENDBRANCH   1   4
BRANCH   1  17
ATOM     17  N   UNL     1       3.265   3.141  19.087  0.00  0.00    +0.000 N 
ATOM     18  H   UNL     1       3.448   2.422  19.781  0.00  0.00    +0.000 HD
BRANCH  17  22
ATOM     19  C   UNL     1       6.536   5.403  17.684  0.00  0.00    +0.000 A 
ATOM     20  C   UNL     1       6.204   5.407  19.041  0.00  0.00    +0.000 A 
ATOM     21  C   UNL     1       5.114   4.668  19.512  0.00  0.00    +0.000 A 
ATOM     22  C   UNL     1       4.345   3.935  18.619  0.00  0.00    +0.000 A 
ATOM     23  C   UNL     1       4.655   3.939  17.259  0.00  0.00    +0.000 A 
ATOM     24  C   UNL     1       5.746   4.681  16.790  0.00  0.00    +0.000 A 
BRANCH  19  25
ATOM     25  O   UNL     1       7.641   6.143  17.353  0.00  0.00    +0.000 OA
BRANCH  25  27
ATOM     26  C   UNL     1       7.915   8.494  17.656  0.00  0.00    +0.000 C 
ATOM     27  C   UNL     1       8.064   7.125  18.300  0.00  0.00    +0.000 C 
ENDBRANCH  25  27
ENDBRANCH  19  25
ENDBRANCH  17  22
ENDBRANCH   1  17
TORSDOF 5
ENDMDL
MODEL 8
REMARK VINA RESULT:      -8.4      1.112      1.504
REMARK  Name = 
REMARK  6 active torsions:
REMARK  status: ('A' for Active; 'I' for Inactive)
REMARK    1  A    between atoms: C_1  and  C_2
REMARK    2  A    between atoms: C_2  and  O_3
REMARK    3  A    between atoms: O_3  and  C_4
REMARK    4  A    between atoms: C_7  and  N_8
REMARK    5  A    between atoms: N_8  and  S_9
REMARK    6  A    between atoms: S_9  and  C_12
REMARK                            x       y       z     vdW  Elec       q    Type
REMARK                         _______ _______ _______ _____ _____    ______ ____
ROOT
ATOM      1  S   UNL     1       6.898   6.260  17.308  0.00  0.00    +0.000 S 
ATOM      2  O   UNL     1       7.779   6.456  18.447  0.00  0.00    +0.000 OA
ATOM      3  O   UNL     1       6.494   7.380  16.500  0.00  0.00    +0.000 OA
ENDROOT
BRANCH   1   4
ATOM      4  C   UNL     1       5.453   5.406  17.891  0.00  0.00    +0.000 A 
ATOM      5  C   UNL     1       5.576   4.122  18.478  0.00  0.00    +0.000 A 
ATOM      6  C   UNL     1       4.521   3.611  19.247  0.00  0.00    +0.000 A 
ATOM      7  C   UNL     1       3.476   4.470  19.434  0.00  0.00    +0.000 A 
ATOM      8  C   UNL     1       3.260   5.648  18.731  0.00  0.00    +0.000 A 
ATOM      9  C   UNL     1       4.249   6.133  17.910  0.00  0.00    +0.000 A 
ATOM     10  C   UNL     1       1.923   6.186  19.146  0.00  0.00    +0.000 C 
ATOM     11  C   UNL     1       1.940   5.703  20.603  0.00  0.00    +0.000 C 
ATOM     12  N   UNL     1       2.572   4.379  20.477  0.00  0.00    +0.000 N 
ATOM     13  C   UNL     1       2.469   3.284  21.283  0.00  0.00    +0.000 C 
ATOM     14  O   UNL     1       1.752   3.252  22.278  0.00  0.00    +0.000 OA
ATOM     15  C   UNL     1       3.174   2.047  20.744  0.00  0.00    +0.000 C 
ATOM     16  C   UNL     1       4.474   2.282  19.940  0.00  0.00    +0.000 C 
ENDBRANCH   1   4
BRANCH   1  17
ATOM     17  N   UNL     1       7.623   5.080  16.352  0.00  0.00    +0.000 N 
ATOM     18  H   UNL     1       8.627   4.980  16.472  0.00  0.00    +0.000 HD
BRANCH  17  22
ATOM     19  C   UNL     1       5.925   3.829  12.700  0.00  0.00    +0.000 A 
ATOM     20  C   UNL     1       7.101   4.582  12.710  0.00  0.00    +0.000 A 
ATOM     21  C   UNL     1       7.665   5.009  13.917  0.00  0.00    +0.000 A 
ATOM     22  C   UNL     1       7.039   4.696  15.116  0.00  0.00    +0.000 A 
ATOM     23  C   UNL     1       5.853   3.962  15.116  0.00  0.00    +0.000 A 
ATOM     24  C   UNL     1       5.290   3.535  13.906  0.00  0.00    +0.000 A 
BRANCH  19  25
ATOM     25  O   UNL     1       5.489   3.447  11.457  0.00  0.00    +0.000 OA
BRANCH  25  27
ATOM     26  C   UNL     1       3.427   3.837  10.322  0.00  0.00    +0.000 C 
ATOM     27  C   UNL     1       4.140   2.988  11.362  0.00  0.00    +0.000 C 
ENDBRANCH  25  27
ENDBRANCH  19  25
ENDBRANCH  17  22
ENDBRANCH   1  17
TORSDOF 5
ENDMDL
MODEL 9
REMARK VINA RESULT:      -8.3      1.427      2.211
REMARK  Name = 
REMARK  6 active torsions:
REMARK  status: ('A' for Active; 'I' for Inactive)
REMARK    1  A    between atoms: C_1  and  C_2
REMARK    2  A    between atoms: C_2  and  O_3
REMARK    3  A    between atoms: O_3  and  C_4
REMARK    4  A    between atoms: C_7  and  N_8
REMARK    5  A    between atoms: N_8  and  S_9
REMARK    6  A    between atoms: S_9  and  C_12
REMARK                            x       y       z     vdW  Elec       q    Type
REMARK                         _______ _______ _______ _____ _____    ______ ____
ROOT
ATOM      1  S   UNL     1       7.074   6.286  17.566  0.00  0.00    +0.000 S 
ATOM      2  O   UNL     1       8.022   6.567  18.633  0.00  0.00    +0.000 OA
ATOM      3  O   UNL     1       6.658   7.330  16.670  0.00  0.00    +0.000 OA
ENDROOT
BRANCH   1   4
ATOM      4  C   UNL     1       5.641   5.542  18.308  0.00  0.00    +0.000 A 
ATOM      5  C   UNL     1       4.343   5.935  17.896  0.00  0.00    +0.000 A 
ATOM      6  C   UNL     1       3.245   5.120  18.205  0.00  0.00    +0.000 A 
ATOM      7  C   UNL     1       3.557   3.942  18.821  0.00  0.00    +0.000 A 
ATOM      8  C   UNL     1       4.786   3.623  19.385  0.00  0.00    +0.000 A 
ATOM      9  C   UNL     1       5.864   4.445  19.161  0.00  0.00    +0.000 A 
ATOM     10  C   UNL     1       4.636   2.306  20.085  0.00  0.00    +0.000 C 
ATOM     11  C   UNL     1       3.609   1.674  19.136  0.00  0.00    +0.000 C 
ATOM     12  N   UNL     1       2.744   2.822  18.814  0.00  0.00    +0.000 N 
ATOM     13  C   UNL     1       1.440   2.848  18.417  0.00  0.00    +0.000 C 
ATOM     14  O   UNL     1       0.758   1.835  18.299  0.00  0.00    +0.000 OA
ATOM     15  C   UNL     1       0.851   4.248  18.308  0.00  0.00    +0.000 C 
ATOM     16  C   UNL     1       1.810   5.373  17.852  0.00  0.00    +0.000 C 
ENDBRANCH   1   4
BRANCH   1  17
ATOM     17  N   UNL     1       7.715   4.992  16.701  0.00  0.00    +0.000 N 
ATOM     18  H   UNL     1       8.672   4.743  16.936  0.00  0.00    +0.000 HD
BRANCH  17  22
ATOM     19  C   UNL     1       6.210   4.166  12.848  0.00  0.00    +0.000 A 
ATOM     20  C   UNL     1       5.563   3.668  13.981  0.00  0.00    +0.000 A 
ATOM     21  C   UNL     1       6.062   3.929  15.262  0.00  0.00    +0.000 A 
ATOM     22  C   UNL     1       7.222   4.677  15.407  0.00  0.00    +0.000 A 
ATOM     23  C   UNL     1       7.888   5.163  14.282  0.00  0.00    +0.000 A 
ATOM     24  C   UNL     1       7.387   4.899  13.001  0.00  0.00    +0.000 A 
BRANCH  19  25
ATOM     25  O   UNL     1       5.608   3.866  11.654  0.00  0.00    +0.000 OA
BRANCH  25  27
ATOM     26  C   UNL     1       3.538   3.217  10.661  0.00  0.00    +0.000 C 
ATOM     27  C   UNL     1       4.606   2.848  11.678  0.00  0.00    +0.000 C 
ENDBRANCH  25  27
ENDBRANCH  19  25
ENDBRANCH  17  22
ENDBRANCH   1  17
TORSDOF 5
ENDMDL
