MODEL 1
REMARK VINA RESULT:      -7.3      0.000      0.000
REMARK  Name = 
REMARK  5 active torsions:
REMARK  status: ('A' for Active; 'I' for Inactive)
REMARK    1  A    between atoms: C_1  and  C_2
REMARK    2  A    between atoms: C_6  and  C_7
REMARK    3  A    between atoms: C_15  and  C_16
REMARK    4  A    between atoms: C_16  and  O_17
REMARK    5  A    between atoms: O_17  and  C_18
REMARK                            x       y       z     vdW  Elec       q    Type
REMARK                         _______ _______ _______ _____ _____    ______ ____
ROOT
ATOM      1  C   UNL     1       3.668   2.663  18.654  0.00  0.00    +0.000 C 
ATOM      2  O   UNL     1       3.896   1.615  18.038  0.00  0.00    +0.000 OA
ATOM      3  N   UNL     1       4.275   3.873  18.249  0.00  0.00    +0.000 N 
ATOM      4  C   UNL     1       3.988   5.183  18.854  0.00  0.00    +0.000 C 
ATOM      5  C   UNL     1       3.898   6.315  17.843  0.00  0.00    +0.000 C 
ATOM      6  N   UNL     1       4.747   6.078  16.710  0.00  0.00    +0.000 N 
ATOM      7  N   UNL     1       4.822   6.964  15.712  0.00  0.00    +0.000 NA
ATOM      8  N   UNL     1       5.696   6.488  14.840  0.00  0.00    +0.000 NA
ATOM      9  C   UNL     1       6.150   5.272  15.298  0.00  0.00    +0.000 A 
ATOM     10  C   UNL     1       5.488   4.963  16.476  0.00  0.00    +0.000 A 
ATOM     11  C   UNL     1       5.479   3.813  17.417  0.00  0.00    +0.000 C 
ENDROOT
BRANCH   1  17
ATOM     12  C   UNL     1       0.357   2.726  18.847  0.00  0.00    +0.000 C 
ATOM     13  C   UNL     1       1.379   2.714  19.925  0.00  0.00    +0.000 A 
ATOM     14  C   UNL     1       1.102   2.754  21.325  0.00  0.00    +0.000 A 
ATOM     15  C   UNL     1       2.310   2.729  21.965  0.00  0.00    +0.000 A 
ATOM     16  O   UNL     1       3.312   2.638  21.066  0.00  0.00    +0.000 OA
ATOM     17  C   UNL     1       2.767   2.694  19.805  0.00  0.00    +0.000 A 
ENDBRANCH   1  17
BRANCH   9  18
ATOM     18  C   UNL     1       7.197   4.547  14.531  0.00  0.00    +0.000 C 
BRANCH  18  19
ATOM     19  O   UNL     1       7.012   4.749  13.125  0.00  0.00    +0.000 OA
BRANCH  19  20
ATOM     20  C   UNL     1       6.521   3.704  12.399  0.00  0.00    +0.000 A 
ATOM     21  C   UNL     1       5.182   3.424  12.146  0.00  0.00    +0.000 A 
ATOM     22  C   UNL     1       4.843   2.298  11.394  0.00  0.00    +0.000 A 
ATOM     23  C   UNL     1       5.860   1.486  10.916  0.00  0.00    +0.000 A 
ATOM     24  N   UNL     1       7.167   1.726  11.136  0.00  0.00    +0.000 NA
ATOM     25  C   UNL     1       7.465   2.828  11.867  0.00  0.00    +0.000 A 
ENDBRANCH  19  20
ENDBRANCH  18  19
ENDBRANCH   9  18
TORSDOF 4
ENDMDL
MODEL 2
REMARK VINA RESULT:      -7.2      1.590      1.763
REMARK  Name = 
REMARK  5 active torsions:
REMARK  status: ('A' for Active; 'I' for Inactive)
REMARK    1  A    between atoms: C_1  and  C_2
REMARK    2  A    between atoms: C_6  and  C_7
REMARK    3  A    between atoms: C_15  and  C_16
REMARK    4  A    between atoms: C_16  and  O_17
REMARK    5  A    between atoms: O_17  and  C_18
REMARK                            x       y       z     vdW  Elec       q    Type
REMARK                         _______ _______ _______ _____ _____    ______ ____
ROOT
ATOM      1  C   UNL     1       2.898   3.733  18.102  0.00  0.00    +0.000 C 
ATOM      2  O   UNL     1       2.247   3.710  17.050  0.00  0.00    +0.000 OA
ATOM      3  N   UNL     1       4.278   4.035  18.078  0.00  0.00    +0.000 N 
ATOM      4  C   UNL     1       5.111   4.184  19.282  0.00  0.00    +0.000 C 
ATOM      5  C   UNL     1       6.108   5.329  19.196  0.00  0.00    +0.000 C 
ATOM      6  N   UNL     1       6.533   5.556  17.844  0.00  0.00    +0.000 N 
ATOM      7  N   UNL     1       7.421   6.512  17.556  0.00  0.00    +0.000 NA
ATOM      8  N   UNL     1       7.634   6.460  16.251  0.00  0.00    +0.000 NA
ATOM      9  C   UNL     1       6.841   5.467  15.720  0.00  0.00    +0.000 A 
ATOM     10  C   UNL     1       6.070   4.921  16.734  0.00  0.00    +0.000 A 
ATOM     11  C   UNL     1       5.012   3.883  16.819  0.00  0.00    +0.000 C 
ENDROOT
BRANCH   1  17
ATOM     12  C   UNL     1       1.721   5.767  20.442  0.00  0.00    +0.000 C 
ATOM     13  C   UNL     1       1.762   4.283  20.397  0.00  0.00    +0.000 A 
ATOM     14  C   UNL     1       1.295   3.411  21.427  0.00  0.00    +0.000 A 
ATOM     15  C   UNL     1       1.518   2.134  20.992  0.00  0.00    +0.000 A 
ATOM     16  O   UNL     1       2.053   2.150  19.754  0.00  0.00    +0.000 OA
ATOM     17  C   UNL     1       2.273   3.459  19.395  0.00  0.00    +0.000 A 
ENDBRANCH   1  17
BRANCH   9  18
ATOM     18  C   UNL     1       6.935   5.155  14.270  0.00  0.00    +0.000 C 
BRANCH  18  19
ATOM     19  O   UNL     1       6.746   3.751  14.051  0.00  0.00    +0.000 OA
BRANCH  19  20
ATOM     20  C   UNL     1       5.968   3.380  12.994  0.00  0.00    +0.000 A 
ATOM     21  C   UNL     1       4.759   3.951  12.610  0.00  0.00    +0.000 A 
ATOM     22  C   UNL     1       4.074   3.440  11.506  0.00  0.00    +0.000 A 
ATOM     23  C   UNL     1       4.625   2.370  10.819  0.00  0.00    +0.000 A 
ATOM     24  N   UNL     1       5.794   1.792  11.157  0.00  0.00    +0.000 NA
ATOM     25  C   UNL     1       6.437   2.312  12.232  0.00  0.00    +0.000 A 
ENDBRANCH  19  20
ENDBRANCH  18  19
ENDBRANCH   9  18
TORSDOF 4
ENDMDL
MODEL 3
REMARK VINA RESULT:      -7.1      1.636      1.938
REMARK  Name = 
REMARK  5 active torsions:
REMARK  status: ('A' for Active; 'I' for Inactive)
REMARK    1  A    between atoms: C_1  and  C_2
REMARK    2  A    between atoms: C_6  and  C_7
REMARK    3  A    between atoms: C_15  and  C_16
REMARK    4  A    between atoms: C_16  and  O_17
REMARK    5  A    between atoms: O_17  and  C_18
REMARK                            x       y       z     vdW  Elec       q    Type
REMARK                         _______ _______ _______ _____ _____    ______ ____
ROOT
ATOM      1  C   UNL     1       2.971   3.675  18.030  0.00  0.00    +0.000 C 
ATOM      2  O   UNL     1       2.343   3.597  16.968  0.00  0.00    +0.000 OA
ATOM      3  N   UNL     1       4.350   3.986  18.021  0.00  0.00    +0.000 N 
ATOM      4  C   UNL     1       5.155   4.199  19.233  0.00  0.00    +0.000 C 
ATOM      5  C   UNL     1       6.147   5.346  19.112  0.00  0.00    +0.000 C 
ATOM      6  N   UNL     1       6.599   5.511  17.760  0.00  0.00    +0.000 N 
ATOM      7  N   UNL     1       7.487   6.459  17.445  0.00  0.00    +0.000 NA
ATOM      8  N   UNL     1       7.728   6.345  16.149  0.00  0.00    +0.000 NA
ATOM      9  C   UNL     1       6.953   5.322  15.650  0.00  0.00    +0.000 A 
ATOM     10  C   UNL     1       6.164   4.820  16.673  0.00  0.00    +0.000 A 
ATOM     11  C   UNL     1       5.111   3.779  16.786  0.00  0.00    +0.000 C 
ENDROOT
BRANCH   1  17
ATOM     12  C   UNL     1       1.883   5.813  20.321  0.00  0.00    +0.000 C 
ATOM     13  C   UNL     1       1.846   4.328  20.303  0.00  0.00    +0.000 A 
ATOM     14  C   UNL     1       1.324   3.503  21.345  0.00  0.00    +0.000 A 
ATOM     15  C   UNL     1       1.481   2.208  20.936  0.00  0.00    +0.000 A 
ATOM     16  O   UNL     1       2.028   2.172  19.702  0.00  0.00    +0.000 OA
ATOM     17  C   UNL     1       2.321   3.460  19.322  0.00  0.00    +0.000 A 
ENDBRANCH   1  17
BRANCH   9  18
ATOM     18  C   UNL     1       7.080   4.940  14.219  0.00  0.00    +0.000 C 
BRANCH  18  19
ATOM     19  O   UNL     1       5.803   4.559  13.692  0.00  0.00    +0.000 OA
BRANCH  19  20
ATOM     20  C   UNL     1       5.785   3.592  12.730  0.00  0.00    +0.000 A 
ATOM     21  C   UNL     1       6.866   2.833  12.292  0.00  0.00    +0.000 A 
ATOM     22  C   UNL     1       6.681   1.888  11.281  0.00  0.00    +0.000 A 
ATOM     23  C   UNL     1       5.415   1.733  10.739  0.00  0.00    +0.000 A 
ATOM     24  N   UNL     1       4.343   2.446  11.137  0.00  0.00    +0.000 NA
ATOM     25  C   UNL     1       4.554   3.353  12.123  0.00  0.00    +0.000 A 
ENDBRANCH  19  20
ENDBRANCH  18  19
ENDBRANCH   9  18
TORSDOF 4
ENDMDL
MODEL 4
REMARK VINA RESULT:      -7.1      4.336      6.665
REMARK  Name = 
REMARK  5 active torsions:
REMARK  status: ('A' for Active; 'I' for Inactive)
REMARK    1  A    between atoms: C_1  and  C_2
REMARK    2  A    between atoms: C_6  and  C_7
REMARK    3  A    between atoms: C_15  and  C_16
REMARK    4  A    between atoms: C_16  and  O_17
REMARK    5  A    between atoms: O_17  and  C_18
REMARK                            x       y       z     vdW  Elec       q    Type
REMARK                         _______ _______ _______ _____ _____    ______ ____
ROOT
ATOM      1  C   UNL     1       3.341   4.851  19.148  0.00  0.00    +0.000 C 
ATOM      2  O   UNL     1       3.433   5.477  20.210  0.00  0.00    +0.000 OA
ATOM      3  N   UNL     1       4.105   5.238  18.024  0.00  0.00    +0.000 N 
ATOM      4  C   UNL     1       4.137   4.498  16.753  0.00  0.00    +0.000 C 
ATOM      5  C   UNL     1       5.523   4.414  16.133  0.00  0.00    +0.000 C 
ATOM      6  N   UNL     1       6.317   5.564  16.458  0.00  0.00    +0.000 N 
ATOM      7  N   UNL     1       7.565   5.689  15.995  0.00  0.00    +0.000 NA
ATOM      8  N   UNL     1       8.023   6.850  16.433  0.00  0.00    +0.000 NA
ATOM      9  C   UNL     1       7.046   7.442  17.202  0.00  0.00    +0.000 A 
ATOM     10  C   UNL     1       5.961   6.584  17.283  0.00  0.00    +0.000 A 
ATOM     11  C   UNL     1       4.647   6.599  17.975  0.00  0.00    +0.000 C 
ENDROOT
BRANCH   1  17
ATOM     12  C   UNL     1       3.977   1.597  19.059  0.00  0.00    +0.000 C 
ATOM     13  C   UNL     1       2.683   2.322  18.980  0.00  0.00    +0.000 A 
ATOM     14  C   UNL     1       1.402   1.710  18.818  0.00  0.00    +0.000 A 
ATOM     15  C   UNL     1       0.484   2.723  18.792  0.00  0.00    +0.000 A 
ATOM     16  O   UNL     1       1.097   3.913  18.963  0.00  0.00    +0.000 OA
ATOM     17  C   UNL     1       2.454   3.696  19.014  0.00  0.00    +0.000 A 
ENDBRANCH   1  17
BRANCH   9  18
ATOM     18  C   UNL     1       7.282   8.797  17.768  0.00  0.00    +0.000 C 
BRANCH  18  19
ATOM     19  O   UNL     1       8.591   8.872  18.346  0.00  0.00    +0.000 OA
BRANCH  19  20
ATOM     20  C   UNL     1       8.991  10.080  18.837  0.00  0.00    +0.000 A 
ATOM     21  C   UNL     1       9.279  10.384  20.165  0.00  0.00    +0.000 A 
ATOM     22  C   UNL     1       9.664  11.681  20.507  0.00  0.00    +0.000 A 
ATOM     23  C   UNL     1       9.750  12.636  19.506  0.00  0.00    +0.000 A 
ATOM     24  N   UNL     1       9.483  12.380  18.210  0.00  0.00    +0.000 NA
ATOM     25  C   UNL     1       9.115  11.110  17.908  0.00  0.00    +0.000 A 
ENDBRANCH  19  20
ENDBRANCH  18  19
ENDBRANCH   9  18
TORSDOF 4
ENDMDL
MODEL 5
REMARK VINA RESULT:      -7.1      3.880      5.938
REMARK  Name = 
REMARK  5 active torsions:
REMARK  status: ('A' for Active; 'I' for Inactive)
REMARK    1  A    between atoms: C_1  and  C_2
REMARK    2  A    between atoms: C_6  and  C_7
REMARK    3  A    between atoms: C_15  and  C_16
REMARK    4  A    between atoms: C_16  and  O_17
REMARK    5  A    between atoms: O_17  and  C_18
REMARK                            x       y       z     vdW  Elec       q    Type
REMARK                         _______ _______ _______ _____ _____    ______ ____
ROOT
ATOM      1  C   UNL     1       1.958   8.085  19.494  0.00  0.00    +0.000 C 
ATOM      2  O   UNL     1       2.577   8.717  18.629  0.00  0.00    +0.000 OA
ATOM      3  N   UNL     1       2.006   6.673  19.516  0.00  0.00    +0.000 N 
ATOM      4  C   UNL     1       1.387   5.843  20.560  0.00  0.00    +0.000 C 
ATOM      5  C   UNL     1       2.242   4.657  20.982  0.00  0.00    +0.000 C 
ATOM      6  N   UNL     1       3.054   4.182  19.899  0.00  0.00    +0.000 N 
ATOM      7  N   UNL     1       3.868   3.134  20.061  0.00  0.00    +0.000 NA
ATOM      8  N   UNL     1       4.454   2.918  18.894  0.00  0.00    +0.000 NA
ATOM      9  C   UNL     1       4.010   3.867  18.002  0.00  0.00    +0.000 A 
ATOM     10  C   UNL     1       3.155   4.736  18.662  0.00  0.00    +0.000 A 
ATOM     11  C   UNL     1       2.401   5.963  18.297  0.00  0.00    +0.000 C 
ENDROOT
BRANCH   1  17
ATOM     12  C   UNL     1      -0.684  10.078  19.265  0.00  0.00    +0.000 C 
ATOM     13  C   UNL     1       0.053   9.599  20.463  0.00  0.00    +0.000 A 
ATOM     14  C   UNL     1      -0.248   9.952  21.813  0.00  0.00    +0.000 A 
ATOM     15  C   UNL     1       0.663   9.305  22.601  0.00  0.00    +0.000 A 
ATOM     16  O   UNL     1       1.481   8.548  21.841  0.00  0.00    +0.000 OA
ATOM     17  C   UNL     1       1.168   8.765  20.520  0.00  0.00    +0.000 A 
ENDBRANCH   1  17
BRANCH   9  18
ATOM     18  C   UNL     1       4.469   3.813  16.588  0.00  0.00    +0.000 C 
BRANCH  18  19
ATOM     19  O   UNL     1       5.898   3.893  16.526  0.00  0.00    +0.000 OA
BRANCH  19  20
ATOM     20  C   UNL     1       6.488   5.002  17.057  0.00  0.00    +0.000 A 
ATOM     21  C   UNL     1       6.297   6.320  16.653  0.00  0.00    +0.000 A 
ATOM     22  C   UNL     1       6.993   7.346  17.294  0.00  0.00    +0.000 A 
ATOM     23  C   UNL     1       7.861   7.018  18.324  0.00  0.00    +0.000 A 
ATOM     24  N   UNL     1       8.070   5.756  18.747  0.00  0.00    +0.000 NA
ATOM     25  C   UNL     1       7.377   4.782  18.107  0.00  0.00    +0.000 A 
ENDBRANCH  19  20
ENDBRANCH  18  19
ENDBRANCH   9  18
TORSDOF 4
ENDMDL
MODEL 6
REMARK VINA RESULT:      -7.0      3.584      5.090
REMARK  Name = 
REMARK  5 active torsions:
REMARK  status: ('A' for Active; 'I' for Inactive)
REMARK    1  A    between atoms: C_1  and  C_2
REMARK    2  A    between atoms: C_6  and  C_7
REMARK    3  A    between atoms: C_15  and  C_16
REMARK    4  A    between atoms: C_16  and  O_17
REMARK    5  A    between atoms: O_17  and  C_18
REMARK                            x       y       z     vdW  Elec       q    Type
REMARK                         _______ _______ _______ _____ _____    ______ ____
ROOT
ATOM      1  C   UNL     1       2.093   7.890  19.346  0.00  0.00    +0.000 C 
ATOM      2  O   UNL     1       2.788   8.421  18.472  0.00  0.00    +0.000 OA
ATOM      3  N   UNL     1       2.066   6.483  19.477  0.00  0.00    +0.000 N 
ATOM      4  C   UNL     1       1.351   5.767  20.544  0.00  0.00    +0.000 C 
ATOM      5  C   UNL     1       2.119   4.578  21.101  0.00  0.00    +0.000 C 
ATOM      6  N   UNL     1       2.961   3.981  20.104  0.00  0.00    +0.000 N 
ATOM      7  N   UNL     1       3.709   2.911  20.389  0.00  0.00    +0.000 NA
ATOM      8  N   UNL     1       4.343   2.577  19.277  0.00  0.00    +0.000 NA
ATOM      9  C   UNL     1       3.996   3.475  18.292  0.00  0.00    +0.000 A 
ATOM     10  C   UNL     1       3.154   4.432  18.836  0.00  0.00    +0.000 A 
ATOM     11  C   UNL     1       2.486   5.662  18.339  0.00  0.00    +0.000 C 
ENDROOT
BRANCH   1  17
ATOM     12  C   UNL     1      -0.306  10.117  18.810  0.00  0.00    +0.000 C 
ATOM     13  C   UNL     1       0.271   9.620  20.086  0.00  0.00    +0.000 A 
ATOM     14  C   UNL     1      -0.112  10.056  21.391  0.00  0.00    +0.000 A 
ATOM     15  C   UNL     1       0.657   9.356  22.279  0.00  0.00    +0.000 A 
ATOM     16  O   UNL     1       1.459   8.493  21.623  0.00  0.00    +0.000 OA
ATOM     17  C   UNL     1       1.287   8.684  20.272  0.00  0.00    +0.000 A 
ENDBRANCH   1  17
BRANCH   9  18
ATOM     18  C   UNL     1       4.524   3.288  16.914  0.00  0.00    +0.000 C 
BRANCH  18  19
ATOM     19  O   UNL     1       5.745   4.019  16.747  0.00  0.00    +0.000 OA
BRANCH  19  20
ATOM     20  C   UNL     1       6.187   4.220  15.472  0.00  0.00    +0.000 A 
ATOM     21  C   UNL     1       5.732   3.580  14.324  0.00  0.00    +0.000 A 
ATOM     22  C   UNL     1       6.303   3.891  13.089  0.00  0.00    +0.000 A 
ATOM     23  C   UNL     1       7.315   4.837  13.043  0.00  0.00    +0.000 A 
ATOM     24  N   UNL     1       7.780   5.481  14.132  0.00  0.00    +0.000 NA
ATOM     25  C   UNL     1       7.203   5.160  15.316  0.00  0.00    +0.000 A 
ENDBRANCH  19  20
ENDBRANCH  18  19
ENDBRANCH   9  18
TORSDOF 4
ENDMDL
MODEL 7
REMARK VINA RESULT:      -7.0      3.699      5.926
REMARK  Name = 
REMARK  5 active torsions:
REMARK  status: ('A' for Active; 'I' for Inactive)
REMARK    1  A    between atoms: C_1  and  C_2
REMARK    2  A    between atoms: C_6  and  C_7
REMARK    3  A    between atoms: C_15  and  C_16
REMARK    4  A    between atoms: C_16  and  O_17
REMARK    5  A    between atoms: O_17  and  C_18
REMARK                            x       y       z     vdW  Elec       q    Type
REMARK                         _______ _______ _______ _____ _____    ______ ____
ROOT
ATOM      1  C   UNL     1       2.062   7.842  19.385  0.00  0.00    +0.000 C 
ATOM      2  O   UNL     1       2.717   8.361  18.473  0.00  0.00    +0.000 OA
ATOM      3  N   UNL     1       2.034   6.437  19.531  0.00  0.00    +0.000 N 
ATOM      4  C   UNL     1       1.368   5.735  20.639  0.00  0.00    +0.000 C 
ATOM      5  C   UNL     1       2.156   4.547  21.169  0.00  0.00    +0.000 C 
ATOM      6  N   UNL     1       2.946   3.936  20.139  0.00  0.00    +0.000 N 
ATOM      7  N   UNL     1       3.702   2.865  20.398  0.00  0.00    +0.000 NA
ATOM      8  N   UNL     1       4.279   2.517  19.260  0.00  0.00    +0.000 NA
ATOM      9  C   UNL     1       3.890   3.406  18.284  0.00  0.00    +0.000 A 
ATOM     10  C   UNL     1       3.080   4.373  18.859  0.00  0.00    +0.000 A 
ATOM     11  C   UNL     1       2.395   5.602  18.382  0.00  0.00    +0.000 C 
ENDROOT
BRANCH   1  17
ATOM     12  C   UNL     1      -0.340  10.086  18.943  0.00  0.00    +0.000 C 
ATOM     13  C   UNL     1       0.290   9.592  20.194  0.00  0.00    +0.000 A 
ATOM     14  C   UNL     1      -0.029  10.041  21.512  0.00  0.00    +0.000 A 
ATOM     15  C   UNL     1       0.773   9.341  22.369  0.00  0.00    +0.000 A 
ATOM     16  O   UNL     1       1.538   8.466  21.683  0.00  0.00    +0.000 OA
ATOM     17  C   UNL     1       1.305   8.650  20.341  0.00  0.00    +0.000 A 
ENDBRANCH   1  17
BRANCH   9  18
ATOM     18  C   UNL     1       4.350   3.203  16.885  0.00  0.00    +0.000 C 
BRANCH  18  19
ATOM     19  O   UNL     1       4.688   4.460  16.286  0.00  0.00    +0.000 OA
BRANCH  19  20
ATOM     20  C   UNL     1       5.708   5.170  16.849  0.00  0.00    +0.000 A 
ATOM     21  C   UNL     1       6.767   4.657  17.592  0.00  0.00    +0.000 A 
ATOM     22  C   UNL     1       7.726   5.526  18.116  0.00  0.00    +0.000 A 
ATOM     23  C   UNL     1       7.593   6.885  17.876  0.00  0.00    +0.000 A 
ATOM     24  N   UNL     1       6.586   7.419  17.159  0.00  0.00    +0.000 NA
ATOM     25  C   UNL     1       5.672   6.550  16.661  0.00  0.00    +0.000 A 
ENDBRANCH  19  20
ENDBRANCH  18  19
ENDBRANCH   9  18
TORSDOF 4
ENDMDL
MODEL 8
REMARK VINA RESULT:      -7.0      4.365      6.549
REMARK  Name = 
REMARK  5 active torsions:
REMARK  status: ('A' for Active; 'I' for Inactive)
REMARK    1  A    between atoms: C_1  and  C_2
REMARK    2  A    between atoms: C_6  and  C_7
REMARK    3  A    between atoms: C_15  and  C_16
REMARK    4  A    between atoms: C_16  and  O_17
REMARK    5  A    between atoms: O_17  and  C_18
REMARK                            x       y       z     vdW  Elec       q    Type
REMARK                         _______ _______ _______ _____ _____    ______ ____
ROOT
ATOM      1  C   UNL     1       2.979   5.254  19.339  0.00  0.00    +0.000 C 
ATOM      2  O   UNL     1       3.009   6.094  20.246  0.00  0.00    +0.000 OA
ATOM      3  N   UNL     1       3.845   5.372  18.229  0.00  0.00    +0.000 N 
ATOM      4  C   UNL     1       3.952   4.373  17.155  0.00  0.00    +0.000 C 
ATOM      5  C   UNL     1       5.379   4.129  16.689  0.00  0.00    +0.000 C 
ATOM      6  N   UNL     1       6.187   5.307  16.828  0.00  0.00    +0.000 N 
ATOM      7  N   UNL     1       7.472   5.304  16.459  0.00  0.00    +0.000 NA
ATOM      8  N   UNL     1       7.937   6.524  16.676  0.00  0.00    +0.000 NA
ATOM      9  C   UNL     1       6.924   7.287  17.211  0.00  0.00    +0.000 A 
ATOM     10  C   UNL     1       5.804   6.488  17.380  0.00  0.00    +0.000 A 
ATOM     11  C   UNL     1       4.440   6.679  17.936  0.00  0.00    +0.000 C 
ENDROOT
BRANCH   1  17
ATOM     12  C   UNL     1       2.442   2.955  21.669  0.00  0.00    +0.000 C 
ATOM     13  C   UNL     1       1.805   3.137  20.339  0.00  0.00    +0.000 A 
ATOM     14  C   UNL     1       0.802   2.287  19.781  0.00  0.00    +0.000 A 
ATOM     15  C   UNL     1       0.493   2.801  18.552  0.00  0.00    +0.000 A 
ATOM     16  O   UNL     1       1.202   3.926  18.325  0.00  0.00    +0.000 OA
ATOM     17  C   UNL     1       2.063   4.114  19.380  0.00  0.00    +0.000 A 
ENDBRANCH   1  17
BRANCH   9  18
ATOM     18  C   UNL     1       7.164   8.728  17.491  0.00  0.00    +0.000 C 
BRANCH  18  19
ATOM     19  O   UNL     1       8.309   8.885  18.338  0.00  0.00    +0.000 OA
BRANCH  19  20
ATOM     20  C   UNL     1       8.788  10.149  18.519  0.00  0.00    +0.000 A 
ATOM     21  C   UNL     1       8.444  11.281  17.787  0.00  0.00    +0.000 A 
ATOM     22  C   UNL     1       9.040  12.506  18.090  0.00  0.00    +0.000 A 
ATOM     23  C   UNL     1       9.965  12.559  19.121  0.00  0.00    +0.000 A 
ATOM     24  N   UNL     1      10.322  11.486  19.855  0.00  0.00    +0.000 NA
ATOM     25  C   UNL     1       9.723  10.312  19.539  0.00  0.00    +0.000 A 
ENDBRANCH  19  20
ENDBRANCH  18  19
ENDBRANCH   9  18
TORSDOF 4
ENDMDL
MODEL 9
REMARK VINA RESULT:      -6.8      8.120     10.080
REMARK  Name = 
REMARK  5 active torsions:
REMARK  status: ('A' for Active; 'I' for Inactive)
REMARK    1  A    between atoms: C_1  and  C_2
REMARK    2  A    between atoms: C_6  and  C_7
REMARK    3  A    between atoms: C_15  and  C_16
REMARK    4  A    between atoms: C_16  and  O_17
REMARK    5  A    between atoms: O_17  and  C_18
REMARK                            x       y       z     vdW  Elec       q    Type
REMARK                         _______ _______ _______ _____ _____    ______ ____
ROOT
ATOM      1  C   UNL     1      -1.397  11.813  22.672  0.00  0.00    +0.000 C 
ATOM      2  O   UNL     1      -0.542  11.100  23.209  0.00  0.00    +0.000 OA
ATOM      3  N   UNL     1      -1.474  11.895  21.263  0.00  0.00    +0.000 N 
ATOM      4  C   UNL     1      -2.516  12.634  20.535  0.00  0.00    +0.000 C 
ATOM      5  C   UNL     1      -3.024  11.912  19.297  0.00  0.00    +0.000 C 
ATOM      6  N   UNL     1      -2.001  11.096  18.706  0.00  0.00    +0.000 N 
ATOM      7  N   UNL     1      -2.242  10.389  17.598  0.00  0.00    +0.000 NA
ATOM      8  N   UNL     1      -1.115   9.772  17.283  0.00  0.00    +0.000 NA
ATOM      9  C   UNL     1      -0.167  10.086  18.230  0.00  0.00    +0.000 A 
ATOM     10  C   UNL     1      -0.751  10.888  19.197  0.00  0.00    +0.000 A 
ATOM     11  C   UNL     1      -0.303  11.510  20.470  0.00  0.00    +0.000 C 
ENDROOT
BRANCH   1  17
ATOM     12  C   UNL     1      -1.258  14.895  23.891  0.00  0.00    +0.000 C 
ATOM     13  C   UNL     1      -2.336  13.877  23.982  0.00  0.00    +0.000 A 
ATOM     14  C   UNL     1      -3.574  14.045  24.675  0.00  0.00    +0.000 A 
ATOM     15  C   UNL     1      -4.274  12.882  24.515  0.00  0.00    +0.000 A 
ATOM     16  O   UNL     1      -3.577  12.021  23.745  0.00  0.00    +0.000 OA
ATOM     17  C   UNL     1      -2.357  12.585  23.461  0.00  0.00    +0.000 A 
ENDBRANCH   1  17
BRANCH   9  18
ATOM     18  C   UNL     1       1.219   9.569  18.076  0.00  0.00    +0.000 C 
BRANCH  18  19
ATOM     19  O   UNL     1       1.568   8.741  19.192  0.00  0.00    +0.000 OA
BRANCH  19  20
ATOM     20  C   UNL     1       2.347   7.649  18.945  0.00  0.00    +0.000 A 
ATOM     21  C   UNL     1       2.404   6.481  19.698  0.00  0.00    +0.000 A 
ATOM     22  C   UNL     1       3.271   5.456  19.316  0.00  0.00    +0.000 A 
ATOM     23  C   UNL     1       4.056   5.635  18.188  0.00  0.00    +0.000 A 
ATOM     24  N   UNL     1       4.027   6.749  17.431  0.00  0.00    +0.000 NA
ATOM     25  C   UNL     1       3.172   7.725  17.825  0.00  0.00    +0.000 A 
ENDBRANCH  19  20
ENDBRANCH  18  19
ENDBRANCH   9  18
TORSDOF 4
ENDMDL
