MODEL 1
REMARK VINA RESULT:      -7.8      0.000      0.000
REMARK  Name = 
REMARK  9 active torsions:
REMARK  status: ('A' for Active; 'I' for Inactive)
REMARK    1  A    between atoms: C_1  and  O_2
REMARK    2  A    between atoms: O_2  and  C_3
REMARK    3  A    between atoms: C_6  and  C_7
REMARK    4  A    between atoms: C_7  and  N_8
REMARK    5  A    between atoms: N_8  and  C_9
REMARK    6  A    between atoms: C_10  and  C_11
REMARK    7  A    between atoms: C_11  and  O_12
REMARK    8  A    between atoms: C_16  and  C_17
REMARK    9  A    between atoms: C_21  and  C_22
REMARK                            x       y       z     vdW  Elec       q    Type
REMARK                         _______ _______ _______ _____ _____    ______ ____
ROOT
ATOM      1  C   UNL     1       3.761   4.783  19.117  0.00  0.00    +0.000 A 
ATOM      2  C   UNL     1       3.015   3.609  18.859  0.00  0.00    +0.000 A 
ATOM      3  C   UNL     1       3.335   2.885  17.719  0.00  0.00    +0.000 A 
ATOM      4  N   UNL     1       4.314   3.206  16.850  0.00  0.00    +0.000 NA
ATOM      5  C   UNL     1       5.036   4.319  17.056  0.00  0.00    +0.000 A 
ATOM      6  C   UNL     1       6.037   4.650  16.110  0.00  0.00    +0.000 A 
ATOM      7  C   UNL     1       6.811   5.811  16.288  0.00  0.00    +0.000 A 
ATOM      8  C   UNL     1       6.609   6.637  17.371  0.00  0.00    +0.000 A 
ATOM      9  C   UNL     1       5.593   6.327  18.269  0.00  0.00    +0.000 A 
ATOM     10  C   UNL     1       4.794   5.160  18.177  0.00  0.00    +0.000 A 
ENDROOT
BRANCH   6  11
ATOM     11  C   UNL     1       6.271   3.798  14.870  0.00  0.00    +0.000 C 
ATOM     12  C   UNL     1       5.474   4.010  13.598  0.00  0.00    +0.000 C 
ATOM     13  C   UNL     1       6.914   4.417  13.652  0.00  0.00    +0.000 C 
ENDBRANCH   6  11
BRANCH   1  14
ATOM     14  N   UNL     1       3.364   5.570  20.223  0.00  0.00    +0.000 N 
ATOM     15  H   UNL     1       4.049   6.310  20.424  0.00  0.00    +0.000 HD
BRANCH  14  16
ATOM     16  C   UNL     1       1.999   6.030  20.396  0.00  0.00    +0.000 C 
BRANCH  16  20
ATOM     17  C   UNL     1       1.320  10.032  18.961  0.00  0.00    +0.000 A 
ATOM     18  C   UNL     1       1.911   9.069  18.134  0.00  0.00    +0.000 A 
ATOM     19  C   UNL     1       2.148   7.782  18.609  0.00  0.00    +0.000 A 
ATOM     20  C   UNL     1       1.809   7.442  19.921  0.00  0.00    +0.000 A 
ATOM     21  C   UNL     1       1.247   8.409  20.762  0.00  0.00    +0.000 A 
ATOM     22  C   UNL     1       1.003   9.696  20.285  0.00  0.00    +0.000 A 
ATOM     23 CL   UNL     1       0.255  10.832  21.353  0.00  0.00    +0.000 Cl
BRANCH  17  25
ATOM     24  C   UNL     1       2.194  12.157  18.413  0.00  0.00    +0.000 C 
ATOM     25  O   UNL     1       1.057  11.314  18.546  0.00  0.00    +0.000 OA
ENDBRANCH  17  25
ENDBRANCH  16  20
ENDBRANCH  14  16
ENDBRANCH   1  14
BRANCH   8  26
ATOM     26  C   UNL     1       7.431   7.786  17.592  0.00  0.00    +0.000 C 
ATOM     27  N   UNL     1       8.112   8.720  17.738  0.00  0.00    +0.000 NA
ENDBRANCH   8  26
BRANCH   2  28
ATOM     28  C   UNL     1       1.850   3.115  19.682  0.00  0.00    +0.000 C 
BRANCH  28  29
ATOM     29  O   UNL     1       2.247   2.623  20.960  0.00  0.00    +0.000 OA
ATOM     30  H   UNL     1       1.750   1.801  21.108  0.00  0.00    +0.000 HD
ENDBRANCH  28  29
ENDBRANCH   2  28
TORSDOF 8
ENDMDL
MODEL 2
REMARK VINA RESULT:      -7.4      2.545      4.393
REMARK  Name = 
REMARK  9 active torsions:
REMARK  status: ('A' for Active; 'I' for Inactive)
REMARK    1  A    between atoms: C_1  and  O_2
REMARK    2  A    between atoms: O_2  and  C_3
REMARK    3  A    between atoms: C_6  and  C_7
REMARK    4  A    between atoms: C_7  and  N_8
REMARK    5  A    between atoms: N_8  and  C_9
REMARK    6  A    between atoms: C_10  and  C_11
REMARK    7  A    between atoms: C_11  and  O_12
REMARK    8  A    between atoms: C_16  and  C_17
REMARK    9  A    between atoms: C_21  and  C_22
REMARK                            x       y       z     vdW  Elec       q    Type
REMARK                         _______ _______ _______ _____ _____    ______ ____
ROOT
ATOM      1  C   UNL     1       2.203   7.651  19.453  0.00  0.00    +0.000 A 
ATOM      2  C   UNL     1       1.427   7.356  20.598  0.00  0.00    +0.000 A 
ATOM      3  C   UNL     1       1.405   6.038  21.033  0.00  0.00    +0.000 A 
ATOM      4  N   UNL     1       2.080   5.023  20.458  0.00  0.00    +0.000 NA
ATOM      5  C   UNL     1       2.820   5.263  19.364  0.00  0.00    +0.000 A 
ATOM      6  C   UNL     1       3.494   4.172  18.761  0.00  0.00    +0.000 A 
ATOM      7  C   UNL     1       4.273   4.383  17.609  0.00  0.00    +0.000 A 
ATOM      8  C   UNL     1       4.391   5.637  17.053  0.00  0.00    +0.000 A 
ATOM      9  C   UNL     1       3.689   6.692  17.627  0.00  0.00    +0.000 A 
ATOM     10  C   UNL     1       2.910   6.567  18.804  0.00  0.00    +0.000 A 
ENDROOT
BRANCH   6  11
ATOM     11  C   UNL     1       3.361   2.757  19.306  0.00  0.00    +0.000 C 
ATOM     12  C   UNL     1       2.183   1.874  18.946  0.00  0.00    +0.000 C 
ATOM     13  C   UNL     1       3.536   1.581  18.375  0.00  0.00    +0.000 C 
ENDBRANCH   6  11
BRANCH   1  14
ATOM     14  N   UNL     1       2.142   8.973  18.954  0.00  0.00    +0.000 N 
ATOM     15  H   UNL     1       3.071   9.410  18.930  0.00  0.00    +0.000 HD
BRANCH  14  16
ATOM     16  C   UNL     1       1.343   9.327  17.796  0.00  0.00    +0.000 C 
BRANCH  16  20
ATOM     17  C   UNL     1      -2.193  11.493  18.957  0.00  0.00    +0.000 A 
ATOM     18  C   UNL     1      -2.263  10.478  17.995  0.00  0.00    +0.000 A 
ATOM     19  C   UNL     1      -1.113   9.794  17.607  0.00  0.00    +0.000 A 
ATOM     20  C   UNL     1       0.124  10.123  18.166  0.00  0.00    +0.000 A 
ATOM     21  C   UNL     1       0.206  11.158  19.105  0.00  0.00    +0.000 A 
ATOM     22  C   UNL     1      -0.946  11.838  19.499  0.00  0.00    +0.000 A 
ATOM     23 CL   UNL     1      -0.793  13.070  20.703  0.00  0.00    +0.000 Cl
BRANCH  17  25
ATOM     24  C   UNL     1      -4.513  11.877  18.727  0.00  0.00    +0.000 C 
ATOM     25  O   UNL     1      -3.292  12.197  19.381  0.00  0.00    +0.000 OA
ENDBRANCH  17  25
ENDBRANCH  16  20
ENDBRANCH  14  16
ENDBRANCH   1  14
BRANCH   8  26
ATOM     26  C   UNL     1       5.229   5.871  15.919  0.00  0.00    +0.000 C 
ATOM     27  N   UNL     1       5.888   6.084  14.982  0.00  0.00    +0.000 NA
ENDBRANCH   8  26
BRANCH   2  28
ATOM     28  C   UNL     1       0.562   8.341  21.345  0.00  0.00    +0.000 C 
BRANCH  28  29
ATOM     29  O   UNL     1       1.318   9.372  21.976  0.00  0.00    +0.000 OA
ATOM     30  H   UNL     1       2.254   9.181  21.793  0.00  0.00    +0.000 HD
ENDBRANCH  28  29
ENDBRANCH   2  28
TORSDOF 8
ENDMDL
MODEL 3
REMARK VINA RESULT:      -7.3      2.704      4.498
REMARK  Name = 
REMARK  9 active torsions:
REMARK  status: ('A' for Active; 'I' for Inactive)
REMARK    1  A    between atoms: C_1  and  O_2
REMARK    2  A    between atoms: O_2  and  C_3
REMARK    3  A    between atoms: C_6  and  C_7
REMARK    4  A    between atoms: C_7  and  N_8
REMARK    5  A    between atoms: N_8  and  C_9
REMARK    6  A    between atoms: C_10  and  C_11
REMARK    7  A    between atoms: C_11  and  O_12
REMARK    8  A    between atoms: C_16  and  C_17
REMARK    9  A    between atoms: C_21  and  C_22
REMARK                            x       y       z     vdW  Elec       q    Type
REMARK                         _______ _______ _______ _____ _____    ______ ____
ROOT
ATOM      1  C   UNL     1       2.227   7.719  19.451  0.00  0.00    +0.000 A 
ATOM      2  C   UNL     1       1.450   7.451  20.601  0.00  0.00    +0.000 A 
ATOM      3  C   UNL     1       1.397   6.137  21.045  0.00  0.00    +0.000 A 
ATOM      4  N   UNL     1       2.045   5.102  20.473  0.00  0.00    +0.000 NA
ATOM      5  C   UNL     1       2.784   5.317  19.374  0.00  0.00    +0.000 A 
ATOM      6  C   UNL     1       3.428   4.206  18.775  0.00  0.00    +0.000 A 
ATOM      7  C   UNL     1       4.207   4.390  17.618  0.00  0.00    +0.000 A 
ATOM      8  C   UNL     1       4.352   5.638  17.053  0.00  0.00    +0.000 A 
ATOM      9  C   UNL     1       3.679   6.713  17.623  0.00  0.00    +0.000 A 
ATOM     10  C   UNL     1       2.903   6.615  18.805  0.00  0.00    +0.000 A 
ENDROOT
BRANCH   6  11
ATOM     11  C   UNL     1       3.264   2.798  19.330  0.00  0.00    +0.000 C 
ATOM     12  C   UNL     1       2.090   1.922  18.938  0.00  0.00    +0.000 C 
ATOM     13  C   UNL     1       3.459   1.611  18.417  0.00  0.00    +0.000 C 
ENDBRANCH   6  11
BRANCH   1  14
ATOM     14  N   UNL     1       2.196   9.040  18.944  0.00  0.00    +0.000 N 
ATOM     15  H   UNL     1       3.142   9.431  18.851  0.00  0.00    +0.000 HD
BRANCH  14  16
ATOM     16  C   UNL     1       1.336   9.425  17.840  0.00  0.00    +0.000 C 
BRANCH  16  20
ATOM     17  C   UNL     1      -2.100  11.720  19.050  0.00  0.00    +0.000 A 
ATOM     18  C   UNL     1      -0.829  12.022  19.551  0.00  0.00    +0.000 A 
ATOM     19  C   UNL     1       0.277  11.264  19.174  0.00  0.00    +0.000 A 
ATOM     20  C   UNL     1       0.125  10.185  18.299  0.00  0.00    +0.000 A 
ATOM     21  C   UNL     1      -1.147   9.858  17.819  0.00  0.00    +0.000 A 
ATOM     22  C   UNL     1      -2.254  10.621  18.191  0.00  0.00    +0.000 A 
ATOM     23 CL   UNL     1      -3.793  10.204  17.523  0.00  0.00    +0.000 Cl
BRANCH  17  25
ATOM     24  C   UNL     1      -3.356  12.759  20.759  0.00  0.00    +0.000 C 
ATOM     25  O   UNL     1      -3.224  12.433  19.382  0.00  0.00    +0.000 OA
ENDBRANCH  17  25
ENDBRANCH  16  20
ENDBRANCH  14  16
ENDBRANCH   1  14
BRANCH   8  26
ATOM     26  C   UNL     1       5.191   5.844  15.914  0.00  0.00    +0.000 C 
ATOM     27  N   UNL     1       5.880   5.976  14.983  0.00  0.00    +0.000 NA
ENDBRANCH   8  26
BRANCH   2  28
ATOM     28  C   UNL     1       0.613   8.462  21.347  0.00  0.00    +0.000 C 
BRANCH  28  29
ATOM     29  O   UNL     1      -0.703   7.989  21.626  0.00  0.00    +0.000 OA
ATOM     30  H   UNL     1      -0.788   7.960  22.594  0.00  0.00    +0.000 HD
ENDBRANCH  28  29
ENDBRANCH   2  28
TORSDOF 8
ENDMDL
MODEL 4
REMARK VINA RESULT:      -7.3      1.559      2.144
REMARK  Name = 
REMARK  9 active torsions:
REMARK  status: ('A' for Active; 'I' for Inactive)
REMARK    1  A    between atoms: C_1  and  O_2
REMARK    2  A    between atoms: O_2  and  C_3
REMARK    3  A    between atoms: C_6  and  C_7
REMARK    4  A    between atoms: C_7  and  N_8
REMARK    5  A    between atoms: N_8  and  C_9
REMARK    6  A    between atoms: C_10  and  C_11
REMARK    7  A    between atoms: C_11  and  O_12
REMARK    8  A    between atoms: C_16  and  C_17
REMARK    9  A    between atoms: C_21  and  C_22
REMARK                            x       y       z     vdW  Elec       q    Type
REMARK                         _______ _______ _______ _____ _____    ______ ____
ROOT
ATOM      1  C   UNL     1       3.232   5.667  18.438  0.00  0.00    +0.000 A 
ATOM      2  C   UNL     1       2.451   4.525  18.144  0.00  0.00    +0.000 A 
ATOM      3  C   UNL     1       2.956   3.627  17.214  0.00  0.00    +0.000 A 
ATOM      4  N   UNL     1       4.141   3.752  16.584  0.00  0.00    +0.000 NA
ATOM      5  C   UNL     1       4.905   4.828  16.831  0.00  0.00    +0.000 A 
ATOM      6  C   UNL     1       6.131   4.950  16.130  0.00  0.00    +0.000 A 
ATOM      7  C   UNL     1       6.956   6.067  16.357  0.00  0.00    +0.000 A 
ATOM      8  C   UNL     1       6.590   7.050  17.249  0.00  0.00    +0.000 A 
ATOM      9  C   UNL     1       5.363   6.941  17.896  0.00  0.00    +0.000 A 
ATOM     10  C   UNL     1       4.492   5.834  17.747  0.00  0.00    +0.000 A 
ENDROOT
BRANCH   6  11
ATOM     11  C   UNL     1       6.563   3.918  15.098  0.00  0.00    +0.000 C 
ATOM     12  C   UNL     1       5.928   3.855  13.723  0.00  0.00    +0.000 C 
ATOM     13  C   UNL     1       7.329   4.364  13.876  0.00  0.00    +0.000 C 
ENDBRANCH   6  11
BRANCH   1  14
ATOM     14  N   UNL     1       2.668   6.628  19.309  0.00  0.00    +0.000 N 
ATOM     15  H   UNL     1       3.250   6.768  20.144  0.00  0.00    +0.000 HD
BRANCH  14  16
ATOM     16  C   UNL     1       2.103   7.874  18.824  0.00  0.00    +0.000 C 
BRANCH  16  20
ATOM     17  C   UNL     1       0.403  10.212  22.016  0.00  0.00    +0.000 A 
ATOM     18  C   UNL     1       0.933   8.941  22.268  0.00  0.00    +0.000 A 
ATOM     19  C   UNL     1       1.462   8.179  21.229  0.00  0.00    +0.000 A 
ATOM     20  C   UNL     1       1.459   8.672  19.922  0.00  0.00    +0.000 A 
ATOM     21  C   UNL     1       0.903   9.929  19.658  0.00  0.00    +0.000 A 
ATOM     22  C   UNL     1       0.378  10.695  20.699  0.00  0.00    +0.000 A 
ATOM     23 CL   UNL     1      -0.246  12.263  20.322  0.00  0.00    +0.000 Cl
BRANCH  17  25
ATOM     24  C   UNL     1      -1.539  10.934  23.151  0.00  0.00    +0.000 C 
ATOM     25  O   UNL     1      -0.127  11.009  22.999  0.00  0.00    +0.000 OA
ENDBRANCH  17  25
ENDBRANCH  16  20
ENDBRANCH  14  16
ENDBRANCH   1  14
BRANCH   8  26
ATOM     26  C   UNL     1       7.450   8.156  17.530  0.00  0.00    +0.000 C 
ATOM     27  N   UNL     1       8.133   9.077  17.735  0.00  0.00    +0.000 NA
ENDBRANCH   8  26
BRANCH   2  28
ATOM     28  C   UNL     1       1.079   4.236  18.704  0.00  0.00    +0.000 C 
BRANCH  28  29
ATOM     29  O   UNL     1       1.039   4.305  20.127  0.00  0.00    +0.000 OA
ATOM     30  H   UNL     1       0.543   5.111  20.352  0.00  0.00    +0.000 HD
ENDBRANCH  28  29
ENDBRANCH   2  28
TORSDOF 8
ENDMDL
MODEL 5
REMARK VINA RESULT:      -7.2      1.176      1.525
REMARK  Name = 
REMARK  9 active torsions:
REMARK  status: ('A' for Active; 'I' for Inactive)
REMARK    1  A    between atoms: C_1  and  O_2
REMARK    2  A    between atoms: O_2  and  C_3
REMARK    3  A    between atoms: C_6  and  C_7
REMARK    4  A    between atoms: C_7  and  N_8
REMARK    5  A    between atoms: N_8  and  C_9
REMARK    6  A    between atoms: C_10  and  C_11
REMARK    7  A    between atoms: C_11  and  O_12
REMARK    8  A    between atoms: C_16  and  C_17
REMARK    9  A    between atoms: C_21  and  C_22
REMARK                            x       y       z     vdW  Elec       q    Type
REMARK                         _______ _______ _______ _____ _____    ______ ____
ROOT
ATOM      1  C   UNL     1       3.668   4.785  19.123  0.00  0.00    +0.000 A 
ATOM      2  C   UNL     1       2.891   3.634  18.858  0.00  0.00    +0.000 A 
ATOM      3  C   UNL     1       3.190   2.909  17.713  0.00  0.00    +0.000 A 
ATOM      4  N   UNL     1       4.177   3.210  16.845  0.00  0.00    +0.000 NA
ATOM      5  C   UNL     1       4.929   4.301  17.059  0.00  0.00    +0.000 A 
ATOM      6  C   UNL     1       5.938   4.611  16.114  0.00  0.00    +0.000 A 
ATOM      7  C   UNL     1       6.743   5.749  16.299  0.00  0.00    +0.000 A 
ATOM      8  C   UNL     1       6.565   6.574  17.388  0.00  0.00    +0.000 A 
ATOM      9  C   UNL     1       5.542   6.285  18.285  0.00  0.00    +0.000 A 
ATOM     10  C   UNL     1       4.711   5.141  18.185  0.00  0.00    +0.000 A 
ENDROOT
BRANCH   6  11
ATOM     11  C   UNL     1       6.149   3.761  14.868  0.00  0.00    +0.000 C 
ATOM     12  C   UNL     1       5.399   4.040  13.580  0.00  0.00    +0.000 C 
ATOM     13  C   UNL     1       6.860   4.353  13.675  0.00  0.00    +0.000 C 
ENDBRANCH   6  11
BRANCH   1  14
ATOM     14  N   UNL     1       3.293   5.576  20.235  0.00  0.00    +0.000 N 
ATOM     15  H   UNL     1       3.854   6.436  20.292  0.00  0.00    +0.000 HD
BRANCH  14  16
ATOM     16  C   UNL     1       1.905   5.807  20.588  0.00  0.00    +0.000 C 
BRANCH  16  20
ATOM     17  C   UNL     1       0.887   9.974  20.211  0.00  0.00    +0.000 A 
ATOM     18  C   UNL     1       0.501   9.245  21.342  0.00  0.00    +0.000 A 
ATOM     19  C   UNL     1       0.814   7.893  21.450  0.00  0.00    +0.000 A 
ATOM     20  C   UNL     1       1.507   7.246  20.424  0.00  0.00    +0.000 A 
ATOM     21  C   UNL     1       1.869   7.960  19.277  0.00  0.00    +0.000 A 
ATOM     22  C   UNL     1       1.561   9.317  19.171  0.00  0.00    +0.000 A 
ATOM     23 CL   UNL     1       2.082  10.161  17.754  0.00  0.00    +0.000 Cl
BRANCH  17  25
ATOM     24  C   UNL     1      -0.727  11.616  19.685  0.00  0.00    +0.000 C 
ATOM     25  O   UNL     1       0.612  11.308  20.051  0.00  0.00    +0.000 OA
ENDBRANCH  17  25
ENDBRANCH  16  20
ENDBRANCH  14  16
ENDBRANCH   1  14
BRANCH   8  26
ATOM     26  C   UNL     1       7.418   7.697  17.616  0.00  0.00    +0.000 C 
ATOM     27  N   UNL     1       8.088   8.635  17.788  0.00  0.00    +0.000 NA
ENDBRANCH   8  26
BRANCH   2  28
ATOM     28  C   UNL     1       1.713   3.167  19.679  0.00  0.00    +0.000 C 
BRANCH  28  29
ATOM     29  O   UNL     1       0.787   2.390  18.922  0.00  0.00    +0.000 OA
ATOM     30  H   UNL     1       0.738   1.519  19.352  0.00  0.00    +0.000 HD
ENDBRANCH  28  29
ENDBRANCH   2  28
TORSDOF 8
ENDMDL
MODEL 6
REMARK VINA RESULT:      -7.1      3.267      6.092
REMARK  Name = 
REMARK  9 active torsions:
REMARK  status: ('A' for Active; 'I' for Inactive)
REMARK    1  A    between atoms: C_1  and  O_2
REMARK    2  A    between atoms: O_2  and  C_3
REMARK    3  A    between atoms: C_6  and  C_7
REMARK    4  A    between atoms: C_7  and  N_8
REMARK    5  A    between atoms: N_8  and  C_9
REMARK    6  A    between atoms: C_10  and  C_11
REMARK    7  A    between atoms: C_11  and  O_12
REMARK    8  A    between atoms: C_16  and  C_17
REMARK    9  A    between atoms: C_21  and  C_22
REMARK                            x       y       z     vdW  Elec       q    Type
REMARK                         _______ _______ _______ _____ _____    ______ ____
ROOT
ATOM      1  C   UNL     1       1.342   9.581  19.202  0.00  0.00    +0.000 A 
ATOM      2  C   UNL     1       0.521   9.682  20.349  0.00  0.00    +0.000 A 
ATOM      3  C   UNL     1       0.473   8.586  21.200  0.00  0.00    +0.000 A 
ATOM      4  N   UNL     1       1.162   7.441  21.025  0.00  0.00    +0.000 NA
ATOM      5  C   UNL     1       1.945   7.305  19.943  0.00  0.00    +0.000 A 
ATOM      6  C   UNL     1       2.633   6.079  19.767  0.00  0.00    +0.000 A 
ATOM      7  C   UNL     1       3.457   5.896  18.642  0.00  0.00    +0.000 A 
ATOM      8  C   UNL     1       3.605   6.892  17.702  0.00  0.00    +0.000 A 
ATOM      9  C   UNL     1       2.889   8.074  17.862  0.00  0.00    +0.000 A 
ATOM     10  C   UNL     1       2.065   8.346  18.982  0.00  0.00    +0.000 A 
ENDROOT
BRANCH   6  11
ATOM     11  C   UNL     1       2.470   4.928  20.749  0.00  0.00    +0.000 C 
ATOM     12  C   UNL     1       1.341   3.925  20.617  0.00  0.00    +0.000 C 
ATOM     13  C   UNL     1       2.744   3.515  20.292  0.00  0.00    +0.000 C 
ENDBRANCH   6  11
BRANCH   1  14
ATOM     14  N   UNL     1       1.310  10.659  18.287  0.00  0.00    +0.000 N 
ATOM     15  H   UNL     1       0.363  11.049  18.199  0.00  0.00    +0.000 HD
BRANCH  14  16
ATOM     16  C   UNL     1       2.329  11.691  18.271  0.00  0.00    +0.000 C 
BRANCH  16  20
ATOM     17  C   UNL     1       0.639  15.616  18.796  0.00  0.00    +0.000 A 
ATOM     18  C   UNL     1      -0.189  14.494  18.679  0.00  0.00    +0.000 A 
ATOM     19  C   UNL     1       0.361  13.229  18.488  0.00  0.00    +0.000 A 
ATOM     20  C   UNL     1       1.746  13.069  18.399  0.00  0.00    +0.000 A 
ATOM     21  C   UNL     1       2.578  14.191  18.484  0.00  0.00    +0.000 A 
ATOM     22  C   UNL     1       2.028  15.458  18.682  0.00  0.00    +0.000 A 
ATOM     23 CL   UNL     1       3.108  16.799  18.834  0.00  0.00    +0.000 Cl
BRANCH  17  25
ATOM     24  C   UNL     1      -0.453  17.487  17.854  0.00  0.00    +0.000 C 
ATOM     25  O   UNL     1       0.155  16.886  18.989  0.00  0.00    +0.000 OA
ENDBRANCH  17  25
ENDBRANCH  16  20
ENDBRANCH  14  16
ENDBRANCH   1  14
BRANCH   8  26
ATOM     26  C   UNL     1       4.488   6.737  16.589  0.00  0.00    +0.000 C 
ATOM     27  N   UNL     1       5.181   6.595  15.663  0.00  0.00    +0.000 NA
ENDBRANCH   8  26
BRANCH   2  28
ATOM     28  C   UNL     1      -0.365  10.856  20.689  0.00  0.00    +0.000 C 
BRANCH  28  29
ATOM     29  O   UNL     1       0.200  11.701  21.688  0.00  0.00    +0.000 OA
ATOM     30  H   UNL     1       1.105  11.382  21.844  0.00  0.00    +0.000 HD
ENDBRANCH  28  29
ENDBRANCH   2  28
TORSDOF 8
ENDMDL
MODEL 7
REMARK VINA RESULT:      -7.1      2.547      4.301
REMARK  Name = 
REMARK  9 active torsions:
REMARK  status: ('A' for Active; 'I' for Inactive)
REMARK    1  A    between atoms: C_1  and  O_2
REMARK    2  A    between atoms: O_2  and  C_3
REMARK    3  A    between atoms: C_6  and  C_7
REMARK    4  A    between atoms: C_7  and  N_8
REMARK    5  A    between atoms: N_8  and  C_9
REMARK    6  A    between atoms: C_10  and  C_11
REMARK    7  A    between atoms: C_11  and  O_12
REMARK    8  A    between atoms: C_16  and  C_17
REMARK    9  A    between atoms: C_21  and  C_22
REMARK                            x       y       z     vdW  Elec       q    Type
REMARK                         _______ _______ _______ _____ _____    ______ ____
ROOT
ATOM      1  C   UNL     1       2.332   7.539  19.394  0.00  0.00    +0.000 A 
ATOM      2  C   UNL     1       1.545   7.255  20.534  0.00  0.00    +0.000 A 
ATOM      3  C   UNL     1       1.499   5.937  20.968  0.00  0.00    +0.000 A 
ATOM      4  N   UNL     1       2.162   4.913  20.396  0.00  0.00    +0.000 NA
ATOM      5  C   UNL     1       2.912   5.143  19.307  0.00  0.00    +0.000 A 
ATOM      6  C   UNL     1       3.573   4.042  18.707  0.00  0.00    +0.000 A 
ATOM      7  C   UNL     1       4.362   4.241  17.560  0.00  0.00    +0.000 A 
ATOM      8  C   UNL     1       4.502   5.494  17.005  0.00  0.00    +0.000 A 
ATOM      9  C   UNL     1       3.813   6.559  17.576  0.00  0.00    +0.000 A 
ATOM     10  C   UNL     1       3.025   6.445  18.748  0.00  0.00    +0.000 A 
ENDROOT
BRANCH   6  11
ATOM     11  C   UNL     1       3.415   2.628  19.250  0.00  0.00    +0.000 C 
ATOM     12  C   UNL     1       2.209   1.776  18.909  0.00  0.00    +0.000 C 
ATOM     13  C   UNL     1       3.543   1.452  18.312  0.00  0.00    +0.000 C 
ENDBRANCH   6  11
BRANCH   1  14
ATOM     14  N   UNL     1       2.294   8.862  18.896  0.00  0.00    +0.000 N 
ATOM     15  H   UNL     1       3.228   9.188  18.618  0.00  0.00    +0.000 HD
BRANCH  14  16
ATOM     16  C   UNL     1       1.264   9.315  17.979  0.00  0.00    +0.000 C 
BRANCH  16  20
ATOM     17  C   UNL     1      -0.928  12.733  19.411  0.00  0.00    +0.000 A 
ATOM     18  C   UNL     1       0.463  12.669  19.551  0.00  0.00    +0.000 A 
ATOM     19  C   UNL     1       1.166  11.553  19.106  0.00  0.00    +0.000 A 
ATOM     20  C   UNL     1       0.487  10.478  18.525  0.00  0.00    +0.000 A 
ATOM     21  C   UNL     1      -0.907  10.522  18.411  0.00  0.00    +0.000 A 
ATOM     22  C   UNL     1      -1.611  11.643  18.851  0.00  0.00    +0.000 A 
ATOM     23 CL   UNL     1      -3.326  11.664  18.633  0.00  0.00    +0.000 Cl
BRANCH  17  25
ATOM     24  C   UNL     1      -1.164  14.504  20.956  0.00  0.00    +0.000 C 
ATOM     25  O   UNL     1      -1.673  13.808  19.826  0.00  0.00    +0.000 OA
ENDBRANCH  17  25
ENDBRANCH  16  20
ENDBRANCH  14  16
ENDBRANCH   1  14
BRANCH   8  26
ATOM     26  C   UNL     1       5.351   5.715  15.877  0.00  0.00    +0.000 C 
ATOM     27  N   UNL     1       6.016   5.912  14.940  0.00  0.00    +0.000 NA
ENDBRANCH   8  26
BRANCH   2  28
ATOM     28  C   UNL     1       0.690   8.253  21.277  0.00  0.00    +0.000 C 
BRANCH  28  29
ATOM     29  O   UNL     1       1.448   9.331  21.821  0.00  0.00    +0.000 OA
ATOM     30  H   UNL     1       1.785   9.843  21.066  0.00  0.00    +0.000 HD
ENDBRANCH  28  29
ENDBRANCH   2  28
TORSDOF 8
ENDMDL
MODEL 8
REMARK VINA RESULT:      -7.0      3.143      6.058
REMARK  Name = 
REMARK  9 active torsions:
REMARK  status: ('A' for Active; 'I' for Inactive)
REMARK    1  A    between atoms: C_1  and  O_2
REMARK    2  A    between atoms: O_2  and  C_3
REMARK    3  A    between atoms: C_6  and  C_7
REMARK    4  A    between atoms: C_7  and  N_8
REMARK    5  A    between atoms: N_8  and  C_9
REMARK    6  A    between atoms: C_10  and  C_11
REMARK    7  A    between atoms: C_11  and  O_12
REMARK    8  A    between atoms: C_16  and  C_17
REMARK    9  A    between atoms: C_21  and  C_22
REMARK                            x       y       z     vdW  Elec       q    Type
REMARK                         _______ _______ _______ _____ _____    ______ ____
ROOT
ATOM      1  C   UNL     1       1.308   9.695  19.136  0.00  0.00    +0.000 A 
ATOM      2  C   UNL     1       0.456   9.823  20.258  0.00  0.00    +0.000 A 
ATOM      3  C   UNL     1       0.373   8.741  21.124  0.00  0.00    +0.000 A 
ATOM      4  N   UNL     1       1.055   7.587  20.986  0.00  0.00    +0.000 NA
ATOM      5  C   UNL     1       1.865   7.426  19.928  0.00  0.00    +0.000 A 
ATOM      6  C   UNL     1       2.545   6.190  19.790  0.00  0.00    +0.000 A 
ATOM      7  C   UNL     1       3.398   5.981  18.692  0.00  0.00    +0.000 A 
ATOM      8  C   UNL     1       3.582   6.960  17.741  0.00  0.00    +0.000 A 
ATOM      9  C   UNL     1       2.875   8.151  17.862  0.00  0.00    +0.000 A 
ATOM     10  C   UNL     1       2.023   8.450  18.955  0.00  0.00    +0.000 A 
ENDROOT
BRANCH   6  11
ATOM     11  C   UNL     1       2.342   5.056  20.786  0.00  0.00    +0.000 C 
ATOM     12  C   UNL     1       1.257   4.015  20.594  0.00  0.00    +0.000 C 
ATOM     13  C   UNL     1       2.693   3.643  20.386  0.00  0.00    +0.000 C 
ENDBRANCH   6  11
BRANCH   1  14
ATOM     14  N   UNL     1       1.312  10.759  18.204  0.00  0.00    +0.000 N 
ATOM     15  H   UNL     1       0.466  11.337  18.288  0.00  0.00    +0.000 HD
BRANCH  14  16
ATOM     16  C   UNL     1       2.495  11.557  17.946  0.00  0.00    +0.000 C 
BRANCH  16  20
ATOM     17  C   UNL     1       1.883  15.745  18.736  0.00  0.00    +0.000 A 
ATOM     18  C   UNL     1       3.142  15.270  18.348  0.00  0.00    +0.000 A 
ATOM     19  C   UNL     1       3.340  13.912  18.115  0.00  0.00    +0.000 A 
ATOM     20  C   UNL     1       2.287  13.007  18.276  0.00  0.00    +0.000 A 
ATOM     21  C   UNL     1       1.035  13.472  18.693  0.00  0.00    +0.000 A 
ATOM     22  C   UNL     1       0.834  14.834  18.921  0.00  0.00    +0.000 A 
ATOM     23 CL   UNL     1      -0.749  15.357  19.381  0.00  0.00    +0.000 Cl
BRANCH  17  25
ATOM     24  C   UNL     1       1.260  17.839  17.836  0.00  0.00    +0.000 C 
ATOM     25  O   UNL     1       1.627  17.072  18.975  0.00  0.00    +0.000 OA
ENDBRANCH  17  25
ENDBRANCH  16  20
ENDBRANCH  14  16
ENDBRANCH   1  14
BRANCH   8  26
ATOM     26  C   UNL     1       4.494   6.778  16.655  0.00  0.00    +0.000 C 
ATOM     27  N   UNL     1       5.209   6.631  15.747  0.00  0.00    +0.000 NA
ENDBRANCH   8  26
BRANCH   2  28
ATOM     28  C   UNL     1      -0.426  11.011  20.555  0.00  0.00    +0.000 C 
BRANCH  28  29
ATOM     29  O   UNL     1      -1.462  11.183  19.590  0.00  0.00    +0.000 OA
ATOM     30  H   UNL     1      -2.206  10.627  19.879  0.00  0.00    +0.000 HD
ENDBRANCH  28  29
ENDBRANCH   2  28
TORSDOF 8
ENDMDL
MODEL 9
REMARK VINA RESULT:      -6.9      3.136      6.001
REMARK  Name = 
REMARK  9 active torsions:
REMARK  status: ('A' for Active; 'I' for Inactive)
REMARK    1  A    between atoms: C_1  and  O_2
REMARK    2  A    between atoms: O_2  and  C_3
REMARK    3  A    between atoms: C_6  and  C_7
REMARK    4  A    between atoms: C_7  and  N_8
REMARK    5  A    between atoms: N_8  and  C_9
REMARK    6  A    between atoms: C_10  and  C_11
REMARK    7  A    between atoms: C_11  and  O_12
REMARK    8  A    between atoms: C_16  and  C_17
REMARK    9  A    between atoms: C_21  and  C_22
REMARK                            x       y       z     vdW  Elec       q    Type
REMARK                         _______ _______ _______ _____ _____    ______ ____
ROOT
ATOM      1  C   UNL     1       1.273   9.648  19.136  0.00  0.00    +0.000 A 
ATOM      2  C   UNL     1       0.421   9.767  20.258  0.00  0.00    +0.000 A 
ATOM      3  C   UNL     1       0.354   8.688  21.129  0.00  0.00    +0.000 A 
ATOM      4  N   UNL     1       1.054   7.544  20.995  0.00  0.00    +0.000 NA
ATOM      5  C   UNL     1       1.866   7.391  19.937  0.00  0.00    +0.000 A 
ATOM      6  C   UNL     1       2.565   6.166  19.804  0.00  0.00    +0.000 A 
ATOM      7  C   UNL     1       3.421   5.965  18.705  0.00  0.00    +0.000 A 
ATOM      8  C   UNL     1       3.589   6.943  17.751  0.00  0.00    +0.000 A 
ATOM      9  C   UNL     1       2.863   8.124  17.868  0.00  0.00    +0.000 A 
ATOM     10  C   UNL     1       2.008   8.414  18.959  0.00  0.00    +0.000 A 
ENDROOT
BRANCH   6  11
ATOM     11  C   UNL     1       2.381   5.033  20.804  0.00  0.00    +0.000 C 
ATOM     12  C   UNL     1       1.282   4.001  20.642  0.00  0.00    +0.000 C 
ATOM     13  C   UNL     1       2.708   3.617  20.393  0.00  0.00    +0.000 C 
ENDBRANCH   6  11
BRANCH   1  14
ATOM     14  N   UNL     1       1.260  10.708  18.200  0.00  0.00    +0.000 N 
ATOM     15  H   UNL     1       0.319  11.109  18.097  0.00  0.00    +0.000 HD
BRANCH  14  16
ATOM     16  C   UNL     1       2.292  11.727  18.170  0.00  0.00    +0.000 C 
BRANCH  16  20
ATOM     17  C   UNL     1       0.962  15.263  20.236  0.00  0.00    +0.000 A 
ATOM     18  C   UNL     1       0.291  14.810  19.094  0.00  0.00    +0.000 A 
ATOM     19  C   UNL     1       0.737  13.678  18.416  0.00  0.00    +0.000 A 
ATOM     20  C   UNL     1       1.868  12.989  18.864  0.00  0.00    +0.000 A 
ATOM     21  C   UNL     1       2.561  13.455  19.986  0.00  0.00    +0.000 A 
ATOM     22  C   UNL     1       2.111  14.585  20.669  0.00  0.00    +0.000 A 
ATOM     23 CL   UNL     1       2.975  15.081  22.082  0.00  0.00    +0.000 Cl
BRANCH  17  25
ATOM     24  C   UNL     1       0.378  17.551  20.182  0.00  0.00    +0.000 C 
ATOM     25  O   UNL     1       0.565  16.368  20.947  0.00  0.00    +0.000 OA
ENDBRANCH  17  25
ENDBRANCH  16  20
ENDBRANCH  14  16
ENDBRANCH   1  14
BRANCH   8  26
ATOM     26  C   UNL     1       4.502   6.772  16.665  0.00  0.00    +0.000 C 
ATOM     27  N   UNL     1       5.260   6.602  15.795  0.00  0.00    +0.000 NA
ENDBRANCH   8  26
BRANCH   2  28
ATOM     28  C   UNL     1      -0.480  10.943  20.551  0.00  0.00    +0.000 C 
BRANCH  28  29
ATOM     29  O   UNL     1      -1.447  11.165  19.527  0.00  0.00    +0.000 OA
ATOM     30  H   UNL     1      -1.136  10.682  18.742  0.00  0.00    +0.000 HD
ENDBRANCH  28  29
ENDBRANCH   2  28
TORSDOF 8
ENDMDL
