MODEL 1
REMARK VINA RESULT:      -7.3      0.000      0.000
REMARK  Name = 
REMARK  3 active torsions:
REMARK  status: ('A' for Active; 'I' for Inactive)
REMARK    1  A    between atoms: N_5  and  C_6
REMARK    2  A    between atoms: C_8  and  C_9
REMARK    3  A    between atoms: C_9  and  O_10
REMARK                            x       y       z     vdW  Elec       q    Type
REMARK                         _______ _______ _______ _____ _____    ______ ____
ROOT
ATOM      1  N   UNL     1       7.695   5.389  14.443  0.00  0.00    +0.000 N 
ATOM      2  C   UNL     1       6.919   4.972  15.488  0.00  0.00    +0.000 A 
ATOM      3  C   UNL     1       5.534   4.548  15.221  0.00  0.00    +0.000 A 
ATOM      4  C   UNL     1       4.833   4.171  16.287  0.00  0.00    +0.000 A 
ATOM      5  N   UNL     1       5.382   4.163  17.553  0.00  0.00    +0.000 N 
ATOM      6  C   UNL     1       6.704   4.571  17.759  0.00  0.00    +0.000 A 
ATOM      7  O   UNL     1       7.200   4.581  18.883  0.00  0.00    +0.000 OA
ATOM      8  N   UNL     1       7.448   4.964  16.667  0.00  0.00    +0.000 NA
ATOM      9  H   UNL     1       7.507   4.998  13.529  0.00  0.00    +0.000 HD
ATOM     10  H   UNL     1       8.680   5.427  14.679  0.00  0.00    +0.000 HD
ENDROOT
BRANCH   5  11
ATOM     11  C   UNL     1       4.589   3.816  18.736  0.00  0.00    +0.000 C 
ATOM     12  S   UNL     1       3.579   2.296  18.488  0.00  0.00    +0.000 S 
ATOM     13  C   UNL     1       2.012   3.219  18.216  0.00  0.00    +0.000 C 
ATOM     14  C   UNL     1       2.282   4.587  18.770  0.00  0.00    +0.000 C 
ATOM     15  C   UNL     1       3.566   4.879  19.017  0.00  0.00    +0.000 C 
ATOM     16  F   UNL     1       3.909   6.086  19.510  0.00  0.00    +0.000 F 
BRANCH  13  17
ATOM     17  C   UNL     1       0.815   2.500  18.844  0.00  0.00    +0.000 C 
BRANCH  17  18
ATOM     18  O   UNL     1       0.428   3.063  20.093  0.00  0.00    +0.000 OA
ATOM     19  H   UNL     1       0.093   2.330  20.640  0.00  0.00    +0.000 HD
ENDBRANCH  17  18
ENDBRANCH  13  17
ENDBRANCH   5  11
TORSDOF 3
ENDMDL
MODEL 2
REMARK VINA RESULT:      -6.8      1.184      1.186
REMARK  Name = 
REMARK  3 active torsions:
REMARK  status: ('A' for Active; 'I' for Inactive)
REMARK    1  A    between atoms: N_5  and  C_6
REMARK    2  A    between atoms: C_8  and  C_9
REMARK    3  A    between atoms: C_9  and  O_10
REMARK                            x       y       z     vdW  Elec       q    Type
REMARK                         _______ _______ _______ _____ _____    ______ ____
ROOT
ATOM      1  N   UNL     1       7.717   5.202  13.892  0.00  0.00    +0.000 N 
ATOM      2  C   UNL     1       6.926   5.101  15.002  0.00  0.00    +0.000 A 
ATOM      3  C   UNL     1       5.779   4.178  14.978  0.00  0.00    +0.000 A 
ATOM      4  C   UNL     1       5.045   4.143  16.086  0.00  0.00    +0.000 A 
ATOM      5  N   UNL     1       5.355   4.914  17.188  0.00  0.00    +0.000 N 
ATOM      6  C   UNL     1       6.457   5.775  17.168  0.00  0.00    +0.000 A 
ATOM      7  O   UNL     1       6.736   6.476  18.138  0.00  0.00    +0.000 OA
ATOM      8  N   UNL     1       7.232   5.824  16.029  0.00  0.00    +0.000 NA
ATOM      9  H   UNL     1       7.801   4.389  13.296  0.00  0.00    +0.000 HD
ATOM     10  H   UNL     1       8.599   5.666  14.081  0.00  0.00    +0.000 HD
ENDROOT
BRANCH   5  11
ATOM     11  C   UNL     1       4.506   4.930  18.382  0.00  0.00    +0.000 C 
ATOM     12  S   UNL     1       3.977   3.242  18.896  0.00  0.00    +0.000 S 
ATOM     13  C   UNL     1       2.286   3.412  18.194  0.00  0.00    +0.000 C 
ATOM     14  C   UNL     1       2.102   4.890  18.014  0.00  0.00    +0.000 C 
ATOM     15  C   UNL     1       3.210   5.636  18.100  0.00  0.00    +0.000 C 
ATOM     16  F   UNL     1       3.147   6.974  17.946  0.00  0.00    +0.000 F 
BRANCH  13  17
ATOM     17  C   UNL     1       1.235   2.739  19.081  0.00  0.00    +0.000 C 
BRANCH  17  18
ATOM     18  O   UNL     1       0.348   1.903  18.345  0.00  0.00    +0.000 OA
ATOM     19  H   UNL     1      -0.529   1.988  18.761  0.00  0.00    +0.000 HD
ENDBRANCH  17  18
ENDBRANCH  13  17
ENDBRANCH   5  11
TORSDOF 3
ENDMDL
MODEL 3
REMARK VINA RESULT:      -6.6      2.971      5.620
REMARK  Name = 
REMARK  3 active torsions:
REMARK  status: ('A' for Active; 'I' for Inactive)
REMARK    1  A    between atoms: N_5  and  C_6
REMARK    2  A    between atoms: C_8  and  C_9
REMARK    3  A    between atoms: C_9  and  O_10
REMARK                            x       y       z     vdW  Elec       q    Type
REMARK                         _______ _______ _______ _____ _____    ______ ____
ROOT
ATOM      1  N   UNL     1       1.877   2.608  21.962  0.00  0.00    +0.000 N 
ATOM      2  C   UNL     1       2.616   3.319  21.059  0.00  0.00    +0.000 A 
ATOM      3  C   UNL     1       3.703   2.639  20.335  0.00  0.00    +0.000 A 
ATOM      4  C   UNL     1       4.390   3.396  19.484  0.00  0.00    +0.000 A 
ATOM      5  N   UNL     1       4.086   4.728  19.288  0.00  0.00    +0.000 N 
ATOM      6  C   UNL     1       3.041   5.332  19.995  0.00  0.00    +0.000 A 
ATOM      7  O   UNL     1       2.769   6.520  19.839  0.00  0.00    +0.000 OA
ATOM      8  N   UNL     1       2.316   4.564  20.880  0.00  0.00    +0.000 NA
ATOM      9  H   UNL     1       1.766   1.614  21.803  0.00  0.00    +0.000 HD
ATOM     10  H   UNL     1       1.019   3.080  22.224  0.00  0.00    +0.000 HD
ENDROOT
BRANCH   5  11
ATOM     11  C   UNL     1       4.887   5.581  18.406  0.00  0.00    +0.000 C 
ATOM     12  S   UNL     1       4.584   5.234  16.622  0.00  0.00    +0.000 S 
ATOM     13  C   UNL     1       6.133   4.264  16.410  0.00  0.00    +0.000 C 
ATOM     14  C   UNL     1       6.979   4.647  17.588  0.00  0.00    +0.000 C 
ATOM     15  C   UNL     1       6.351   5.293  18.579  0.00  0.00    +0.000 C 
ATOM     16  F   UNL     1       7.026   5.674  19.682  0.00  0.00    +0.000 F 
BRANCH  13  17
ATOM     17  C   UNL     1       6.779   4.522  15.046  0.00  0.00    +0.000 C 
BRANCH  17  18
ATOM     18  O   UNL     1       7.742   5.570  15.083  0.00  0.00    +0.000 OA
ATOM     19  H   UNL     1       8.188   5.573  14.216  0.00  0.00    +0.000 HD
ENDBRANCH  17  18
ENDBRANCH  13  17
ENDBRANCH   5  11
TORSDOF 3
ENDMDL
MODEL 4
REMARK VINA RESULT:      -6.5      2.893      5.486
REMARK  Name = 
REMARK  3 active torsions:
REMARK  status: ('A' for Active; 'I' for Inactive)
REMARK    1  A    between atoms: N_5  and  C_6
REMARK    2  A    between atoms: C_8  and  C_9
REMARK    3  A    between atoms: C_9  and  O_10
REMARK                            x       y       z     vdW  Elec       q    Type
REMARK                         _______ _______ _______ _____ _____    ______ ____
ROOT
ATOM      1  N   UNL     1       0.455   2.853  19.430  0.00  0.00    +0.000 N 
ATOM      2  C   UNL     1       1.747   3.176  19.126  0.00  0.00    +0.000 A 
ATOM      3  C   UNL     1       2.004   4.160  18.062  0.00  0.00    +0.000 A 
ATOM      4  C   UNL     1       3.285   4.413  17.809  0.00  0.00    +0.000 A 
ATOM      5  N   UNL     1       4.300   3.800  18.515  0.00  0.00    +0.000 N 
ATOM      6  C   UNL     1       4.009   2.873  19.521  0.00  0.00    +0.000 A 
ATOM      7  O   UNL     1       4.905   2.311  20.148  0.00  0.00    +0.000 OA
ATOM      8  N   UNL     1       2.688   2.598  19.800  0.00  0.00    +0.000 NA
ATOM      9  H   UNL     1      -0.255   3.559  19.283  0.00  0.00    +0.000 HD
ATOM     10  H   UNL     1       0.371   2.365  20.315  0.00  0.00    +0.000 HD
ENDROOT
BRANCH   5  11
ATOM     11  C   UNL     1       5.712   4.023  18.189  0.00  0.00    +0.000 C 
ATOM     12  S   UNL     1       6.429   5.455  19.099  0.00  0.00    +0.000 S 
ATOM     13  C   UNL     1       6.341   6.590  17.654  0.00  0.00    +0.000 C 
ATOM     14  C   UNL     1       6.188   5.679  16.472  0.00  0.00    +0.000 C 
ATOM     15  C   UNL     1       5.866   4.408  16.745  0.00  0.00    +0.000 C 
ATOM     16  F   UNL     1       5.701   3.516  15.748  0.00  0.00    +0.000 F 
BRANCH  13  17
ATOM     17  C   UNL     1       7.554   7.521  17.592  0.00  0.00    +0.000 C 
BRANCH  17  18
ATOM     18  O   UNL     1       8.435   7.352  18.699  0.00  0.00    +0.000 OA
ATOM     19  H   UNL     1       7.877   7.309  19.497  0.00  0.00    +0.000 HD
ENDBRANCH  17  18
ENDBRANCH  13  17
ENDBRANCH   5  11
TORSDOF 3
ENDMDL
MODEL 5
REMARK VINA RESULT:      -6.5      3.226      5.674
REMARK  Name = 
REMARK  3 active torsions:
REMARK  status: ('A' for Active; 'I' for Inactive)
REMARK    1  A    between atoms: N_5  and  C_6
REMARK    2  A    between atoms: C_8  and  C_9
REMARK    3  A    between atoms: C_9  and  O_10
REMARK                            x       y       z     vdW  Elec       q    Type
REMARK                         _______ _______ _______ _____ _____    ______ ____
ROOT
ATOM      1  N   UNL     1       1.273   2.737  22.351  0.00  0.00    +0.000 N 
ATOM      2  C   UNL     1       2.214   3.035  21.406  0.00  0.00    +0.000 A 
ATOM      3  C   UNL     1       2.010   4.209  20.541  0.00  0.00    +0.000 A 
ATOM      4  C   UNL     1       2.958   4.428  19.635  0.00  0.00    +0.000 A 
ATOM      5  N   UNL     1       4.066   3.612  19.530  0.00  0.00    +0.000 N 
ATOM      6  C   UNL     1       4.221   2.509  20.376  0.00  0.00    +0.000 A 
ATOM      7  O   UNL     1       5.197   1.767  20.284  0.00  0.00    +0.000 OA
ATOM      8  N   UNL     1       3.250   2.265  21.323  0.00  0.00    +0.000 NA
ATOM      9  H   UNL     1       0.738   3.502  22.742  0.00  0.00    +0.000 HD
ATOM     10  H   UNL     1       1.607   2.074  23.041  0.00  0.00    +0.000 HD
ENDROOT
BRANCH   5  11
ATOM     11  C   UNL     1       5.075   3.810  18.485  0.00  0.00    +0.000 C 
ATOM     12  S   UNL     1       6.326   5.083  18.944  0.00  0.00    +0.000 S 
ATOM     13  C   UNL     1       5.575   6.392  17.893  0.00  0.00    +0.000 C 
ATOM     14  C   UNL     1       4.696   5.645  16.935  0.00  0.00    +0.000 C 
ATOM     15  C   UNL     1       4.444   4.366  17.241  0.00  0.00    +0.000 C 
ATOM     16  F   UNL     1       3.660   3.614  16.443  0.00  0.00    +0.000 F 
BRANCH  13  17
ATOM     17  C   UNL     1       6.643   7.268  17.232  0.00  0.00    +0.000 C 
BRANCH  17  18
ATOM     18  O   UNL     1       7.518   6.527  16.388  0.00  0.00    +0.000 OA
ATOM     19  H   UNL     1       6.954   5.991  15.801  0.00  0.00    +0.000 HD
ENDBRANCH  17  18
ENDBRANCH  13  17
ENDBRANCH   5  11
TORSDOF 3
ENDMDL
MODEL 6
REMARK VINA RESULT:      -6.4      2.347      2.529
REMARK  Name = 
REMARK  3 active torsions:
REMARK  status: ('A' for Active; 'I' for Inactive)
REMARK    1  A    between atoms: N_5  and  C_6
REMARK    2  A    between atoms: C_8  and  C_9
REMARK    3  A    between atoms: C_9  and  O_10
REMARK                            x       y       z     vdW  Elec       q    Type
REMARK                         _______ _______ _______ _____ _____    ______ ____
ROOT
ATOM      1  N   UNL     1       7.099   5.225  14.911  0.00  0.00    +0.000 N 
ATOM      2  C   UNL     1       6.041   5.246  15.775  0.00  0.00    +0.000 A 
ATOM      3  C   UNL     1       5.456   3.969  16.216  0.00  0.00    +0.000 A 
ATOM      4  C   UNL     1       4.419   4.067  17.044  0.00  0.00    +0.000 A 
ATOM      5  N   UNL     1       3.941   5.289  17.470  0.00  0.00    +0.000 N 
ATOM      6  C   UNL     1       4.531   6.478  17.028  0.00  0.00    +0.000 A 
ATOM      7  O   UNL     1       4.107   7.573  17.390  0.00  0.00    +0.000 OA
ATOM      8  N   UNL     1       5.608   6.399  16.171  0.00  0.00    +0.000 NA
ATOM      9  H   UNL     1       7.721   4.428  14.945  0.00  0.00    +0.000 HD
ATOM     10  H   UNL     1       7.577   6.117  14.856  0.00  0.00    +0.000 HD
ENDROOT
BRANCH   5  11
ATOM     11  C   UNL     1       2.756   5.400  18.324  0.00  0.00    +0.000 C 
ATOM     12  S   UNL     1       3.105   4.958  20.078  0.00  0.00    +0.000 S 
ATOM     13  C   UNL     1       2.350   3.287  19.949  0.00  0.00    +0.000 C 
ATOM     14  C   UNL     1       1.497   3.356  18.716  0.00  0.00    +0.000 C 
ATOM     15  C   UNL     1       1.711   4.404  17.910  0.00  0.00    +0.000 C 
ATOM     16  F   UNL     1       0.998   4.549  16.775  0.00  0.00    +0.000 F 
BRANCH  13  17
ATOM     17  C   UNL     1       1.598   2.905  21.227  0.00  0.00    +0.000 C 
BRANCH  17  18
ATOM     18  O   UNL     1       2.469   2.482  22.271  0.00  0.00    +0.000 OA
ATOM     19  H   UNL     1       3.344   2.866  22.080  0.00  0.00    +0.000 HD
ENDBRANCH  17  18
ENDBRANCH  13  17
ENDBRANCH   5  11
TORSDOF 3
ENDMDL
MODEL 7
REMARK VINA RESULT:      -6.3      1.862      2.032
REMARK  Name = 
REMARK  3 active torsions:
REMARK  status: ('A' for Active; 'I' for Inactive)
REMARK    1  A    between atoms: N_5  and  C_6
REMARK    2  A    between atoms: C_8  and  C_9
REMARK    3  A    between atoms: C_9  and  O_10
REMARK                            x       y       z     vdW  Elec       q    Type
REMARK                         _______ _______ _______ _____ _____    ______ ____
ROOT
ATOM      1  N   UNL     1       7.132   4.341  13.011  0.00  0.00    +0.000 N 
ATOM      2  C   UNL     1       6.674   4.637  14.264  0.00  0.00    +0.000 A 
ATOM      3  C   UNL     1       5.473   3.947  14.765  0.00  0.00    +0.000 A 
ATOM      4  C   UNL     1       5.076   4.297  15.985  0.00  0.00    +0.000 A 
ATOM      5  N   UNL     1       5.760   5.234  16.732  0.00  0.00    +0.000 N 
ATOM      6  C   UNL     1       6.900   5.861  16.217  0.00  0.00    +0.000 A 
ATOM      7  O   UNL     1       7.510   6.706  16.867  0.00  0.00    +0.000 OA
ATOM      8  N   UNL     1       7.329   5.511  14.955  0.00  0.00    +0.000 NA
ATOM      9  H   UNL     1       6.960   3.410  12.653  0.00  0.00    +0.000 HD
ATOM     10  H   UNL     1       8.076   4.674  12.851  0.00  0.00    +0.000 HD
ENDROOT
BRANCH   5  11
ATOM     11  C   UNL     1       5.283   5.672  18.046  0.00  0.00    +0.000 C 
ATOM     12  S   UNL     1       4.900   4.260  19.166  0.00  0.00    +0.000 S 
ATOM     13  C   UNL     1       3.082   4.384  18.920  0.00  0.00    +0.000 C 
ATOM     14  C   UNL     1       2.872   5.759  18.359  0.00  0.00    +0.000 C 
ATOM     15  C   UNL     1       3.969   6.389  17.919  0.00  0.00    +0.000 C 
ATOM     16  F   UNL     1       3.881   7.627  17.392  0.00  0.00    +0.000 F 
BRANCH  13  17
ATOM     17  C   UNL     1       2.316   4.096  20.214  0.00  0.00    +0.000 C 
BRANCH  17  18
ATOM     18  O   UNL     1       2.496   5.110  21.197  0.00  0.00    +0.000 OA
ATOM     19  H   UNL     1       3.458   5.228  21.306  0.00  0.00    +0.000 HD
ENDBRANCH  17  18
ENDBRANCH  13  17
ENDBRANCH   5  11
TORSDOF 3
ENDMDL
MODEL 8
REMARK VINA RESULT:      -6.3      3.000      5.681
REMARK  Name = 
REMARK  3 active torsions:
REMARK  status: ('A' for Active; 'I' for Inactive)
REMARK    1  A    between atoms: N_5  and  C_6
REMARK    2  A    between atoms: C_8  and  C_9
REMARK    3  A    between atoms: C_9  and  O_10
REMARK                            x       y       z     vdW  Elec       q    Type
REMARK                         _______ _______ _______ _____ _____    ______ ____
ROOT
ATOM      1  N   UNL     1       0.497   3.609  20.385  0.00  0.00    +0.000 N 
ATOM      2  C   UNL     1       1.737   3.773  19.835  0.00  0.00    +0.000 A 
ATOM      3  C   UNL     1       2.487   5.006  20.124  0.00  0.00    +0.000 A 
ATOM      4  C   UNL     1       3.679   5.104  19.541  0.00  0.00    +0.000 A 
ATOM      5  N   UNL     1       4.178   4.103  18.734  0.00  0.00    +0.000 N 
ATOM      6  C   UNL     1       3.431   2.946  18.490  0.00  0.00    +0.000 A 
ATOM      7  O   UNL     1       3.859   2.053  17.762  0.00  0.00    +0.000 OA
ATOM      8  N   UNL     1       2.195   2.824  19.085  0.00  0.00    +0.000 NA
ATOM      9  H   UNL     1       0.312   4.056  21.274  0.00  0.00    +0.000 HD
ATOM     10  H   UNL     1       0.168   2.652  20.331  0.00  0.00    +0.000 HD
ENDROOT
BRANCH   5  11
ATOM     11  C   UNL     1       5.459   4.241  18.034  0.00  0.00    +0.000 C 
ATOM     12  S   UNL     1       6.634   5.346  18.924  0.00  0.00    +0.000 S 
ATOM     13  C   UNL     1       6.340   6.779  17.811  0.00  0.00    +0.000 C 
ATOM     14  C   UNL     1       5.710   6.181  16.588  0.00  0.00    +0.000 C 
ATOM     15  C   UNL     1       5.266   4.923  16.710  0.00  0.00    +0.000 C 
ATOM     16  F   UNL     1       4.680   4.301  15.667  0.00  0.00    +0.000 F 
BRANCH  13  17
ATOM     17  C   UNL     1       7.627   7.565  17.548  0.00  0.00    +0.000 C 
BRANCH  17  18
ATOM     18  O   UNL     1       8.467   7.644  18.696  0.00  0.00    +0.000 OA
ATOM     19  H   UNL     1       8.148   8.397  19.226  0.00  0.00    +0.000 HD
ENDBRANCH  17  18
ENDBRANCH  13  17
ENDBRANCH   5  11
TORSDOF 3
ENDMDL
MODEL 9
REMARK VINA RESULT:      -6.2      2.890      5.729
REMARK  Name = 
REMARK  3 active torsions:
REMARK  status: ('A' for Active; 'I' for Inactive)
REMARK    1  A    between atoms: N_5  and  C_6
REMARK    2  A    between atoms: C_8  and  C_9
REMARK    3  A    between atoms: C_9  and  O_10
REMARK                            x       y       z     vdW  Elec       q    Type
REMARK                         _______ _______ _______ _____ _____    ______ ____
ROOT
ATOM      1  N   UNL     1       1.291   2.456  22.210  0.00  0.00    +0.000 N 
ATOM      2  C   UNL     1       1.824   3.001  21.075  0.00  0.00    +0.000 A 
ATOM      3  C   UNL     1       2.436   4.338  21.147  0.00  0.00    +0.000 A 
ATOM      4  C   UNL     1       2.919   4.812  20.002  0.00  0.00    +0.000 A 
ATOM      5  N   UNL     1       2.860   4.084  18.831  0.00  0.00    +0.000 N 
ATOM      6  C   UNL     1       2.271   2.815  18.811  0.00  0.00    +0.000 A 
ATOM      7  O   UNL     1       2.201   2.163  17.772  0.00  0.00    +0.000 OA
ATOM      8  N   UNL     1       1.767   2.305  19.987  0.00  0.00    +0.000 NA
ATOM      9  H   UNL     1       1.698   2.723  23.097  0.00  0.00    +0.000 HD
ATOM     10  H   UNL     1       1.116   1.462  22.121  0.00  0.00    +0.000 HD
ENDROOT
BRANCH   5  11
ATOM     11  C   UNL     1       3.326   4.634  17.555  0.00  0.00    +0.000 C 
ATOM     12  S   UNL     1       4.998   4.018  17.090  0.00  0.00    +0.000 S 
ATOM     13  C   UNL     1       5.857   5.563  17.599  0.00  0.00    +0.000 C 
ATOM     14  C   UNL     1       4.767   6.591  17.670  0.00  0.00    +0.000 C 
ATOM     15  C   UNL     1       3.512   6.121  17.657  0.00  0.00    +0.000 C 
ATOM     16  F   UNL     1       2.465   6.967  17.724  0.00  0.00    +0.000 F 
BRANCH  13  17
ATOM     17  C   UNL     1       7.005   5.912  16.647  0.00  0.00    +0.000 C 
BRANCH  17  18
ATOM     18  O   UNL     1       7.547   4.767  15.997  0.00  0.00    +0.000 OA
ATOM     19  H   UNL     1       6.916   4.038  16.139  0.00  0.00    +0.000 HD
ENDBRANCH  17  18
ENDBRANCH  13  17
ENDBRANCH   5  11
TORSDOF 3
ENDMDL
