MODEL 1
REMARK VINA RESULT:      -8.7      0.000      0.000
REMARK  Name = 
REMARK  12 active torsions:
REMARK  status: ('A' for Active; 'I' for Inactive)
REMARK    1  A    between atoms: C_1  and  C_2
REMARK    2  A    between atoms: C_5  and  C_6
REMARK    3  A    between atoms: N_7  and  O_8
REMARK    4  A    between atoms: N_9  and  C_10
REMARK    5  A    between atoms: C_10  and  C_11
REMARK    6  A    between atoms: C_16  and  C_17
REMARK    7  A    between atoms: C_18  and  O_19
REMARK    8  A    between atoms: O_19  and  C_20
REMARK    9  A    between atoms: C_20  and  C_21
REMARK   10  A    between atoms: C_24  and  C_25
REMARK   11  A    between atoms: C_25  and  C_26
REMARK   12  A    between atoms: C_25  and  C_27
REMARK                            x       y       z     vdW  Elec       q    Type
REMARK                         _______ _______ _______ _____ _____    ______ ____
ROOT
ATOM      1  C   UNL     1       5.318   4.495  13.058  0.00  0.00    +0.000 C 
ATOM      2  C   UNL     1       5.640   4.632  14.510  0.00  0.00    +0.000 A 
ATOM      3  C   UNL     1       6.375   3.664  15.165  0.00  0.00    +0.000 A 
ATOM      4  C   UNL     1       6.589   3.835  16.521  0.00  0.00    +0.000 A 
ATOM      5  C   UNL     1       6.126   4.968  17.222  0.00  0.00    +0.000 A 
ATOM      6  C   UNL     1       5.353   5.885  16.485  0.00  0.00    +0.000 A 
ATOM      7  N   UNL     1       5.158   5.714  15.146  0.00  0.00    +0.000 NA
ENDROOT
BRANCH   5   8
ATOM      8  C   UNL     1       6.492   4.996  18.681  0.00  0.00    +0.000 C 
ATOM      9  N   UNL     1       7.662   5.442  19.048  0.00  0.00    +0.000 NA
ATOM     10  N   UNL     1       5.546   4.627  19.642  0.00  0.00    +0.000 N 
ATOM     11  H   UNL     1       5.950   4.819  20.561  0.00  0.00    +0.000 HD
BRANCH   9  12
ATOM     12  O   UNL     1       7.762   5.459  20.456  0.00  0.00    +0.000 OA
ATOM     13  H   UNL     1       7.524   6.381  20.667  0.00  0.00    +0.000 HD
ENDBRANCH   9  12
BRANCH  10  14
ATOM     14  C   UNL     1       4.870   3.329  19.647  0.00  0.00    +0.000 C 
BRANCH  14  15
ATOM     15  C   UNL     1       3.346   3.432  19.652  0.00  0.00    +0.000 A 
ATOM     16  C   UNL     1       2.640   3.973  20.743  0.00  0.00    +0.000 A 
ATOM     17  C   UNL     1       1.247   3.880  20.827  0.00  0.00    +0.000 A 
ATOM     18  C   UNL     1       0.538   3.192  19.850  0.00  0.00    +0.000 A 
ATOM     19  C   UNL     1       1.204   2.734  18.719  0.00  0.00    +0.000 A 
ATOM     20  C   UNL     1       2.588   2.936  18.566  0.00  0.00    +0.000 A 
ATOM     21  C   UNL     1       3.182   2.644  17.215  0.00  0.00    +0.000 C 
ENDBRANCH  14  15
ENDBRANCH  10  14
ENDBRANCH   5   8
BRANCH   6  22
ATOM     22  O   UNL     1       4.731   7.000  17.042  0.00  0.00    +0.000 OA
BRANCH  22  23
ATOM     23  C   UNL     1       3.416   6.623  17.541  0.00  0.00    +0.000 C 
BRANCH  23  24
ATOM     24  C   UNL     1       2.583   7.636  18.317  0.00  0.00    +0.000 A 
ATOM     25  C   UNL     1       2.004   8.766  17.755  0.00  0.00    +0.000 A 
ATOM     26  C   UNL     1       1.216   9.627  18.544  0.00  0.00    +0.000 A 
ATOM     27  C   UNL     1       0.978   9.380  19.907  0.00  0.00    +0.000 A 
ATOM     28  C   UNL     1       1.547   8.233  20.469  0.00  0.00    +0.000 A 
ATOM     29  C   UNL     1       2.331   7.374  19.683  0.00  0.00    +0.000 A 
BRANCH  27  30
ATOM     30  C   UNL     1       0.125  10.342  20.727  0.00  0.00    +0.000 C 
ATOM     31  C   UNL     1      -1.088  10.855  19.943  0.00  0.00    +0.000 C 
ATOM     32  C   UNL     1      -0.326   9.744  22.065  0.00  0.00    +0.000 C 
ENDBRANCH  27  30
ENDBRANCH  23  24
ENDBRANCH  22  23
ENDBRANCH   6  22
TORSDOF 8
ENDMDL
MODEL 2
REMARK VINA RESULT:      -8.3      0.726      1.358
REMARK  Name = 
REMARK  12 active torsions:
REMARK  status: ('A' for Active; 'I' for Inactive)
REMARK    1  A    between atoms: C_1  and  C_2
REMARK    2  A    between atoms: C_5  and  C_6
REMARK    3  A    between atoms: N_7  and  O_8
REMARK    4  A    between atoms: N_9  and  C_10
REMARK    5  A    between atoms: C_10  and  C_11
REMARK    6  A    between atoms: C_16  and  C_17
REMARK    7  A    between atoms: C_18  and  O_19
REMARK    8  A    between atoms: O_19  and  C_20
REMARK    9  A    between atoms: C_20  and  C_21
REMARK   10  A    between atoms: C_24  and  C_25
REMARK   11  A    between atoms: C_25  and  C_26
REMARK   12  A    between atoms: C_25  and  C_27
REMARK                            x       y       z     vdW  Elec       q    Type
REMARK                         _______ _______ _______ _____ _____    ______ ____
ROOT
ATOM      1  C   UNL     1       5.392   4.393  13.098  0.00  0.00    +0.000 C 
ATOM      2  C   UNL     1       5.725   4.566  14.543  0.00  0.00    +0.000 A 
ATOM      3  C   UNL     1       6.329   3.549  15.256  0.00  0.00    +0.000 A 
ATOM      4  C   UNL     1       6.559   3.765  16.604  0.00  0.00    +0.000 A 
ATOM      5  C   UNL     1       6.241   4.984  17.239  0.00  0.00    +0.000 A 
ATOM      6  C   UNL     1       5.593   5.950  16.447  0.00  0.00    +0.000 A 
ATOM      7  N   UNL     1       5.382   5.733  15.116  0.00  0.00    +0.000 NA
ENDROOT
BRANCH   5   8
ATOM      8  C   UNL     1       6.603   5.044  18.697  0.00  0.00    +0.000 C 
ATOM      9  N   UNL     1       7.762   5.523  19.060  0.00  0.00    +0.000 NA
ATOM     10  N   UNL     1       5.664   4.668  19.663  0.00  0.00    +0.000 N 
ATOM     11  H   UNL     1       6.061   4.884  20.579  0.00  0.00    +0.000 HD
BRANCH   9  12
ATOM     12  O   UNL     1       7.857   5.566  20.467  0.00  0.00    +0.000 OA
ATOM     13  H   UNL     1       7.411   4.739  20.728  0.00  0.00    +0.000 HD
ENDBRANCH   9  12
BRANCH  10  14
ATOM     14  C   UNL     1       5.019   3.354  19.687  0.00  0.00    +0.000 C 
BRANCH  14  15
ATOM     15  C   UNL     1       3.579   3.369  19.179  0.00  0.00    +0.000 A 
ATOM     16  C   UNL     1       3.272   3.539  17.815  0.00  0.00    +0.000 A 
ATOM     17  C   UNL     1       1.959   3.754  17.386  0.00  0.00    +0.000 A 
ATOM     18  C   UNL     1       0.934   3.861  18.317  0.00  0.00    +0.000 A 
ATOM     19  C   UNL     1       1.199   3.602  19.657  0.00  0.00    +0.000 A 
ATOM     20  C   UNL     1       2.496   3.260  20.082  0.00  0.00    +0.000 A 
ATOM     21  C   UNL     1       2.649   2.749  21.489  0.00  0.00    +0.000 C 
ENDBRANCH  14  15
ENDBRANCH  10  14
ENDBRANCH   5   8
BRANCH   6  22
ATOM     22  O   UNL     1       5.116   7.163  16.937  0.00  0.00    +0.000 OA
BRANCH  22  23
ATOM     23  C   UNL     1       3.666   7.199  16.816  0.00  0.00    +0.000 C 
BRANCH  23  24
ATOM     24  C   UNL     1       2.830   7.831  17.921  0.00  0.00    +0.000 A 
ATOM     25  C   UNL     1       2.059   8.975  17.760  0.00  0.00    +0.000 A 
ATOM     26  C   UNL     1       1.286   9.467  18.831  0.00  0.00    +0.000 A 
ATOM     27  C   UNL     1       1.255   8.829  20.083  0.00  0.00    +0.000 A 
ATOM     28  C   UNL     1       2.018   7.667  20.240  0.00  0.00    +0.000 A 
ATOM     29  C   UNL     1       2.786   7.176  19.173  0.00  0.00    +0.000 A 
BRANCH  27  30
ATOM     30  C   UNL     1       0.411   9.399  21.217  0.00  0.00    +0.000 C 
ATOM     31  C   UNL     1      -0.306  10.692  20.814  0.00  0.00    +0.000 C 
ATOM     32  C   UNL     1      -0.599   8.387  21.773  0.00  0.00    +0.000 C 
ENDBRANCH  27  30
ENDBRANCH  23  24
ENDBRANCH  22  23
ENDBRANCH   6  22
TORSDOF 8
ENDMDL
MODEL 3
REMARK VINA RESULT:      -8.2      0.685      1.783
REMARK  Name = 
REMARK  12 active torsions:
REMARK  status: ('A' for Active; 'I' for Inactive)
REMARK    1  A    between atoms: C_1  and  C_2
REMARK    2  A    between atoms: C_5  and  C_6
REMARK    3  A    between atoms: N_7  and  O_8
REMARK    4  A    between atoms: N_9  and  C_10
REMARK    5  A    between atoms: C_10  and  C_11
REMARK    6  A    between atoms: C_16  and  C_17
REMARK    7  A    between atoms: C_18  and  O_19
REMARK    8  A    between atoms: O_19  and  C_20
REMARK    9  A    between atoms: C_20  and  C_21
REMARK   10  A    between atoms: C_24  and  C_25
REMARK   11  A    between atoms: C_25  and  C_26
REMARK   12  A    between atoms: C_25  and  C_27
REMARK                            x       y       z     vdW  Elec       q    Type
REMARK                         _______ _______ _______ _____ _____    ______ ____
ROOT
ATOM      1  C   UNL     1       5.368   4.548  13.147  0.00  0.00    +0.000 C 
ATOM      2  C   UNL     1       5.710   4.683  14.594  0.00  0.00    +0.000 A 
ATOM      3  C   UNL     1       6.489   3.736  15.228  0.00  0.00    +0.000 A 
ATOM      4  C   UNL     1       6.720   3.903  16.582  0.00  0.00    +0.000 A 
ATOM      5  C   UNL     1       6.230   5.012  17.301  0.00  0.00    +0.000 A 
ATOM      6  C   UNL     1       5.413   5.907  16.586  0.00  0.00    +0.000 A 
ATOM      7  N   UNL     1       5.201   5.741  15.248  0.00  0.00    +0.000 NA
ENDROOT
BRANCH   5   8
ATOM      8  C   UNL     1       6.619   5.040  18.754  0.00  0.00    +0.000 C 
ATOM      9  N   UNL     1       7.776   5.528  19.107  0.00  0.00    +0.000 NA
ATOM     10  N   UNL     1       5.704   4.624  19.727  0.00  0.00    +0.000 N 
ATOM     11  H   UNL     1       6.116   4.822  20.641  0.00  0.00    +0.000 HD
BRANCH   9  12
ATOM     12  O   UNL     1       7.899   5.535  20.512  0.00  0.00    +0.000 OA
ATOM     13  H   UNL     1       6.982   5.370  20.799  0.00  0.00    +0.000 HD
ENDBRANCH   9  12
BRANCH  10  14
ATOM     14  C   UNL     1       5.081   3.300  19.729  0.00  0.00    +0.000 C 
BRANCH  14  15
ATOM     15  C   UNL     1       3.675   3.284  19.131  0.00  0.00    +0.000 A 
ATOM     16  C   UNL     1       3.444   2.973  17.777  0.00  0.00    +0.000 A 
ATOM     17  C   UNL     1       2.188   3.157  17.192  0.00  0.00    +0.000 A 
ATOM     18  C   UNL     1       1.152   3.711  17.933  0.00  0.00    +0.000 A 
ATOM     19  C   UNL     1       1.331   3.936  19.293  0.00  0.00    +0.000 A 
ATOM     20  C   UNL     1       2.554   3.635  19.919  0.00  0.00    +0.000 A 
ATOM     21  C   UNL     1       2.585   3.664  21.423  0.00  0.00    +0.000 C 
ENDBRANCH  14  15
ENDBRANCH  10  14
ENDBRANCH   5   8
BRANCH   6  22
ATOM     22  O   UNL     1       4.761   6.995  17.164  0.00  0.00    +0.000 OA
BRANCH  22  23
ATOM     23  C   UNL     1       3.539   6.541  17.811  0.00  0.00    +0.000 C 
BRANCH  23  24
ATOM     24  C   UNL     1       2.586   7.557  18.426  0.00  0.00    +0.000 A 
ATOM     25  C   UNL     1       2.132   7.510  19.737  0.00  0.00    +0.000 A 
ATOM     26  C   UNL     1       1.280   8.519  20.231  0.00  0.00    +0.000 A 
ATOM     27  C   UNL     1       0.867   9.600  19.435  0.00  0.00    +0.000 A 
ATOM     28  C   UNL     1       1.337   9.658  18.119  0.00  0.00    +0.000 A 
ATOM     29  C   UNL     1       2.187   8.654  17.628  0.00  0.00    +0.000 A 
BRANCH  27  30
ATOM     30  C   UNL     1      -0.062  10.666  20.006  0.00  0.00    +0.000 C 
ATOM     31  C   UNL     1       0.407  11.171  21.376  0.00  0.00    +0.000 C 
ATOM     32  C   UNL     1      -0.269  11.848  19.051  0.00  0.00    +0.000 C 
ENDBRANCH  27  30
ENDBRANCH  23  24
ENDBRANCH  22  23
ENDBRANCH   6  22
TORSDOF 8
ENDMDL
MODEL 4
REMARK VINA RESULT:      -7.6      1.768      5.052
REMARK  Name = 
REMARK  12 active torsions:
REMARK  status: ('A' for Active; 'I' for Inactive)
REMARK    1  A    between atoms: C_1  and  C_2
REMARK    2  A    between atoms: C_5  and  C_6
REMARK    3  A    between atoms: N_7  and  O_8
REMARK    4  A    between atoms: N_9  and  C_10
REMARK    5  A    between atoms: C_10  and  C_11
REMARK    6  A    between atoms: C_16  and  C_17
REMARK    7  A    between atoms: C_18  and  O_19
REMARK    8  A    between atoms: O_19  and  C_20
REMARK    9  A    between atoms: C_20  and  C_21
REMARK   10  A    between atoms: C_24  and  C_25
REMARK   11  A    between atoms: C_25  and  C_26
REMARK   12  A    between atoms: C_25  and  C_27
REMARK                            x       y       z     vdW  Elec       q    Type
REMARK                         _______ _______ _______ _____ _____    ______ ____
ROOT
ATOM      1  C   UNL     1       0.527   2.285  18.814  0.00  0.00    +0.000 C 
ATOM      2  C   UNL     1       1.884   2.745  18.396  0.00  0.00    +0.000 A 
ATOM      3  C   UNL     1       2.942   1.860  18.331  0.00  0.00    +0.000 A 
ATOM      4  C   UNL     1       4.181   2.371  17.986  0.00  0.00    +0.000 A 
ATOM      5  C   UNL     1       4.374   3.730  17.662  0.00  0.00    +0.000 A 
ATOM      6  C   UNL     1       3.251   4.568  17.792  0.00  0.00    +0.000 A 
ATOM      7  N   UNL     1       2.031   4.053  18.121  0.00  0.00    +0.000 NA
ENDROOT
BRANCH   5   8
ATOM      8  C   UNL     1       5.782   4.088  17.271  0.00  0.00    +0.000 C 
ATOM      9  N   UNL     1       6.646   4.420  18.191  0.00  0.00    +0.000 NA
ATOM     10  N   UNL     1       6.182   3.979  15.936  0.00  0.00    +0.000 N 
ATOM     11  H   UNL     1       7.187   4.159  15.900  0.00  0.00    +0.000 HD
BRANCH   9  12
ATOM     12  O   UNL     1       7.917   4.632  17.617  0.00  0.00    +0.000 OA
ATOM     13  H   UNL     1       8.493   4.086  18.184  0.00  0.00    +0.000 HD
ENDBRANCH   9  12
BRANCH  10  14
ATOM     14  C   UNL     1       5.505   4.668  14.836  0.00  0.00    +0.000 C 
BRANCH  14  15
ATOM     15  C   UNL     1       5.776   4.048  13.467  0.00  0.00    +0.000 A 
ATOM     16  C   UNL     1       4.826   3.239  12.814  0.00  0.00    +0.000 A 
ATOM     17  C   UNL     1       5.155   2.515  11.664  0.00  0.00    +0.000 A 
ATOM     18  C   UNL     1       6.455   2.539  11.177  0.00  0.00    +0.000 A 
ATOM     19  C   UNL     1       7.382   3.404  11.748  0.00  0.00    +0.000 A 
ATOM     20  C   UNL     1       7.025   4.232  12.828  0.00  0.00    +0.000 A 
ATOM     21  C   UNL     1       7.996   5.312  13.220  0.00  0.00    +0.000 C 
ENDBRANCH  14  15
ENDBRANCH  10  14
ENDBRANCH   5   8
BRANCH   6  22
ATOM     22  O   UNL     1       3.288   5.950  17.615  0.00  0.00    +0.000 OA
BRANCH  22  23
ATOM     23  C   UNL     1       3.111   6.608  18.901  0.00  0.00    +0.000 C 
BRANCH  23  24
ATOM     24  C   UNL     1       2.206   7.829  19.007  0.00  0.00    +0.000 A 
ATOM     25  C   UNL     1       1.854   8.636  17.934  0.00  0.00    +0.000 A 
ATOM     26  C   UNL     1       0.978   9.725  18.121  0.00  0.00    +0.000 A 
ATOM     27  C   UNL     1       0.425  10.029  19.376  0.00  0.00    +0.000 A 
ATOM     28  C   UNL     1       0.765   9.205  20.454  0.00  0.00    +0.000 A 
ATOM     29  C   UNL     1       1.636   8.120  20.268  0.00  0.00    +0.000 A 
BRANCH  27  30
ATOM     30  C   UNL     1      -0.513  11.220  19.537  0.00  0.00    +0.000 C 
ATOM     31  C   UNL     1       0.231  12.492  19.960  0.00  0.00    +0.000 C 
ATOM     32  C   UNL     1      -1.350  11.492  18.281  0.00  0.00    +0.000 C 
ENDBRANCH  27  30
ENDBRANCH  23  24
ENDBRANCH  22  23
ENDBRANCH   6  22
TORSDOF 8
ENDMDL
MODEL 5
REMARK VINA RESULT:      -7.4      1.765      5.096
REMARK  Name = 
REMARK  12 active torsions:
REMARK  status: ('A' for Active; 'I' for Inactive)
REMARK    1  A    between atoms: C_1  and  C_2
REMARK    2  A    between atoms: C_5  and  C_6
REMARK    3  A    between atoms: N_7  and  O_8
REMARK    4  A    between atoms: N_9  and  C_10
REMARK    5  A    between atoms: C_10  and  C_11
REMARK    6  A    between atoms: C_16  and  C_17
REMARK    7  A    between atoms: C_18  and  O_19
REMARK    8  A    between atoms: O_19  and  C_20
REMARK    9  A    between atoms: C_20  and  C_21
REMARK   10  A    between atoms: C_24  and  C_25
REMARK   11  A    between atoms: C_25  and  C_26
REMARK   12  A    between atoms: C_25  and  C_27
REMARK                            x       y       z     vdW  Elec       q    Type
REMARK                         _______ _______ _______ _____ _____    ______ ____
ROOT
ATOM      1  C   UNL     1       0.586   2.269  18.887  0.00  0.00    +0.000 C 
ATOM      2  C   UNL     1       1.951   2.742  18.509  0.00  0.00    +0.000 A 
ATOM      3  C   UNL     1       2.881   1.870  17.980  0.00  0.00    +0.000 A 
ATOM      4  C   UNL     1       4.141   2.372  17.703  0.00  0.00    +0.000 A 
ATOM      5  C   UNL     1       4.475   3.727  17.901  0.00  0.00    +0.000 A 
ATOM      6  C   UNL     1       3.480   4.536  18.481  0.00  0.00    +0.000 A 
ATOM      7  N   UNL     1       2.237   4.036  18.738  0.00  0.00    +0.000 NA
ENDROOT
BRANCH   5   8
ATOM      8  C   UNL     1       5.879   4.092  17.504  0.00  0.00    +0.000 C 
ATOM      9  N   UNL     1       6.758   4.388  18.422  0.00  0.00    +0.000 NA
ATOM     10  N   UNL     1       6.260   4.029  16.160  0.00  0.00    +0.000 N 
ATOM     11  H   UNL     1       7.266   4.205  16.117  0.00  0.00    +0.000 HD
BRANCH   9  12
ATOM     12  O   UNL     1       8.022   4.613  17.838  0.00  0.00    +0.000 OA
ATOM     13  H   UNL     1       8.553   4.904  18.602  0.00  0.00    +0.000 HD
ENDBRANCH   9  12
BRANCH  10  14
ATOM     14  C   UNL     1       5.571   4.759  15.095  0.00  0.00    +0.000 C 
BRANCH  14  15
ATOM     15  C   UNL     1       5.824   4.190  13.700  0.00  0.00    +0.000 A 
ATOM     16  C   UNL     1       4.862   3.412  13.027  0.00  0.00    +0.000 A 
ATOM     17  C   UNL     1       5.173   2.730  11.847  0.00  0.00    +0.000 A 
ATOM     18  C   UNL     1       6.468   2.764  11.348  0.00  0.00    +0.000 A 
ATOM     19  C   UNL     1       7.407   3.600  11.942  0.00  0.00    +0.000 A 
ATOM     20  C   UNL     1       7.067   4.389  13.055  0.00  0.00    +0.000 A 
ATOM     21  C   UNL     1       8.050   5.447  13.477  0.00  0.00    +0.000 C 
ENDBRANCH  14  15
ENDBRANCH  10  14
ENDBRANCH   5   8
BRANCH   6  22
ATOM     22  O   UNL     1       3.674   5.868  18.842  0.00  0.00    +0.000 OA
BRANCH  22  23
ATOM     23  C   UNL     1       2.671   6.256  19.823  0.00  0.00    +0.000 C 
BRANCH  23  24
ATOM     24  C   UNL     1       1.986   7.612  19.708  0.00  0.00    +0.000 A 
ATOM     25  C   UNL     1       1.348   8.257  20.759  0.00  0.00    +0.000 A 
ATOM     26  C   UNL     1       0.775   9.530  20.569  0.00  0.00    +0.000 A 
ATOM     27  C   UNL     1       0.830  10.195  19.332  0.00  0.00    +0.000 A 
ATOM     28  C   UNL     1       1.488   9.554  18.278  0.00  0.00    +0.000 A 
ATOM     29  C   UNL     1       2.061   8.286  18.468  0.00  0.00    +0.000 A 
BRANCH  27  30
ATOM     30  C   UNL     1       0.190  11.569  19.167  0.00  0.00    +0.000 C 
ATOM     31  C   UNL     1       1.176  12.606  18.618  0.00  0.00    +0.000 C 
ATOM     32  C   UNL     1      -1.076  11.534  18.302  0.00  0.00    +0.000 C 
ENDBRANCH  27  30
ENDBRANCH  23  24
ENDBRANCH  22  23
ENDBRANCH   6  22
TORSDOF 8
ENDMDL
MODEL 6
REMARK VINA RESULT:      -7.3      1.475      4.585
REMARK  Name = 
REMARK  12 active torsions:
REMARK  status: ('A' for Active; 'I' for Inactive)
REMARK    1  A    between atoms: C_1  and  C_2
REMARK    2  A    between atoms: C_5  and  C_6
REMARK    3  A    between atoms: N_7  and  O_8
REMARK    4  A    between atoms: N_9  and  C_10
REMARK    5  A    between atoms: C_10  and  C_11
REMARK    6  A    between atoms: C_16  and  C_17
REMARK    7  A    between atoms: C_18  and  O_19
REMARK    8  A    between atoms: O_19  and  C_20
REMARK    9  A    between atoms: C_20  and  C_21
REMARK   10  A    between atoms: C_24  and  C_25
REMARK   11  A    between atoms: C_25  and  C_26
REMARK   12  A    between atoms: C_25  and  C_27
REMARK                            x       y       z     vdW  Elec       q    Type
REMARK                         _______ _______ _______ _____ _____    ______ ____
ROOT
ATOM      1  C   UNL     1       0.993   2.533  18.981  0.00  0.00    +0.000 C 
ATOM      2  C   UNL     1       2.348   3.156  18.907  0.00  0.00    +0.000 A 
ATOM      3  C   UNL     1       3.487   2.387  19.033  0.00  0.00    +0.000 A 
ATOM      4  C   UNL     1       4.706   3.043  19.006  0.00  0.00    +0.000 A 
ATOM      5  C   UNL     1       4.809   4.436  18.811  0.00  0.00    +0.000 A 
ATOM      6  C   UNL     1       3.597   5.146  18.731  0.00  0.00    +0.000 A 
ATOM      7  N   UNL     1       2.401   4.489  18.746  0.00  0.00    +0.000 NA
ENDROOT
BRANCH   5   8
ATOM      8  C   UNL     1       6.218   4.960  18.770  0.00  0.00    +0.000 C 
ATOM      9  N   UNL     1       6.831   5.263  19.882  0.00  0.00    +0.000 NA
ATOM     10  N   UNL     1       6.896   5.037  17.549  0.00  0.00    +0.000 N 
ATOM     11  H   UNL     1       7.861   5.310  17.750  0.00  0.00    +0.000 HD
BRANCH   9  12
ATOM     12  O   UNL     1       8.162   5.651  19.619  0.00  0.00    +0.000 OA
ATOM     13  H   UNL     1       8.529   4.854  19.194  0.00  0.00    +0.000 HD
ENDBRANCH   9  12
BRANCH  10  14
ATOM     14  C   UNL     1       6.389   5.782  16.395  0.00  0.00    +0.000 C 
BRANCH  14  15
ATOM     15  C   UNL     1       6.638   5.084  15.060  0.00  0.00    +0.000 A 
ATOM     16  C   UNL     1       7.684   5.472  14.200  0.00  0.00    +0.000 A 
ATOM     17  C   UNL     1       7.781   4.968  12.899  0.00  0.00    +0.000 A 
ATOM     18  C   UNL     1       6.803   4.112  12.412  0.00  0.00    +0.000 A 
ATOM     19  C   UNL     1       5.817   3.643  13.273  0.00  0.00    +0.000 A 
ATOM     20  C   UNL     1       5.785   4.045  14.620  0.00  0.00    +0.000 A 
ATOM     21  C   UNL     1       4.854   3.304  15.540  0.00  0.00    +0.000 C 
ENDBRANCH  14  15
ENDBRANCH  10  14
ENDBRANCH   5   8
BRANCH   6  22
ATOM     22  O   UNL     1       3.515   6.535  18.645  0.00  0.00    +0.000 OA
BRANCH  22  23
ATOM     23  C   UNL     1       2.571   7.027  19.638  0.00  0.00    +0.000 C 
BRANCH  23  24
ATOM     24  C   UNL     1       1.742   8.270  19.341  0.00  0.00    +0.000 A 
ATOM     25  C   UNL     1       1.614   8.842  18.083  0.00  0.00    +0.000 A 
ATOM     26  C   UNL     1       0.792   9.972  17.896  0.00  0.00    +0.000 A 
ATOM     27  C   UNL     1       0.073  10.554  18.954  0.00  0.00    +0.000 A 
ATOM     28  C   UNL     1       0.188   9.967  20.219  0.00  0.00    +0.000 A 
ATOM     29  C   UNL     1       1.005   8.840  20.404  0.00  0.00    +0.000 A 
BRANCH  27  30
ATOM     30  C   UNL     1      -0.799  11.781  18.711  0.00  0.00    +0.000 C 
ATOM     31  C   UNL     1      -2.006  11.467  17.820  0.00  0.00    +0.000 C 
ATOM     32  C   UNL     1      -1.262  12.448  20.012  0.00  0.00    +0.000 C 
ENDBRANCH  27  30
ENDBRANCH  23  24
ENDBRANCH  22  23
ENDBRANCH   6  22
TORSDOF 8
ENDMDL
MODEL 7
REMARK VINA RESULT:      -7.3      1.555      4.692
REMARK  Name = 
REMARK  12 active torsions:
REMARK  status: ('A' for Active; 'I' for Inactive)
REMARK    1  A    between atoms: C_1  and  C_2
REMARK    2  A    between atoms: C_5  and  C_6
REMARK    3  A    between atoms: N_7  and  O_8
REMARK    4  A    between atoms: N_9  and  C_10
REMARK    5  A    between atoms: C_10  and  C_11
REMARK    6  A    between atoms: C_16  and  C_17
REMARK    7  A    between atoms: C_18  and  O_19
REMARK    8  A    between atoms: O_19  and  C_20
REMARK    9  A    between atoms: C_20  and  C_21
REMARK   10  A    between atoms: C_24  and  C_25
REMARK   11  A    between atoms: C_25  and  C_26
REMARK   12  A    between atoms: C_25  and  C_27
REMARK                            x       y       z     vdW  Elec       q    Type
REMARK                         _______ _______ _______ _____ _____    ______ ____
ROOT
ATOM      1  C   UNL     1       1.130   2.180  18.789  0.00  0.00    +0.000 C 
ATOM      2  C   UNL     1       2.452   2.872  18.745  0.00  0.00    +0.000 A 
ATOM      3  C   UNL     1       3.628   2.159  18.866  0.00  0.00    +0.000 A 
ATOM      4  C   UNL     1       4.812   2.877  18.868  0.00  0.00    +0.000 A 
ATOM      5  C   UNL     1       4.846   4.278  18.707  0.00  0.00    +0.000 A 
ATOM      6  C   UNL     1       3.601   4.928  18.630  0.00  0.00    +0.000 A 
ATOM      7  N   UNL     1       2.439   4.210  18.617  0.00  0.00    +0.000 NA
ENDROOT
BRANCH   5   8
ATOM      8  C   UNL     1       6.227   4.873  18.694  0.00  0.00    +0.000 C 
ATOM      9  N   UNL     1       6.812   5.183  19.819  0.00  0.00    +0.000 NA
ATOM     10  N   UNL     1       6.913   5.012  17.483  0.00  0.00    +0.000 N 
ATOM     11  H   UNL     1       7.860   5.328  17.701  0.00  0.00    +0.000 HD
BRANCH   9  12
ATOM     12  O   UNL     1       8.124   5.644  19.580  0.00  0.00    +0.000 OA
ATOM     13  H   UNL     1       8.346   5.205  18.739  0.00  0.00    +0.000 HD
ENDBRANCH   9  12
BRANCH  10  14
ATOM     14  C   UNL     1       6.381   5.754  16.339  0.00  0.00    +0.000 C 
BRANCH  14  15
ATOM     15  C   UNL     1       6.658   5.086  14.994  0.00  0.00    +0.000 A 
ATOM     16  C   UNL     1       7.729   5.482  14.171  0.00  0.00    +0.000 A 
ATOM     17  C   UNL     1       7.855   5.008  12.861  0.00  0.00    +0.000 A 
ATOM     18  C   UNL     1       6.880   4.175  12.329  0.00  0.00    +0.000 A 
ATOM     19  C   UNL     1       5.867   3.696  13.152  0.00  0.00    +0.000 A 
ATOM     20  C   UNL     1       5.805   4.067  14.508  0.00  0.00    +0.000 A 
ATOM     21  C   UNL     1       4.843   3.314  15.386  0.00  0.00    +0.000 C 
ENDBRANCH  14  15
ENDBRANCH  10  14
ENDBRANCH   5   8
BRANCH   6  22
ATOM     22  O   UNL     1       3.449   6.311  18.576  0.00  0.00    +0.000 OA
BRANCH  22  23
ATOM     23  C   UNL     1       2.590   6.748  19.668  0.00  0.00    +0.000 C 
BRANCH  23  24
ATOM     24  C   UNL     1       1.846   8.073  19.561  0.00  0.00    +0.000 A 
ATOM     25  C   UNL     1       1.166   8.674  20.612  0.00  0.00    +0.000 A 
ATOM     26  C   UNL     1       0.537   9.923  20.430  0.00  0.00    +0.000 A 
ATOM     27  C   UNL     1       0.578  10.605  19.202  0.00  0.00    +0.000 A 
ATOM     28  C   UNL     1       1.278  10.008  18.148  0.00  0.00    +0.000 A 
ATOM     29  C   UNL     1       1.905   8.765  18.330  0.00  0.00    +0.000 A 
BRANCH  27  30
ATOM     30  C   UNL     1      -0.122  11.950  19.045  0.00  0.00    +0.000 C 
ATOM     31  C   UNL     1       0.826  13.042  18.536  0.00  0.00    +0.000 C 
ATOM     32  C   UNL     1      -1.366  11.873  18.151  0.00  0.00    +0.000 C 
ENDBRANCH  27  30
ENDBRANCH  23  24
ENDBRANCH  22  23
ENDBRANCH   6  22
TORSDOF 8
ENDMDL
MODEL 8
REMARK VINA RESULT:      -7.0      0.897      1.668
REMARK  Name = 
REMARK  12 active torsions:
REMARK  status: ('A' for Active; 'I' for Inactive)
REMARK    1  A    between atoms: C_1  and  C_2
REMARK    2  A    between atoms: C_5  and  C_6
REMARK    3  A    between atoms: N_7  and  O_8
REMARK    4  A    between atoms: N_9  and  C_10
REMARK    5  A    between atoms: C_10  and  C_11
REMARK    6  A    between atoms: C_16  and  C_17
REMARK    7  A    between atoms: C_18  and  O_19
REMARK    8  A    between atoms: O_19  and  C_20
REMARK    9  A    between atoms: C_20  and  C_21
REMARK   10  A    between atoms: C_24  and  C_25
REMARK   11  A    between atoms: C_25  and  C_26
REMARK   12  A    between atoms: C_25  and  C_27
REMARK                            x       y       z     vdW  Elec       q    Type
REMARK                         _______ _______ _______ _____ _____    ______ ____
ROOT
ATOM      1  C   UNL     1       5.255   5.491  13.652  0.00  0.00    +0.000 C 
ATOM      2  C   UNL     1       5.656   5.379  15.086  0.00  0.00    +0.000 A 
ATOM      3  C   UNL     1       6.522   4.387  15.502  0.00  0.00    +0.000 A 
ATOM      4  C   UNL     1       6.806   4.315  16.854  0.00  0.00    +0.000 A 
ATOM      5  C   UNL     1       6.282   5.234  17.787  0.00  0.00    +0.000 A 
ATOM      6  C   UNL     1       5.378   6.187  17.282  0.00  0.00    +0.000 A 
ATOM      7  N   UNL     1       5.114   6.258  15.945  0.00  0.00    +0.000 NA
ENDROOT
BRANCH   5   8
ATOM      8  C   UNL     1       6.737   5.018  19.204  0.00  0.00    +0.000 C 
ATOM      9  N   UNL     1       7.950   5.351  19.554  0.00  0.00    +0.000 NA
ATOM     10  N   UNL     1       5.833   4.545  20.160  0.00  0.00    +0.000 N 
ATOM     11  H   UNL     1       6.302   4.573  21.067  0.00  0.00    +0.000 HD
BRANCH   9  12
ATOM     12  O   UNL     1       8.135   5.144  20.937  0.00  0.00    +0.000 OA
ATOM     13  H   UNL     1       7.396   4.548  21.158  0.00  0.00    +0.000 HD
ENDBRANCH   9  12
BRANCH  10  14
ATOM     14  C   UNL     1       5.092   3.291  20.012  0.00  0.00    +0.000 C 
BRANCH  14  15
ATOM     15  C   UNL     1       3.788   3.440  19.231  0.00  0.00    +0.000 A 
ATOM     16  C   UNL     1       3.689   3.085  17.872  0.00  0.00    +0.000 A 
ATOM     17  C   UNL     1       2.559   3.410  17.115  0.00  0.00    +0.000 A 
ATOM     18  C   UNL     1       1.531   4.149  17.685  0.00  0.00    +0.000 A 
ATOM     19  C   UNL     1       1.565   4.427  19.047  0.00  0.00    +0.000 A 
ATOM     20  C   UNL     1       2.639   3.993  19.845  0.00  0.00    +0.000 A 
ATOM     21  C   UNL     1       2.481   4.107  21.337  0.00  0.00    +0.000 C 
ENDBRANCH  14  15
ENDBRANCH  10  14
ENDBRANCH   5   8
BRANCH   6  22
ATOM     22  O   UNL     1       4.688   7.100  18.077  0.00  0.00    +0.000 OA
BRANCH  22  23
ATOM     23  C   UNL     1       3.398   7.394  17.470  0.00  0.00    +0.000 C 
BRANCH  23  24
ATOM     24  C   UNL     1       2.366   8.205  18.243  0.00  0.00    +0.000 A 
ATOM     25  C   UNL     1       1.565   9.190  17.680  0.00  0.00    +0.000 A 
ATOM     26  C   UNL     1       0.608   9.863  18.466  0.00  0.00    +0.000 A 
ATOM     27  C   UNL     1       0.420   9.566  19.827  0.00  0.00    +0.000 A 
ATOM     28  C   UNL     1       1.214   8.561  20.390  0.00  0.00    +0.000 A 
ATOM     29  C   UNL     1       2.166   7.890  19.606  0.00  0.00    +0.000 A 
BRANCH  27  30
ATOM     30  C   UNL     1      -0.622  10.323  20.644  0.00  0.00    +0.000 C 
ATOM     31  C   UNL     1      -0.278  10.353  22.137  0.00  0.00    +0.000 C 
ATOM     32  C   UNL     1      -0.860  11.748  20.129  0.00  0.00    +0.000 C 
ENDBRANCH  27  30
ENDBRANCH  23  24
ENDBRANCH  22  23
ENDBRANCH   6  22
TORSDOF 8
ENDMDL
MODEL 9
REMARK VINA RESULT:      -7.0      1.642      5.015
REMARK  Name = 
REMARK  12 active torsions:
REMARK  status: ('A' for Active; 'I' for Inactive)
REMARK    1  A    between atoms: C_1  and  C_2
REMARK    2  A    between atoms: C_5  and  C_6
REMARK    3  A    between atoms: N_7  and  O_8
REMARK    4  A    between atoms: N_9  and  C_10
REMARK    5  A    between atoms: C_10  and  C_11
REMARK    6  A    between atoms: C_16  and  C_17
REMARK    7  A    between atoms: C_18  and  O_19
REMARK    8  A    between atoms: O_19  and  C_20
REMARK    9  A    between atoms: C_20  and  C_21
REMARK   10  A    between atoms: C_24  and  C_25
REMARK   11  A    between atoms: C_25  and  C_26
REMARK   12  A    between atoms: C_25  and  C_27
REMARK                            x       y       z     vdW  Elec       q    Type
REMARK                         _______ _______ _______ _____ _____    ______ ____
ROOT
ATOM      1  C   UNL     1       1.180   3.035  21.376  0.00  0.00    +0.000 C 
ATOM      2  C   UNL     1       2.398   3.300  20.554  0.00  0.00    +0.000 A 
ATOM      3  C   UNL     1       3.332   2.308  20.333  0.00  0.00    +0.000 A 
ATOM      4  C   UNL     1       4.460   2.644  19.604  0.00  0.00    +0.000 A 
ATOM      5  C   UNL     1       4.651   3.931  19.058  0.00  0.00    +0.000 A 
ATOM      6  C   UNL     1       3.669   4.891  19.366  0.00  0.00    +0.000 A 
ATOM      7  N   UNL     1       2.555   4.546  20.074  0.00  0.00    +0.000 NA
ENDROOT
BRANCH   5   8
ATOM      8  C   UNL     1       5.917   4.093  18.264  0.00  0.00    +0.000 C 
ATOM      9  N   UNL     1       6.981   4.591  18.832  0.00  0.00    +0.000 NA
ATOM     10  N   UNL     1       5.975   3.629  16.946  0.00  0.00    +0.000 N 
ATOM     11  H   UNL     1       6.940   3.733  16.625  0.00  0.00    +0.000 HD
BRANCH   9  12
ATOM     12  O   UNL     1       8.071   4.574  17.936  0.00  0.00    +0.000 OA
ATOM     13  H   UNL     1       8.424   3.674  18.058  0.00  0.00    +0.000 HD
ENDBRANCH   9  12
BRANCH  10  14
ATOM     14  C   UNL     1       5.046   4.061  15.901  0.00  0.00    +0.000 C 
BRANCH  14  15
ATOM     15  C   UNL     1       5.701   4.232  14.532  0.00  0.00    +0.000 A 
ATOM     16  C   UNL     1       5.263   3.517  13.401  0.00  0.00    +0.000 A 
ATOM     17  C   UNL     1       5.990   3.525  12.207  0.00  0.00    +0.000 A 
ATOM     18  C   UNL     1       7.201   4.201  12.138  0.00  0.00    +0.000 A 
ATOM     19  C   UNL     1       7.605   4.991  13.209  0.00  0.00    +0.000 A 
ATOM     20  C   UNL     1       6.815   5.090  14.369  0.00  0.00    +0.000 A 
ATOM     21  C   UNL     1       7.185   6.152  15.368  0.00  0.00    +0.000 C 
ENDBRANCH  14  15
ENDBRANCH  10  14
ENDBRANCH   5   8
BRANCH   6  22
ATOM     22  O   UNL     1       3.753   6.232  18.999  0.00  0.00    +0.000 OA
BRANCH  22  23
ATOM     23  C   UNL     1       2.461   6.679  18.498  0.00  0.00    +0.000 C 
BRANCH  23  24
ATOM     24  C   UNL     1       2.020   8.120  18.723  0.00  0.00    +0.000 A 
ATOM     25  C   UNL     1       2.114   9.124  17.768  0.00  0.00    +0.000 A 
ATOM     26  C   UNL     1       1.644  10.422  18.053  0.00  0.00    +0.000 A 
ATOM     27  C   UNL     1       1.063  10.749  19.290  0.00  0.00    +0.000 A 
ATOM     28  C   UNL     1       0.953   9.734  20.246  0.00  0.00    +0.000 A 
ATOM     29  C   UNL     1       1.420   8.441  19.961  0.00  0.00    +0.000 A 
BRANCH  27  30
ATOM     30  C   UNL     1       0.575  12.167  19.561  0.00  0.00    +0.000 C 
ATOM     31  C   UNL     1      -0.949  12.237  19.714  0.00  0.00    +0.000 C 
ATOM     32  C   UNL     1       1.257  12.810  20.775  0.00  0.00    +0.000 C 
ENDBRANCH  27  30
ENDBRANCH  23  24
ENDBRANCH  22  23
ENDBRANCH   6  22
TORSDOF 8
ENDMDL
