MODEL 1
REMARK VINA RESULT:      -8.1      0.000      0.000
REMARK  Name = 
REMARK  6 active torsions:
REMARK  status: ('A' for Active; 'I' for Inactive)
REMARK    1  A    between atoms: C_2  and  O_3
REMARK    2  A    between atoms: C_2  and  C_4
REMARK    3  A    between atoms: C_7  and  C_8
REMARK    4  A    between atoms: C_8  and  N_9
REMARK    5  A    between atoms: C_21  and  C_22
REMARK    6  A    between atoms: C_22  and  C_23
REMARK                            x       y       z     vdW  Elec       q    Type
REMARK                         _______ _______ _______ _____ _____    ______ ____
ROOT
ATOM      1  N   UNL     1       0.823  10.262  20.255  0.00  0.00    +0.000 N 
ATOM      2  C   UNL     1       1.331   9.091  20.813  0.00  0.00    +0.000 C 
ATOM      3  O   UNL     1       1.483   8.976  22.031  0.00  0.00    +0.000 OA
ATOM      4  C   UNL     1       1.736   7.932  19.969  0.00  0.00    +0.000 A 
ATOM      5  C   UNL     1       1.687   6.671  20.600  0.00  0.00    +0.000 A 
ATOM      6  C   UNL     1       2.097   5.509  19.943  0.00  0.00    +0.000 A 
ATOM      7  C   UNL     1       2.585   5.592  18.646  0.00  0.00    +0.000 A 
ATOM      8  C   UNL     1       2.714   6.837  18.036  0.00  0.00    +0.000 A 
ATOM      9  C   UNL     1       2.301   8.016  18.685  0.00  0.00    +0.000 A 
ATOM     10  N   UNL     1       2.574   9.205  17.999  0.00  0.00    +0.000 N 
ATOM     11  C   UNL     1       1.975  10.421  18.141  0.00  0.00    +0.000 C 
ATOM     12  O   UNL     1       2.511  11.422  17.666  0.00  0.00    +0.000 OA
ATOM     13  C   UNL     1       0.606  10.485  18.818  0.00  0.00    +0.000 C 
ATOM     14  H   UNL     1       3.339   9.207  17.331  0.00  0.00    +0.000 HD
ENDROOT
BRANCH   1  15
ATOM     15  C   UNL     1       0.862  11.468  21.101  0.00  0.00    +0.000 C 
BRANCH  15  19
ATOM     16  C   UNL     1      -2.790  12.584  23.143  0.00  0.00    +0.000 A 
ATOM     17  C   UNL     1      -2.223  11.328  23.383  0.00  0.00    +0.000 A 
ATOM     18  C   UNL     1      -1.048  10.950  22.719  0.00  0.00    +0.000 A 
ATOM     19  C   UNL     1      -0.432  11.819  21.808  0.00  0.00    +0.000 A 
ATOM     20  C   UNL     1      -0.973  13.107  21.641  0.00  0.00    +0.000 A 
ATOM     21  C   UNL     1      -2.143  13.491  22.302  0.00  0.00    +0.000 A 
BRANCH  16  23
ATOM     22  O   UNL     1      -4.696  12.152  24.499  0.00  0.00    +0.000 OA
ATOM     23  C   UNL     1      -4.062  12.935  23.818  0.00  0.00    +0.000 C 
BRANCH  23  24
ATOM     24  O   UNL     1      -4.471  14.194  23.544  0.00  0.00    +0.000 OA
ATOM     25  H   UNL     1      -4.666  14.363  22.603  0.00  0.00    +0.000 HD
ENDBRANCH  23  24
ENDBRANCH  16  23
ENDBRANCH  15  19
ENDBRANCH   1  15
BRANCH  13  26
ATOM     26  C   UNL     1      -0.477   9.635  18.103  0.00  0.00    +0.000 C 
BRANCH  26  27
ATOM     27  C   UNL     1      -1.847  10.292  17.903  0.00  0.00    +0.000 A 
ATOM     28  C   UNL     1      -2.499  10.135  16.668  0.00  0.00    +0.000 A 
ATOM     29  C   UNL     1      -3.701  10.804  16.393  0.00  0.00    +0.000 A 
ATOM     30  C   UNL     1      -4.285  11.633  17.351  0.00  0.00    +0.000 A 
ATOM     31 CL   UNL     1      -5.717  12.498  16.919  0.00  0.00    +0.000 Cl
ATOM     32  C   UNL     1      -3.690  11.750  18.606  0.00  0.00    +0.000 A 
ATOM     33 CL   UNL     1      -4.366  12.720  19.867  0.00  0.00    +0.000 Cl
ATOM     34  C   UNL     1      -2.491  11.075  18.878  0.00  0.00    +0.000 A 
ENDBRANCH  26  27
ENDBRANCH  13  26
TORSDOF 6
ENDMDL
MODEL 2
REMARK VINA RESULT:      -8.1      1.405      1.885
REMARK  Name = 
REMARK  6 active torsions:
REMARK  status: ('A' for Active; 'I' for Inactive)
REMARK    1  A    between atoms: C_2  and  O_3
REMARK    2  A    between atoms: C_2  and  C_4
REMARK    3  A    between atoms: C_7  and  C_8
REMARK    4  A    between atoms: C_8  and  N_9
REMARK    5  A    between atoms: C_21  and  C_22
REMARK    6  A    between atoms: C_22  and  C_23
REMARK                            x       y       z     vdW  Elec       q    Type
REMARK                         _______ _______ _______ _____ _____    ______ ____
ROOT
ATOM      1  N   UNL     1      -0.266  11.480  20.830  0.00  0.00    +0.000 N 
ATOM      2  C   UNL     1       0.614  10.435  21.104  0.00  0.00    +0.000 C 
ATOM      3  O   UNL     1       0.994  10.203  22.253  0.00  0.00    +0.000 OA
ATOM      4  C   UNL     1       1.155   9.563  20.023  0.00  0.00    +0.000 A 
ATOM      5  C   UNL     1       1.540   8.265  20.422  0.00  0.00    +0.000 A 
ATOM      6  C   UNL     1       2.118   7.366  19.523  0.00  0.00    +0.000 A 
ATOM      7  C   UNL     1       2.342   7.759  18.210  0.00  0.00    +0.000 A 
ATOM      8  C   UNL     1       2.040   9.061  17.819  0.00  0.00    +0.000 A 
ATOM      9  C   UNL     1       1.453   9.976  18.713  0.00  0.00    +0.000 A 
ATOM     10  N   UNL     1       1.290  11.276  18.221  0.00  0.00    +0.000 N 
ATOM     11  C   UNL     1       0.431  12.243  18.650  0.00  0.00    +0.000 C 
ATOM     12  O   UNL     1       0.602  13.409  18.296  0.00  0.00    +0.000 OA
ATOM     13  C   UNL     1      -0.773  11.826  19.494  0.00  0.00    +0.000 C 
ATOM     14  H   UNL     1       1.904  11.584  17.472  0.00  0.00    +0.000 HD
ENDROOT
BRANCH   1  15
ATOM     15  C   UNL     1      -0.397  12.521  21.864  0.00  0.00    +0.000 C 
BRANCH  15  19
ATOM     16  C   UNL     1      -4.382  13.343  23.346  0.00  0.00    +0.000 A 
ATOM     17  C   UNL     1      -3.699  12.210  23.799  0.00  0.00    +0.000 A 
ATOM     18  C   UNL     1      -2.414  11.925  23.318  0.00  0.00    +0.000 A 
ATOM     19  C   UNL     1      -1.801  12.767  22.379  0.00  0.00    +0.000 A 
ATOM     20  C   UNL     1      -2.471  13.944  21.997  0.00  0.00    +0.000 A 
ATOM     21  C   UNL     1      -3.752  14.234  22.475  0.00  0.00    +0.000 A 
BRANCH  16  23
ATOM     22  O   UNL     1      -6.650  12.762  23.765  0.00  0.00    +0.000 OA
ATOM     23  C   UNL     1      -5.761  13.589  23.830  0.00  0.00    +0.000 C 
BRANCH  23  24
ATOM     24  O   UNL     1      -5.939  14.847  24.292  0.00  0.00    +0.000 OA
ATOM     25  H   UNL     1      -6.870  15.095  24.449  0.00  0.00    +0.000 HD
ENDBRANCH  23  24
ENDBRANCH  16  23
ENDBRANCH  15  19
ENDBRANCH   1  15
BRANCH  13  26
ATOM     26  C   UNL     1      -1.706  10.811  18.782  0.00  0.00    +0.000 C 
BRANCH  26  27
ATOM     27  C   UNL     1      -3.114  11.301  18.427  0.00  0.00    +0.000 A 
ATOM     28  C   UNL     1      -3.567  11.155  17.104  0.00  0.00    +0.000 A 
ATOM     29  C   UNL     1      -4.801  11.684  16.699  0.00  0.00    +0.000 A 
ATOM     30  C   UNL     1      -5.616  12.358  17.609  0.00  0.00    +0.000 A 
ATOM     31 CL   UNL     1      -7.082  13.063  17.027  0.00  0.00    +0.000 Cl
ATOM     32  C   UNL     1      -5.215  12.455  18.941  0.00  0.00    +0.000 A 
ATOM     33 CL   UNL     1      -6.181  13.234  20.146  0.00  0.00    +0.000 Cl
ATOM     34  C   UNL     1      -3.982  11.920  19.342  0.00  0.00    +0.000 A 
ENDBRANCH  26  27
ENDBRANCH  13  26
TORSDOF 6
ENDMDL
MODEL 3
REMARK VINA RESULT:      -8.1      0.750      1.397
REMARK  Name = 
REMARK  6 active torsions:
REMARK  status: ('A' for Active; 'I' for Inactive)
REMARK    1  A    between atoms: C_2  and  O_3
REMARK    2  A    between atoms: C_2  and  C_4
REMARK    3  A    between atoms: C_7  and  C_8
REMARK    4  A    between atoms: C_8  and  N_9
REMARK    5  A    between atoms: C_21  and  C_22
REMARK    6  A    between atoms: C_22  and  C_23
REMARK                            x       y       z     vdW  Elec       q    Type
REMARK                         _______ _______ _______ _____ _____    ______ ____
ROOT
ATOM      1  N   UNL     1       0.862  10.061  20.287  0.00  0.00    +0.000 N 
ATOM      2  C   UNL     1       1.350   8.884  20.850  0.00  0.00    +0.000 C 
ATOM      3  O   UNL     1       1.483   8.765  22.070  0.00  0.00    +0.000 OA
ATOM      4  C   UNL     1       1.756   7.722  20.009  0.00  0.00    +0.000 A 
ATOM      5  C   UNL     1       1.684   6.460  20.636  0.00  0.00    +0.000 A 
ATOM      6  C   UNL     1       2.091   5.295  19.983  0.00  0.00    +0.000 A 
ATOM      7  C   UNL     1       2.599   5.376  18.693  0.00  0.00    +0.000 A 
ATOM      8  C   UNL     1       2.750   6.622  18.088  0.00  0.00    +0.000 A 
ATOM      9  C   UNL     1       2.340   7.803  18.733  0.00  0.00    +0.000 A 
ATOM     10  N   UNL     1       2.634   8.991  18.055  0.00  0.00    +0.000 N 
ATOM     11  C   UNL     1       2.047  10.213  18.191  0.00  0.00    +0.000 C 
ATOM     12  O   UNL     1       2.600  11.209  17.726  0.00  0.00    +0.000 OA
ATOM     13  C   UNL     1       0.669  10.290  18.848  0.00  0.00    +0.000 C 
ATOM     14  H   UNL     1       3.409   8.986  17.397  0.00  0.00    +0.000 HD
ENDROOT
BRANCH   1  15
ATOM     15  C   UNL     1       0.902  11.264  21.137  0.00  0.00    +0.000 C 
BRANCH  15  19
ATOM     16  C   UNL     1      -2.866  12.674  22.741  0.00  0.00    +0.000 A 
ATOM     17  C   UNL     1      -2.244  11.563  23.319  0.00  0.00    +0.000 A 
ATOM     18  C   UNL     1      -1.031  11.089  22.802  0.00  0.00    +0.000 A 
ATOM     19  C   UNL     1      -0.431  11.717  21.701  0.00  0.00    +0.000 A 
ATOM     20  C   UNL     1      -1.031  12.880  21.184  0.00  0.00    +0.000 A 
ATOM     21  C   UNL     1      -2.239  13.358  21.698  0.00  0.00    +0.000 A 
BRANCH  16  23
ATOM     22  O   UNL     1      -5.213  12.512  23.090  0.00  0.00    +0.000 OA
ATOM     23  C   UNL     1      -4.175  13.119  23.274  0.00  0.00    +0.000 C 
BRANCH  23  24
ATOM     24  O   UNL     1      -4.102  14.298  23.929  0.00  0.00    +0.000 OA
ATOM     25  H   UNL     1      -4.685  14.997  23.576  0.00  0.00    +0.000 HD
ENDBRANCH  23  24
ENDBRANCH  16  23
ENDBRANCH  15  19
ENDBRANCH   1  15
BRANCH  13  26
ATOM     26  C   UNL     1      -0.413   9.453  18.115  0.00  0.00    +0.000 C 
BRANCH  26  27
ATOM     27  C   UNL     1      -1.683  10.194  17.685  0.00  0.00    +0.000 A 
ATOM     28  C   UNL     1      -2.321  11.036  18.611  0.00  0.00    +0.000 A 
ATOM     29  C   UNL     1      -3.544  11.652  18.307  0.00  0.00    +0.000 A 
ATOM     30  C   UNL     1      -4.150  11.451  17.067  0.00  0.00    +0.000 A 
ATOM     31 CL   UNL     1      -5.698  12.165  16.787  0.00  0.00    +0.000 Cl
ATOM     32  C   UNL     1      -3.501  10.673  16.109  0.00  0.00    +0.000 A 
ATOM     33 CL   UNL     1      -4.155  10.405  14.532  0.00  0.00    +0.000 Cl
ATOM     34  C   UNL     1      -2.275  10.064  16.416  0.00  0.00    +0.000 A 
ENDBRANCH  26  27
ENDBRANCH  13  26
TORSDOF 6
ENDMDL
MODEL 4
REMARK VINA RESULT:      -8.1      0.795      1.686
REMARK  Name = 
REMARK  6 active torsions:
REMARK  status: ('A' for Active; 'I' for Inactive)
REMARK    1  A    between atoms: C_2  and  O_3
REMARK    2  A    between atoms: C_2  and  C_4
REMARK    3  A    between atoms: C_7  and  C_8
REMARK    4  A    between atoms: C_8  and  N_9
REMARK    5  A    between atoms: C_21  and  C_22
REMARK    6  A    between atoms: C_22  and  C_23
REMARK                            x       y       z     vdW  Elec       q    Type
REMARK                         _______ _______ _______ _____ _____    ______ ____
ROOT
ATOM      1  N   UNL     1       0.922  10.066  20.223  0.00  0.00    +0.000 N 
ATOM      2  C   UNL     1       1.400   8.900  20.818  0.00  0.00    +0.000 C 
ATOM      3  O   UNL     1       1.563   8.824  22.037  0.00  0.00    +0.000 OA
ATOM      4  C   UNL     1       1.757   7.699  20.011  0.00  0.00    +0.000 A 
ATOM      5  C   UNL     1       1.675   6.463  20.688  0.00  0.00    +0.000 A 
ATOM      6  C   UNL     1       2.039   5.266  20.069  0.00  0.00    +0.000 A 
ATOM      7  C   UNL     1       2.513   5.286  18.764  0.00  0.00    +0.000 A 
ATOM      8  C   UNL     1       2.674   6.504  18.108  0.00  0.00    +0.000 A 
ATOM      9  C   UNL     1       2.308   7.718  18.718  0.00  0.00    +0.000 A 
ATOM     10  N   UNL     1       2.610   8.873  17.987  0.00  0.00    +0.000 N 
ATOM     11  C   UNL     1       2.052  10.112  18.091  0.00  0.00    +0.000 C 
ATOM     12  O   UNL     1       2.614  11.077  17.575  0.00  0.00    +0.000 OA
ATOM     13  C   UNL     1       0.695  10.245  18.782  0.00  0.00    +0.000 C 
ATOM     14  H   UNL     1       3.366   8.826  17.310  0.00  0.00    +0.000 HD
ENDROOT
BRANCH   1  15
ATOM     15  C   UNL     1       1.011  11.299  21.024  0.00  0.00    +0.000 C 
BRANCH  15  19
ATOM     16  C   UNL     1      -2.755  12.611  22.713  0.00  0.00    +0.000 A 
ATOM     17  C   UNL     1      -2.230  13.277  21.601  0.00  0.00    +0.000 A 
ATOM     18  C   UNL     1      -1.006  12.871  21.053  0.00  0.00    +0.000 A 
ATOM     19  C   UNL     1      -0.294  11.799  21.611  0.00  0.00    +0.000 A 
ATOM     20  C   UNL     1      -0.878  11.092  22.679  0.00  0.00    +0.000 A 
ATOM     21  C   UNL     1      -2.099  11.491  23.228  0.00  0.00    +0.000 A 
BRANCH  16  23
ATOM     22  O   UNL     1      -4.072  13.932  24.188  0.00  0.00    +0.000 OA
ATOM     23  C   UNL     1      -4.024  13.097  23.305  0.00  0.00    +0.000 C 
BRANCH  23  24
ATOM     24  O   UNL     1      -5.111  12.470  22.806  0.00  0.00    +0.000 OA
ATOM     25  H   UNL     1      -4.922  11.833  22.090  0.00  0.00    +0.000 HD
ENDBRANCH  23  24
ENDBRANCH  16  23
ENDBRANCH  15  19
ENDBRANCH   1  15
BRANCH  13  26
ATOM     26  C   UNL     1      -0.424   9.405  18.110  0.00  0.00    +0.000 C 
BRANCH  26  27
ATOM     27  C   UNL     1      -1.683  10.161  17.671  0.00  0.00    +0.000 A 
ATOM     28  C   UNL     1      -2.311  11.020  18.590  0.00  0.00    +0.000 A 
ATOM     29  C   UNL     1      -3.525  11.651  18.278  0.00  0.00    +0.000 A 
ATOM     30  C   UNL     1      -4.130  11.448  17.038  0.00  0.00    +0.000 A 
ATOM     31 CL   UNL     1      -5.668  12.182  16.749  0.00  0.00    +0.000 Cl
ATOM     32  C   UNL     1      -3.490  10.654  16.088  0.00  0.00    +0.000 A 
ATOM     33 CL   UNL     1      -4.145  10.383  14.510  0.00  0.00    +0.000 Cl
ATOM     34  C   UNL     1      -2.273  10.030  16.402  0.00  0.00    +0.000 A 
ENDBRANCH  26  27
ENDBRANCH  13  26
TORSDOF 6
ENDMDL
MODEL 5
REMARK VINA RESULT:      -8.0      1.363      2.080
REMARK  Name = 
REMARK  6 active torsions:
REMARK  status: ('A' for Active; 'I' for Inactive)
REMARK    1  A    between atoms: C_2  and  O_3
REMARK    2  A    between atoms: C_2  and  C_4
REMARK    3  A    between atoms: C_7  and  C_8
REMARK    4  A    between atoms: C_8  and  N_9
REMARK    5  A    between atoms: C_21  and  C_22
REMARK    6  A    between atoms: C_22  and  C_23
REMARK                            x       y       z     vdW  Elec       q    Type
REMARK                         _______ _______ _______ _____ _____    ______ ____
ROOT
ATOM      1  N   UNL     1      -0.147  11.486  20.839  0.00  0.00    +0.000 N 
ATOM      2  C   UNL     1       0.736  10.441  21.099  0.00  0.00    +0.000 C 
ATOM      3  O   UNL     1       1.172  10.238  22.234  0.00  0.00    +0.000 OA
ATOM      4  C   UNL     1       1.214   9.532  20.019  0.00  0.00    +0.000 A 
ATOM      5  C   UNL     1       1.607   8.242  20.436  0.00  0.00    +0.000 A 
ATOM      6  C   UNL     1       2.131   7.311  19.537  0.00  0.00    +0.000 A 
ATOM      7  C   UNL     1       2.291   7.664  18.203  0.00  0.00    +0.000 A 
ATOM      8  C   UNL     1       1.982   8.957  17.789  0.00  0.00    +0.000 A 
ATOM      9  C   UNL     1       1.449   9.904  18.684  0.00  0.00    +0.000 A 
ATOM     10  N   UNL     1       1.273  11.190  18.162  0.00  0.00    +0.000 N 
ATOM     11  C   UNL     1       0.445  12.178  18.605  0.00  0.00    +0.000 C 
ATOM     12  O   UNL     1       0.609  13.332  18.209  0.00  0.00    +0.000 OA
ATOM     13  C   UNL     1      -0.718  11.799  19.521  0.00  0.00    +0.000 C 
ATOM     14  H   UNL     1       1.851  11.470  17.375  0.00  0.00    +0.000 HD
ENDROOT
BRANCH   1  15
ATOM     15  C   UNL     1      -0.216  12.558  21.848  0.00  0.00    +0.000 C 
BRANCH  15  19
ATOM     16  C   UNL     1      -4.223  13.475  23.211  0.00  0.00    +0.000 A 
ATOM     17  C   UNL     1      -3.555  14.378  22.377  0.00  0.00    +0.000 A 
ATOM     18  C   UNL     1      -2.254  14.100  21.939  0.00  0.00    +0.000 A 
ATOM     19  C   UNL     1      -1.606  12.920  22.332  0.00  0.00    +0.000 A 
ATOM     20  C   UNL     1      -2.323  11.987  23.105  0.00  0.00    +0.000 A 
ATOM     21  C   UNL     1      -3.622  12.259  23.542  0.00  0.00    +0.000 A 
BRANCH  16  23
ATOM     22  O   UNL     1      -6.163  14.839  23.385  0.00  0.00    +0.000 OA
ATOM     23  C   UNL     1      -5.577  13.822  23.703  0.00  0.00    +0.000 C 
BRANCH  23  24
ATOM     24  O   UNL     1      -6.061  12.922  24.587  0.00  0.00    +0.000 OA
ATOM     25  H   UNL     1      -6.600  12.211  24.191  0.00  0.00    +0.000 HD
ENDBRANCH  23  24
ENDBRANCH  16  23
ENDBRANCH  15  19
ENDBRANCH   1  15
BRANCH  13  26
ATOM     26  C   UNL     1      -1.695  10.773  18.887  0.00  0.00    +0.000 C 
BRANCH  26  27
ATOM     27  C   UNL     1      -3.081  11.294  18.495  0.00  0.00    +0.000 A 
ATOM     28  C   UNL     1      -3.541  11.074  17.185  0.00  0.00    +0.000 A 
ATOM     29  C   UNL     1      -4.753  11.623  16.741  0.00  0.00    +0.000 A 
ATOM     30  C   UNL     1      -5.539  12.392  17.599  0.00  0.00    +0.000 A 
ATOM     31 CL   UNL     1      -6.975  13.114  16.966  0.00  0.00    +0.000 Cl
ATOM     32  C   UNL     1      -5.134  12.567  18.922  0.00  0.00    +0.000 A 
ATOM     33 CL   UNL     1      -6.066  13.467  20.067  0.00  0.00    +0.000 Cl
ATOM     34  C   UNL     1      -3.924  12.011  19.363  0.00  0.00    +0.000 A 
ENDBRANCH  26  27
ENDBRANCH  13  26
TORSDOF 6
ENDMDL
MODEL 6
REMARK VINA RESULT:      -7.9      0.268      1.027
REMARK  Name = 
REMARK  6 active torsions:
REMARK  status: ('A' for Active; 'I' for Inactive)
REMARK    1  A    between atoms: C_2  and  O_3
REMARK    2  A    between atoms: C_2  and  C_4
REMARK    3  A    between atoms: C_7  and  C_8
REMARK    4  A    between atoms: C_8  and  N_9
REMARK    5  A    between atoms: C_21  and  C_22
REMARK    6  A    between atoms: C_22  and  C_23
REMARK                            x       y       z     vdW  Elec       q    Type
REMARK                         _______ _______ _______ _____ _____    ______ ____
ROOT
ATOM      1  N   UNL     1       0.742  10.370  20.337  0.00  0.00    +0.000 N 
ATOM      2  C   UNL     1       1.286   9.226  20.919  0.00  0.00    +0.000 C 
ATOM      3  O   UNL     1       1.497   9.163  22.132  0.00  0.00    +0.000 OA
ATOM      4  C   UNL     1       1.659   8.035  20.105  0.00  0.00    +0.000 A 
ATOM      5  C   UNL     1       1.650   6.801  20.790  0.00  0.00    +0.000 A 
ATOM      6  C   UNL     1       2.036   5.615  20.163  0.00  0.00    +0.000 A 
ATOM      7  C   UNL     1       2.461   5.646  18.841  0.00  0.00    +0.000 A 
ATOM      8  C   UNL     1       2.551   6.865  18.174  0.00  0.00    +0.000 A 
ATOM      9  C   UNL     1       2.161   8.068  18.793  0.00  0.00    +0.000 A 
ATOM     10  N   UNL     1       2.391   9.229  18.046  0.00  0.00    +0.000 N 
ATOM     11  C   UNL     1       1.791  10.446  18.166  0.00  0.00    +0.000 C 
ATOM     12  O   UNL     1       2.296  11.430  17.624  0.00  0.00    +0.000 OA
ATOM     13  C   UNL     1       0.455  10.531  18.905  0.00  0.00    +0.000 C 
ATOM     14  H   UNL     1       3.123   9.207  17.342  0.00  0.00    +0.000 HD
ENDROOT
BRANCH   1  15
ATOM     15  C   UNL     1       0.813  11.610  21.130  0.00  0.00    +0.000 C 
BRANCH  15  19
ATOM     16  C   UNL     1      -2.908  12.704  23.057  0.00  0.00    +0.000 A 
ATOM     17  C   UNL     1      -2.362  13.547  22.084  0.00  0.00    +0.000 A 
ATOM     18  C   UNL     1      -1.153  13.211  21.461  0.00  0.00    +0.000 A 
ATOM     19  C   UNL     1      -0.475  12.033  21.808  0.00  0.00    +0.000 A 
ATOM     20  C   UNL     1      -1.080  11.159  22.730  0.00  0.00    +0.000 A 
ATOM     21  C   UNL     1      -2.288  11.488  23.352  0.00  0.00    +0.000 A 
BRANCH  16  23
ATOM     22  O   UNL     1      -4.967  13.878  23.248  0.00  0.00    +0.000 OA
ATOM     23  C   UNL     1      -4.160  13.111  23.737  0.00  0.00    +0.000 C 
BRANCH  23  24
ATOM     24  O   UNL     1      -4.276  12.591  24.979  0.00  0.00    +0.000 OA
ATOM     25  H   UNL     1      -3.691  12.996  25.647  0.00  0.00    +0.000 HD
ENDBRANCH  23  24
ENDBRANCH  16  23
ENDBRANCH  15  19
ENDBRANCH   1  15
BRANCH  13  26
ATOM     26  C   UNL     1      -0.655   9.646  18.279  0.00  0.00    +0.000 C 
BRANCH  26  27
ATOM     27  C   UNL     1      -2.000  10.323  17.999  0.00  0.00    +0.000 A 
ATOM     28  C   UNL     1      -2.564  10.203  16.717  0.00  0.00    +0.000 A 
ATOM     29  C   UNL     1      -3.737  10.892  16.374  0.00  0.00    +0.000 A 
ATOM     30  C   UNL     1      -4.378  11.706  17.307  0.00  0.00    +0.000 A 
ATOM     31 CL   UNL     1      -5.767  12.598  16.796  0.00  0.00    +0.000 Cl
ATOM     32  C   UNL     1      -3.872  11.787  18.604  0.00  0.00    +0.000 A 
ATOM     33 CL   UNL     1      -4.626  12.737  19.837  0.00  0.00    +0.000 Cl
ATOM     34  C   UNL     1      -2.703  11.091  18.944  0.00  0.00    +0.000 A 
ENDBRANCH  26  27
ENDBRANCH  13  26
TORSDOF 6
ENDMDL
MODEL 7
REMARK VINA RESULT:      -7.6      1.241      1.889
REMARK  Name = 
REMARK  6 active torsions:
REMARK  status: ('A' for Active; 'I' for Inactive)
REMARK    1  A    between atoms: C_2  and  O_3
REMARK    2  A    between atoms: C_2  and  C_4
REMARK    3  A    between atoms: C_7  and  C_8
REMARK    4  A    between atoms: C_8  and  N_9
REMARK    5  A    between atoms: C_21  and  C_22
REMARK    6  A    between atoms: C_22  and  C_23
REMARK                            x       y       z     vdW  Elec       q    Type
REMARK                         _______ _______ _______ _____ _____    ______ ____
ROOT
ATOM      1  N   UNL     1       0.903  10.076  20.201  0.00  0.00    +0.000 N 
ATOM      2  C   UNL     1       1.370   8.917  20.816  0.00  0.00    +0.000 C 
ATOM      3  O   UNL     1       1.519   8.855  22.038  0.00  0.00    +0.000 OA
ATOM      4  C   UNL     1       1.733   7.704  20.029  0.00  0.00    +0.000 A 
ATOM      5  C   UNL     1       1.639   6.477  20.720  0.00  0.00    +0.000 A 
ATOM      6  C   UNL     1       2.006   5.271  20.121  0.00  0.00    +0.000 A 
ATOM      7  C   UNL     1       2.496   5.274  18.821  0.00  0.00    +0.000 A 
ATOM      8  C   UNL     1       2.669   6.483  18.152  0.00  0.00    +0.000 A 
ATOM      9  C   UNL     1       2.299   7.705  18.743  0.00  0.00    +0.000 A 
ATOM     10  N   UNL     1       2.613   8.850  18.001  0.00  0.00    +0.000 N 
ATOM     11  C   UNL     1       2.058  10.091  18.083  0.00  0.00    +0.000 C 
ATOM     12  O   UNL     1       2.629  11.049  17.561  0.00  0.00    +0.000 OA
ATOM     13  C   UNL     1       0.693  10.237  18.756  0.00  0.00    +0.000 C 
ATOM     14  H   UNL     1       3.377   8.792  17.334  0.00  0.00    +0.000 HD
ENDROOT
BRANCH   1  15
ATOM     15  C   UNL     1       0.986  11.319  20.988  0.00  0.00    +0.000 C 
BRANCH  15  19
ATOM     16  C   UNL     1      -2.582  13.764  21.205  0.00  0.00    +0.000 A 
ATOM     17  C   UNL     1      -2.513  12.579  21.943  0.00  0.00    +0.000 A 
ATOM     18  C   UNL     1      -1.370  11.772  21.873  0.00  0.00    +0.000 A 
ATOM     19  C   UNL     1      -0.287  12.139  21.061  0.00  0.00    +0.000 A 
ATOM     20  C   UNL     1      -0.342  13.374  20.389  0.00  0.00    +0.000 A 
ATOM     21  C   UNL     1      -1.479  14.184  20.458  0.00  0.00    +0.000 A 
BRANCH  16  23
ATOM     22  O   UNL     1      -4.109  15.301  22.185  0.00  0.00    +0.000 OA
ATOM     23  C   UNL     1      -3.825  14.569  21.256  0.00  0.00    +0.000 C 
BRANCH  23  24
ATOM     24  O   UNL     1      -4.634  14.355  20.196  0.00  0.00    +0.000 OA
ATOM     25  H   UNL     1      -4.874  15.159  19.697  0.00  0.00    +0.000 HD
ENDBRANCH  23  24
ENDBRANCH  16  23
ENDBRANCH  15  19
ENDBRANCH   1  15
BRANCH  13  26
ATOM     26  C   UNL     1      -0.421   9.393  18.082  0.00  0.00    +0.000 C 
BRANCH  26  27
ATOM     27  C   UNL     1      -1.677  10.145  17.631  0.00  0.00    +0.000 A 
ATOM     28  C   UNL     1      -2.310  11.010  18.539  0.00  0.00    +0.000 A 
ATOM     29  C   UNL     1      -3.522  11.638  18.217  0.00  0.00    +0.000 A 
ATOM     30  C   UNL     1      -4.122  11.425  16.976  0.00  0.00    +0.000 A 
ATOM     31 CL   UNL     1      -5.659  12.156  16.675  0.00  0.00    +0.000 Cl
ATOM     32  C   UNL     1      -3.478  10.623  16.036  0.00  0.00    +0.000 A 
ATOM     33 CL   UNL     1      -4.126  10.339  14.458  0.00  0.00    +0.000 Cl
ATOM     34  C   UNL     1      -2.263  10.002  16.361  0.00  0.00    +0.000 A 
ENDBRANCH  26  27
ENDBRANCH  13  26
TORSDOF 6
ENDMDL
MODEL 8
REMARK VINA RESULT:      -7.3      2.680      7.466
REMARK  Name = 
REMARK  6 active torsions:
REMARK  status: ('A' for Active; 'I' for Inactive)
REMARK    1  A    between atoms: C_2  and  O_3
REMARK    2  A    between atoms: C_2  and  C_4
REMARK    3  A    between atoms: C_7  and  C_8
REMARK    4  A    between atoms: C_8  and  N_9
REMARK    5  A    between atoms: C_21  and  C_22
REMARK    6  A    between atoms: C_22  and  C_23
REMARK                            x       y       z     vdW  Elec       q    Type
REMARK                         _______ _______ _______ _____ _____    ______ ____
ROOT
ATOM      1  N   UNL     1      -2.075  12.714  22.962  0.00  0.00    +0.000 N 
ATOM      2  C   UNL     1      -1.481  13.868  23.469  0.00  0.00    +0.000 C 
ATOM      3  O   UNL     1      -0.267  13.927  23.671  0.00  0.00    +0.000 OA
ATOM      4  C   UNL     1      -2.283  15.077  23.811  0.00  0.00    +0.000 A 
ATOM      5  C   UNL     1      -1.589  16.305  23.762  0.00  0.00    +0.000 A 
ATOM      6  C   UNL     1      -2.204  17.507  24.116  0.00  0.00    +0.000 A 
ATOM      7  C   UNL     1      -3.523  17.499  24.549  0.00  0.00    +0.000 A 
ATOM      8  C   UNL     1      -4.200  16.288  24.678  0.00  0.00    +0.000 A 
ATOM      9  C   UNL     1      -3.593  15.070  24.320  0.00  0.00    +0.000 A 
ATOM     10  N   UNL     1      -4.348  13.922  24.588  0.00  0.00    +0.000 N 
ATOM     11  C   UNL     1      -4.242  12.687  24.024  0.00  0.00    +0.000 C 
ATOM     12  O   UNL     1      -4.789  11.723  24.560  0.00  0.00    +0.000 OA
ATOM     13  C   UNL     1      -3.511  12.557  22.687  0.00  0.00    +0.000 C 
ATOM     14  H   UNL     1      -5.048  13.971  25.323  0.00  0.00    +0.000 HD
ENDROOT
BRANCH   1  15
ATOM     15  C   UNL     1      -1.293  11.470  23.065  0.00  0.00    +0.000 C 
BRANCH  15  19
ATOM     16  C   UNL     1       1.001  10.266  19.594  0.00  0.00    +0.000 A 
ATOM     17  C   UNL     1       0.977  11.612  19.971  0.00  0.00    +0.000 A 
ATOM     18  C   UNL     1       0.229  12.017  21.084  0.00  0.00    +0.000 A 
ATOM     19  C   UNL     1      -0.505  11.083  21.829  0.00  0.00    +0.000 A 
ATOM     20  C   UNL     1      -0.405   9.723  21.482  0.00  0.00    +0.000 A 
ATOM     21  C   UNL     1       0.342   9.313  20.374  0.00  0.00    +0.000 A 
BRANCH  16  23
ATOM     22  O   UNL     1       2.176   8.750  18.188  0.00  0.00    +0.000 OA
ATOM     23  C   UNL     1       1.756   9.875  18.380  0.00  0.00    +0.000 C 
BRANCH  23  24
ATOM     24  O   UNL     1       1.980  10.913  17.545  0.00  0.00    +0.000 OA
ATOM     25  H   UNL     1       1.559  11.751  17.813  0.00  0.00    +0.000 HD
ENDBRANCH  23  24
ENDBRANCH  16  23
ENDBRANCH  15  19
ENDBRANCH   1  15
BRANCH  13  26
ATOM     26  C   UNL     1      -4.135  13.414  21.555  0.00  0.00    +0.000 C 
BRANCH  26  27
ATOM     27  C   UNL     1      -4.132  12.806  20.149  0.00  0.00    +0.000 A 
ATOM     28  C   UNL     1      -5.331  12.794  19.414  0.00  0.00    +0.000 A 
ATOM     29  C   UNL     1      -5.411  12.153  18.169  0.00  0.00    +0.000 A 
ATOM     30  C   UNL     1      -4.293  11.521  17.625  0.00  0.00    +0.000 A 
ATOM     31 CL   UNL     1      -4.480  10.674  16.131  0.00  0.00    +0.000 Cl
ATOM     32  C   UNL     1      -3.078  11.579  18.306  0.00  0.00    +0.000 A 
ATOM     33 CL   UNL     1      -1.632  10.862  17.686  0.00  0.00    +0.000 Cl
ATOM     34  C   UNL     1      -3.002  12.226  19.548  0.00  0.00    +0.000 A 
ENDBRANCH  26  27
ENDBRANCH  13  26
TORSDOF 6
ENDMDL
MODEL 9
REMARK VINA RESULT:      -7.3      1.001      1.074
REMARK  Name = 
REMARK  6 active torsions:
REMARK  status: ('A' for Active; 'I' for Inactive)
REMARK    1  A    between atoms: C_2  and  O_3
REMARK    2  A    between atoms: C_2  and  C_4
REMARK    3  A    between atoms: C_7  and  C_8
REMARK    4  A    between atoms: C_8  and  N_9
REMARK    5  A    between atoms: C_21  and  C_22
REMARK    6  A    between atoms: C_22  and  C_23
REMARK                            x       y       z     vdW  Elec       q    Type
REMARK                         _______ _______ _______ _____ _____    ______ ____
ROOT
ATOM      1  N   UNL     1       0.507  10.197  20.171  0.00  0.00    +0.000 N 
ATOM      2  C   UNL     1       1.024   9.055  20.781  0.00  0.00    +0.000 C 
ATOM      3  O   UNL     1       1.086   8.957  22.008  0.00  0.00    +0.000 OA
ATOM      4  C   UNL     1       1.546   7.910  19.983  0.00  0.00    +0.000 A 
ATOM      5  C   UNL     1       1.506   6.652  20.622  0.00  0.00    +0.000 A 
ATOM      6  C   UNL     1       2.019   5.506  20.012  0.00  0.00    +0.000 A 
ATOM      7  C   UNL     1       2.602   5.601  18.755  0.00  0.00    +0.000 A 
ATOM      8  C   UNL     1       2.720   6.847  18.143  0.00  0.00    +0.000 A 
ATOM      9  C   UNL     1       2.205   8.010  18.745  0.00  0.00    +0.000 A 
ATOM     10  N   UNL     1       2.474   9.205  18.070  0.00  0.00    +0.000 N 
ATOM     11  C   UNL     1       1.811  10.393  18.151  0.00  0.00    +0.000 C 
ATOM     12  O   UNL     1       2.336  11.415  17.708  0.00  0.00    +0.000 OA
ATOM     13  C   UNL     1       0.393  10.398  18.720  0.00  0.00    +0.000 C 
ATOM     14  H   UNL     1       3.288   9.238  17.462  0.00  0.00    +0.000 HD
ENDROOT
BRANCH   1  15
ATOM     15  C   UNL     1       0.425  11.409  21.005  0.00  0.00    +0.000 C 
BRANCH  15  19
ATOM     16  C   UNL     1      -3.532  12.599  22.299  0.00  0.00    +0.000 A 
ATOM     17  C   UNL     1      -2.640  12.054  23.226  0.00  0.00    +0.000 A 
ATOM     18  C   UNL     1      -1.360  11.653  22.818  0.00  0.00    +0.000 A 
ATOM     19  C   UNL     1      -0.963  11.789  21.480  0.00  0.00    +0.000 A 
ATOM     20  C   UNL     1      -1.846  12.413  20.580  0.00  0.00    +0.000 A 
ATOM     21  C   UNL     1      -3.122  12.817  20.982  0.00  0.00    +0.000 A 
BRANCH  16  23
ATOM     22  O   UNL     1      -5.118  13.789  23.612  0.00  0.00    +0.000 OA
ATOM     23  C   UNL     1      -4.897  12.963  22.747  0.00  0.00    +0.000 C 
BRANCH  23  24
ATOM     24  O   UNL     1      -5.861  12.237  22.139  0.00  0.00    +0.000 OA
ATOM     25  H   UNL     1      -5.744  12.130  21.176  0.00  0.00    +0.000 HD
ENDBRANCH  23  24
ENDBRANCH  16  23
ENDBRANCH  15  19
ENDBRANCH   1  15
BRANCH  13  26
ATOM     26  C   UNL     1      -0.592   9.493  17.933  0.00  0.00    +0.000 C 
BRANCH  26  27
ATOM     27  C   UNL     1      -1.952  10.102  17.576  0.00  0.00    +0.000 A 
ATOM     28  C   UNL     1      -2.052  10.911  16.431  0.00  0.00    +0.000 A 
ATOM     29  C   UNL     1      -3.244  11.581  16.119  0.00  0.00    +0.000 A 
ATOM     30  C   UNL     1      -4.366  11.448  16.937  0.00  0.00    +0.000 A 
ATOM     31 CL   UNL     1      -5.775  12.370  16.548  0.00  0.00    +0.000 Cl
ATOM     32  C   UNL     1      -4.309  10.598  18.040  0.00  0.00    +0.000 A 
ATOM     33 CL   UNL     1      -5.663  10.339  19.083  0.00  0.00    +0.000 Cl
ATOM     34  C   UNL     1      -3.116   9.926  18.345  0.00  0.00    +0.000 A 
ENDBRANCH  26  27
ENDBRANCH  13  26
TORSDOF 6
ENDMDL
