MODEL 1
REMARK VINA RESULT:      -8.2      0.000      0.000
REMARK  Name = 
REMARK  9 active torsions:
REMARK  status: ('A' for Active; 'I' for Inactive)
REMARK    1  A    between atoms: C_1  and  C_2
REMARK    2  A    between atoms: C_2  and  C_3
REMARK    3  A    between atoms: C_3  and  N_4
REMARK    4  A    between atoms: C_3  and  C_25
REMARK    5  A    between atoms: N_12  and  C_13
REMARK    6  A    between atoms: C_17  and  C_18
REMARK    7  A    between atoms: N_20  and  C_21
REMARK    8  A    between atoms: N_20  and  C_22
REMARK    9  A    between atoms: C_23  and  O_24
REMARK                            x       y       z     vdW  Elec       q    Type
REMARK                         _______ _______ _______ _____ _____    ______ ____
ROOT
ATOM      1  N   UNL     1       5.159   5.663  19.051  0.00  0.00    +0.000 N 
ATOM      2  C   UNL     1       3.942   5.214  19.542  0.00  0.00    +0.000 C 
ATOM      3  N   UNL     1       3.715   4.002  19.908  0.00  0.00    +0.000 NA
ATOM      4  S   UNL     1       2.138   3.862  20.309  0.00  0.00    +0.000 S 
ATOM      5  O   UNL     1       1.513   2.961  19.367  0.00  0.00    +0.000 OA
ATOM      6  O   UNL     1       2.046   3.627  21.733  0.00  0.00    +0.000 OA
ATOM      7  N   UNL     1       1.644   5.369  19.984  0.00  0.00    +0.000 NA
ATOM      8  C   UNL     1       2.669   6.088  19.657  0.00  0.00    +0.000 C 
ATOM      9  N   UNL     1       2.651   7.448  19.393  0.00  0.00    +0.000 N 
ATOM     10  H   UNL     1       5.141   6.558  18.578  0.00  0.00    +0.000 HD
ATOM     11  H   UNL     1       3.547   7.921  19.382  0.00  0.00    +0.000 HD
ENDROOT
BRANCH   9  12
ATOM     12  C   UNL     1       1.640   8.296  19.947  0.00  0.00    +0.000 A 
ATOM     13  C   UNL     1       1.114   7.989  21.204  0.00  0.00    +0.000 A 
ATOM     14  C   UNL     1       0.084   8.758  21.761  0.00  0.00    +0.000 A 
ATOM     15  C   UNL     1      -0.414   9.873  21.082  0.00  0.00    +0.000 A 
ATOM     16  C   UNL     1       0.130  10.258  19.857  0.00  0.00    +0.000 A 
ATOM     17  C   UNL     1       1.071   9.392  19.246  0.00  0.00    +0.000 A 
BRANCH  16  18
ATOM     18  C   UNL     1      -0.322  11.493  19.144  0.00  0.00    +0.000 C 
ATOM     19  O   UNL     1      -1.122  11.298  18.222  0.00  0.00    +0.000 OA
ATOM     20  N   UNL     1       0.147  12.783  19.456  0.00  0.00    +0.000 N 
ATOM     21  C   UNL     1       1.302  13.132  20.279  0.00  0.00    +0.000 C 
ATOM     22  C   UNL     1      -0.296  13.874  18.591  0.00  0.00    +0.000 C 
ENDBRANCH  16  18
BRANCH  17  23
ATOM     23  O   UNL     1       1.407   9.522  17.916  0.00  0.00    +0.000 OA
ATOM     24  H   UNL     1       0.856   8.891  17.398  0.00  0.00    +0.000 HD
ENDBRANCH  17  23
ENDBRANCH   9  12
BRANCH   1  25
ATOM     25  C   UNL     1       6.076   4.701  18.403  0.00  0.00    +0.000 C 
BRANCH  25  26
ATOM     26  C   UNL     1       5.888   4.782  16.889  0.00  0.00    +0.000 A 
ATOM     27  C   UNL     1       6.270   3.708  16.069  0.00  0.00    +0.000 A 
ATOM     28  C   UNL     1       6.142   3.794  14.681  0.00  0.00    +0.000 A 
ATOM     29  C   UNL     1       5.628   4.949  14.094  0.00  0.00    +0.000 A 
ATOM     30  C   UNL     1       5.241   6.021  14.893  0.00  0.00    +0.000 A 
ATOM     31  C   UNL     1       5.369   5.938  16.280  0.00  0.00    +0.000 A 
ENDBRANCH  25  26
BRANCH  25  33
ATOM     32  C   UNL     1       7.983   6.395  18.850  0.00  0.00    +0.000 C 
ATOM     33  C   UNL     1       7.562   4.939  18.742  0.00  0.00    +0.000 C 
ENDBRANCH  25  33
ENDBRANCH   1  25
TORSDOF 6
ENDMDL
MODEL 2
REMARK VINA RESULT:      -8.0      1.862      2.450
REMARK  Name = 
REMARK  9 active torsions:
REMARK  status: ('A' for Active; 'I' for Inactive)
REMARK    1  A    between atoms: C_1  and  C_2
REMARK    2  A    between atoms: C_2  and  C_3
REMARK    3  A    between atoms: C_3  and  N_4
REMARK    4  A    between atoms: C_3  and  C_25
REMARK    5  A    between atoms: N_12  and  C_13
REMARK    6  A    between atoms: C_17  and  C_18
REMARK    7  A    between atoms: N_20  and  C_21
REMARK    8  A    between atoms: N_20  and  C_22
REMARK    9  A    between atoms: C_23  and  O_24
REMARK                            x       y       z     vdW  Elec       q    Type
REMARK                         _______ _______ _______ _____ _____    ______ ____
ROOT
ATOM      1  N   UNL     1       5.428   5.472  18.333  0.00  0.00    +0.000 N 
ATOM      2  C   UNL     1       4.105   5.084  18.486  0.00  0.00    +0.000 C 
ATOM      3  N   UNL     1       3.731   3.875  18.719  0.00  0.00    +0.000 NA
ATOM      4  S   UNL     1       2.099   3.823  18.714  0.00  0.00    +0.000 S 
ATOM      5  O   UNL     1       1.680   3.001  17.600  0.00  0.00    +0.000 OA
ATOM      6  O   UNL     1       1.644   3.538  20.057  0.00  0.00    +0.000 OA
ATOM      7  N   UNL     1       1.781   5.370  18.358  0.00  0.00    +0.000 NA
ATOM      8  C   UNL     1       2.892   6.033  18.332  0.00  0.00    +0.000 C 
ATOM      9  N   UNL     1       3.011   7.401  18.146  0.00  0.00    +0.000 N 
ATOM     10  H   UNL     1       5.575   6.385  17.918  0.00  0.00    +0.000 HD
ATOM     11  H   UNL     1       3.906   7.815  18.380  0.00  0.00    +0.000 HD
ENDROOT
BRANCH   9  12
ATOM     12  C   UNL     1       1.941   8.290  18.479  0.00  0.00    +0.000 A 
ATOM     13  C   UNL     1       1.396   9.099  17.479  0.00  0.00    +0.000 A 
ATOM     14  C   UNL     1       0.386  10.023  17.771  0.00  0.00    +0.000 A 
ATOM     15  C   UNL     1      -0.124  10.130  19.067  0.00  0.00    +0.000 A 
ATOM     16  C   UNL     1       0.339   9.293  20.082  0.00  0.00    +0.000 A 
ATOM     17  C   UNL     1       1.455   8.464  19.802  0.00  0.00    +0.000 A 
BRANCH  16  18
ATOM     18  C   UNL     1      -0.243   9.322  21.459  0.00  0.00    +0.000 C 
ATOM     19  O   UNL     1      -0.675   8.238  21.865  0.00  0.00    +0.000 OA
ATOM     20  N   UNL     1      -0.338  10.493  22.235  0.00  0.00    +0.000 N 
ATOM     21  C   UNL     1      -0.173  11.872  21.783  0.00  0.00    +0.000 C 
ATOM     22  C   UNL     1      -1.040  10.385  23.511  0.00  0.00    +0.000 C 
ENDBRANCH  16  18
BRANCH  17  23
ATOM     23  O   UNL     1       2.172   7.862  20.813  0.00  0.00    +0.000 OA
ATOM     24  H   UNL     1       1.759   6.988  21.001  0.00  0.00    +0.000 HD
ENDBRANCH  17  23
ENDBRANCH   9  12
BRANCH   1  25
ATOM     25  C   UNL     1       6.425   4.480  17.878  0.00  0.00    +0.000 C 
BRANCH  25  26
ATOM     26  C   UNL     1       6.408   4.425  16.352  0.00  0.00    +0.000 A 
ATOM     27  C   UNL     1       7.442   5.020  15.610  0.00  0.00    +0.000 A 
ATOM     28  C   UNL     1       7.408   5.011  14.213  0.00  0.00    +0.000 A 
ATOM     29  C   UNL     1       6.348   4.407  13.540  0.00  0.00    +0.000 A 
ATOM     30  C   UNL     1       5.318   3.810  14.261  0.00  0.00    +0.000 A 
ATOM     31  C   UNL     1       5.348   3.817  15.656  0.00  0.00    +0.000 A 
ENDBRANCH  25  26
BRANCH  25  33
ATOM     32  C   UNL     1       8.003   5.979  19.281  0.00  0.00    +0.000 C 
ATOM     33  C   UNL     1       7.860   4.781  18.358  0.00  0.00    +0.000 C 
ENDBRANCH  25  33
ENDBRANCH   1  25
TORSDOF 6
ENDMDL
MODEL 3
REMARK VINA RESULT:      -7.8      1.211      1.557
REMARK  Name = 
REMARK  9 active torsions:
REMARK  status: ('A' for Active; 'I' for Inactive)
REMARK    1  A    between atoms: C_1  and  C_2
REMARK    2  A    between atoms: C_2  and  C_3
REMARK    3  A    between atoms: C_3  and  N_4
REMARK    4  A    between atoms: C_3  and  C_25
REMARK    5  A    between atoms: N_12  and  C_13
REMARK    6  A    between atoms: C_17  and  C_18
REMARK    7  A    between atoms: N_20  and  C_21
REMARK    8  A    between atoms: N_20  and  C_22
REMARK    9  A    between atoms: C_23  and  O_24
REMARK                            x       y       z     vdW  Elec       q    Type
REMARK                         _______ _______ _______ _____ _____    ______ ____
ROOT
ATOM      1  N   UNL     1       5.425   5.564  18.966  0.00  0.00    +0.000 N 
ATOM      2  C   UNL     1       4.211   5.092  19.443  0.00  0.00    +0.000 C 
ATOM      3  N   UNL     1       4.011   3.883  19.834  0.00  0.00    +0.000 NA
ATOM      4  S   UNL     1       2.431   3.707  20.206  0.00  0.00    +0.000 S 
ATOM      5  O   UNL     1       1.852   2.766  19.273  0.00  0.00    +0.000 OA
ATOM      6  O   UNL     1       2.315   3.503  21.633  0.00  0.00    +0.000 OA
ATOM      7  N   UNL     1       1.901   5.191  19.833  0.00  0.00    +0.000 NA
ATOM      8  C   UNL     1       2.912   5.932  19.511  0.00  0.00    +0.000 C 
ATOM      9  N   UNL     1       2.860   7.284  19.213  0.00  0.00    +0.000 N 
ATOM     10  H   UNL     1       5.391   6.447  18.470  0.00  0.00    +0.000 HD
ATOM     11  H   UNL     1       3.743   7.782  19.209  0.00  0.00    +0.000 HD
ENDROOT
BRANCH   9  12
ATOM     12  C   UNL     1       1.814   8.115  19.726  0.00  0.00    +0.000 A 
ATOM     13  C   UNL     1       1.424   7.967  21.059  0.00  0.00    +0.000 A 
ATOM     14  C   UNL     1       0.368   8.719  21.588  0.00  0.00    +0.000 A 
ATOM     15  C   UNL     1      -0.296   9.662  20.798  0.00  0.00    +0.000 A 
ATOM     16  C   UNL     1       0.106   9.894  19.483  0.00  0.00    +0.000 A 
ATOM     17  C   UNL     1       1.081   9.029  18.924  0.00  0.00    +0.000 A 
BRANCH  16  18
ATOM     18  C   UNL     1      -0.526  10.953  18.637  0.00  0.00    +0.000 C 
ATOM     19  O   UNL     1       0.004  12.066  18.713  0.00  0.00    +0.000 OA
ATOM     20  N   UNL     1      -1.664  10.729  17.839  0.00  0.00    +0.000 N 
ATOM     21  C   UNL     1      -2.573   9.587  17.891  0.00  0.00    +0.000 C 
ATOM     22  C   UNL     1      -2.237  11.891  17.165  0.00  0.00    +0.000 C 
ENDBRANCH  16  18
BRANCH  17  23
ATOM     23  O   UNL     1       1.295   8.974  17.563  0.00  0.00    +0.000 OA
ATOM     24  H   UNL     1       2.261   9.070  17.402  0.00  0.00    +0.000 HD
ENDBRANCH  17  23
ENDBRANCH   9  12
BRANCH   1  25
ATOM     25  C   UNL     1       6.382   4.614  18.360  0.00  0.00    +0.000 C 
BRANCH  25  26
ATOM     26  C   UNL     1       6.136   4.557  16.853  0.00  0.00    +0.000 A 
ATOM     27  C   UNL     1       4.879   4.181  16.353  0.00  0.00    +0.000 A 
ATOM     28  C   UNL     1       4.663   4.085  14.977  0.00  0.00    +0.000 A 
ATOM     29  C   UNL     1       5.694   4.366  14.083  0.00  0.00    +0.000 A 
ATOM     30  C   UNL     1       6.945   4.744  14.562  0.00  0.00    +0.000 A 
ATOM     31  C   UNL     1       7.165   4.840  15.936  0.00  0.00    +0.000 A 
ENDBRANCH  25  26
BRANCH  25  33
ATOM     32  C   UNL     1       8.121   6.424  18.999  0.00  0.00    +0.000 C 
ATOM     33  C   UNL     1       7.860   4.976  18.619  0.00  0.00    +0.000 C 
ENDBRANCH  25  33
ENDBRANCH   1  25
TORSDOF 6
ENDMDL
MODEL 4
REMARK VINA RESULT:      -7.8      1.726      2.276
REMARK  Name = 
REMARK  9 active torsions:
REMARK  status: ('A' for Active; 'I' for Inactive)
REMARK    1  A    between atoms: C_1  and  C_2
REMARK    2  A    between atoms: C_2  and  C_3
REMARK    3  A    between atoms: C_3  and  N_4
REMARK    4  A    between atoms: C_3  and  C_25
REMARK    5  A    between atoms: N_12  and  C_13
REMARK    6  A    between atoms: C_17  and  C_18
REMARK    7  A    between atoms: N_20  and  C_21
REMARK    8  A    between atoms: N_20  and  C_22
REMARK    9  A    between atoms: C_23  and  O_24
REMARK                            x       y       z     vdW  Elec       q    Type
REMARK                         _______ _______ _______ _____ _____    ______ ____
ROOT
ATOM      1  N   UNL     1       5.438   5.765  18.527  0.00  0.00    +0.000 N 
ATOM      2  C   UNL     1       4.172   5.359  18.921  0.00  0.00    +0.000 C 
ATOM      3  N   UNL     1       3.908   4.204  19.422  0.00  0.00    +0.000 NA
ATOM      4  S   UNL     1       2.295   4.083  19.640  0.00  0.00    +0.000 S 
ATOM      5  O   UNL     1       1.799   3.045  18.763  0.00  0.00    +0.000 OA
ATOM      6  O   UNL     1       2.024   4.045  21.060  0.00  0.00    +0.000 OA
ATOM      7  N   UNL     1       1.836   5.518  19.047  0.00  0.00    +0.000 NA
ATOM      8  C   UNL     1       2.889   6.210  18.754  0.00  0.00    +0.000 C 
ATOM      9  N   UNL     1       2.895   7.519  18.301  0.00  0.00    +0.000 N 
ATOM     10  H   UNL     1       5.474   6.585  17.933  0.00  0.00    +0.000 HD
ATOM     11  H   UNL     1       3.783   8.008  18.335  0.00  0.00    +0.000 HD
ENDROOT
BRANCH   9  12
ATOM     12  C   UNL     1       1.817   8.411  18.601  0.00  0.00    +0.000 A 
ATOM     13  C   UNL     1       1.248   9.157  17.566  0.00  0.00    +0.000 A 
ATOM     14  C   UNL     1       0.229  10.082  17.821  0.00  0.00    +0.000 A 
ATOM     15  C   UNL     1      -0.266  10.253  19.116  0.00  0.00    +0.000 A 
ATOM     16  C   UNL     1       0.222   9.479  20.168  0.00  0.00    +0.000 A 
ATOM     17  C   UNL     1       1.346   8.651  19.918  0.00  0.00    +0.000 A 
BRANCH  16  18
ATOM     18  C   UNL     1      -0.342   9.575  21.550  0.00  0.00    +0.000 C 
ATOM     19  O   UNL     1      -0.691   8.499  22.047  0.00  0.00    +0.000 OA
ATOM     20  N   UNL     1      -0.509  10.794  22.235  0.00  0.00    +0.000 N 
ATOM     21  C   UNL     1      -0.447  12.141  21.675  0.00  0.00    +0.000 C 
ATOM     22  C   UNL     1      -1.185  10.738  23.528  0.00  0.00    +0.000 C 
ENDBRANCH  16  18
BRANCH  17  23
ATOM     23  O   UNL     1       2.085   8.114  20.951  0.00  0.00    +0.000 OA
ATOM     24  H   UNL     1       2.078   8.755  21.697  0.00  0.00    +0.000 HD
ENDBRANCH  17  23
ENDBRANCH   9  12
BRANCH   1  25
ATOM     25  C   UNL     1       6.435   4.745  18.138  0.00  0.00    +0.000 C 
BRANCH  25  26
ATOM     26  C   UNL     1       6.375   4.544  16.625  0.00  0.00    +0.000 A 
ATOM     27  C   UNL     1       5.439   3.660  16.064  0.00  0.00    +0.000 A 
ATOM     28  C   UNL     1       5.410   3.440  14.685  0.00  0.00    +0.000 A 
ATOM     29  C   UNL     1       6.308   4.100  13.849  0.00  0.00    +0.000 A 
ATOM     30  C   UNL     1       7.239   4.983  14.389  0.00  0.00    +0.000 A 
ATOM     31  C   UNL     1       7.272   5.205  15.766  0.00  0.00    +0.000 A 
ENDBRANCH  25  26
BRANCH  25  33
ATOM     32  C   UNL     1       8.124   6.576  18.849  0.00  0.00    +0.000 C 
ATOM     33  C   UNL     1       7.880   5.108  18.543  0.00  0.00    +0.000 C 
ENDBRANCH  25  33
ENDBRANCH   1  25
TORSDOF 6
ENDMDL
MODEL 5
REMARK VINA RESULT:      -7.6      2.963      4.667
REMARK  Name = 
REMARK  9 active torsions:
REMARK  status: ('A' for Active; 'I' for Inactive)
REMARK    1  A    between atoms: C_1  and  C_2
REMARK    2  A    between atoms: C_2  and  C_3
REMARK    3  A    between atoms: C_3  and  N_4
REMARK    4  A    between atoms: C_3  and  C_25
REMARK    5  A    between atoms: N_12  and  C_13
REMARK    6  A    between atoms: C_17  and  C_18
REMARK    7  A    between atoms: N_20  and  C_21
REMARK    8  A    between atoms: N_20  and  C_22
REMARK    9  A    between atoms: C_23  and  O_24
REMARK                            x       y       z     vdW  Elec       q    Type
REMARK                         _______ _______ _______ _____ _____    ______ ____
ROOT
ATOM      1  N   UNL     1       2.381   7.828  18.766  0.00  0.00    +0.000 N 
ATOM      2  C   UNL     1       1.685   8.472  19.778  0.00  0.00    +0.000 C 
ATOM      3  N   UNL     1       1.428   7.947  20.924  0.00  0.00    +0.000 NA
ATOM      4  S   UNL     1       0.495   8.981  21.777  0.00  0.00    +0.000 S 
ATOM      5  O   UNL     1      -0.795   8.359  21.979  0.00  0.00    +0.000 OA
ATOM      6  O   UNL     1       1.264   9.475  22.898  0.00  0.00    +0.000 OA
ATOM      7  N   UNL     1       0.330  10.160  20.680  0.00  0.00    +0.000 NA
ATOM      8  C   UNL     1       1.062   9.884  19.650  0.00  0.00    +0.000 C 
ATOM      9  N   UNL     1       1.243  10.701  18.545  0.00  0.00    +0.000 N 
ATOM     10  H   UNL     1       2.306   8.244  17.845  0.00  0.00    +0.000 HD
ATOM     11  H   UNL     1       2.015  10.469  17.931  0.00  0.00    +0.000 HD
ENDROOT
BRANCH   9  12
ATOM     12  C   UNL     1       1.081  12.120  18.639  0.00  0.00    +0.000 A 
ATOM     13  C   UNL     1      -0.174  12.636  18.968  0.00  0.00    +0.000 A 
ATOM     14  C   UNL     1      -0.393  14.018  19.017  0.00  0.00    +0.000 A 
ATOM     15  C   UNL     1       0.653  14.911  18.772  0.00  0.00    +0.000 A 
ATOM     16  C   UNL     1       1.940  14.440  18.510  0.00  0.00    +0.000 A 
ATOM     17  C   UNL     1       2.112  13.045  18.327  0.00  0.00    +0.000 A 
BRANCH  16  18
ATOM     18  C   UNL     1       3.100  15.366  18.327  0.00  0.00    +0.000 C 
ATOM     19  O   UNL     1       3.461  15.522  17.155  0.00  0.00    +0.000 OA
ATOM     20  N   UNL     1       3.769  15.991  19.396  0.00  0.00    +0.000 N 
ATOM     21  C   UNL     1       3.671  15.663  20.816  0.00  0.00    +0.000 C 
ATOM     22  C   UNL     1       4.959  16.771  19.066  0.00  0.00    +0.000 C 
ENDBRANCH  16  18
BRANCH  17  23
ATOM     23  O   UNL     1       3.256  12.532  17.754  0.00  0.00    +0.000 OA
ATOM     24  H   UNL     1       3.018  11.696  17.293  0.00  0.00    +0.000 HD
ENDBRANCH  17  23
ENDBRANCH   9  12
BRANCH   1  25
ATOM     25  C   UNL     1       2.384   6.350  18.718  0.00  0.00    +0.000 C 
BRANCH  25  26
ATOM     26  C   UNL     1       3.454   5.889  17.731  0.00  0.00    +0.000 A 
ATOM     27  C   UNL     1       4.284   6.827  17.095  0.00  0.00    +0.000 A 
ATOM     28  C   UNL     1       5.235   6.413  16.160  0.00  0.00    +0.000 A 
ATOM     29  C   UNL     1       5.373   5.062  15.849  0.00  0.00    +0.000 A 
ATOM     30  C   UNL     1       4.561   4.120  16.473  0.00  0.00    +0.000 A 
ATOM     31  C   UNL     1       3.610   4.529  17.408  0.00  0.00    +0.000 A 
ENDBRANCH  25  26
BRANCH  25  33
ATOM     32  C   UNL     1       1.657   4.596  20.479  0.00  0.00    +0.000 C 
ATOM     33  C   UNL     1       2.638   5.688  20.088  0.00  0.00    +0.000 C 
ENDBRANCH  25  33
ENDBRANCH   1  25
TORSDOF 6
ENDMDL
MODEL 6
REMARK VINA RESULT:      -7.5      0.790      1.036
REMARK  Name = 
REMARK  9 active torsions:
REMARK  status: ('A' for Active; 'I' for Inactive)
REMARK    1  A    between atoms: C_1  and  C_2
REMARK    2  A    between atoms: C_2  and  C_3
REMARK    3  A    between atoms: C_3  and  N_4
REMARK    4  A    between atoms: C_3  and  C_25
REMARK    5  A    between atoms: N_12  and  C_13
REMARK    6  A    between atoms: C_17  and  C_18
REMARK    7  A    between atoms: N_20  and  C_21
REMARK    8  A    between atoms: N_20  and  C_22
REMARK    9  A    between atoms: C_23  and  O_24
REMARK                            x       y       z     vdW  Elec       q    Type
REMARK                         _______ _______ _______ _____ _____    ______ ____
ROOT
ATOM      1  N   UNL     1       5.077   5.491  19.022  0.00  0.00    +0.000 N 
ATOM      2  C   UNL     1       3.899   5.062  19.614  0.00  0.00    +0.000 C 
ATOM      3  N   UNL     1       3.698   3.862  20.033  0.00  0.00    +0.000 NA
ATOM      4  S   UNL     1       2.155   3.739  20.552  0.00  0.00    +0.000 S 
ATOM      5  O   UNL     1       1.462   2.812  19.685  0.00  0.00    +0.000 OA
ATOM      6  O   UNL     1       2.166   3.547  21.985  0.00  0.00    +0.000 OA
ATOM      7  N   UNL     1       1.639   5.237  20.217  0.00  0.00    +0.000 NA
ATOM      8  C   UNL     1       2.638   5.943  19.795  0.00  0.00    +0.000 C 
ATOM      9  N   UNL     1       2.602   7.294  19.492  0.00  0.00    +0.000 N 
ATOM     10  H   UNL     1       5.024   6.372  18.524  0.00  0.00    +0.000 HD
ATOM     11  H   UNL     1       3.495   7.764  19.401  0.00  0.00    +0.000 HD
ENDROOT
BRANCH   9  12
ATOM     12  C   UNL     1       1.634   8.162  20.092  0.00  0.00    +0.000 A 
ATOM     13  C   UNL     1       0.887   7.694  21.176  0.00  0.00    +0.000 A 
ATOM     14  C   UNL     1      -0.109   8.487  21.759  0.00  0.00    +0.000 A 
ATOM     15  C   UNL     1      -0.351   9.780  21.289  0.00  0.00    +0.000 A 
ATOM     16  C   UNL     1       0.419  10.314  20.255  0.00  0.00    +0.000 A 
ATOM     17  C   UNL     1       1.324   9.451  19.587  0.00  0.00    +0.000 A 
BRANCH  16  18
ATOM     18  C   UNL     1       0.242  11.722  19.783  0.00  0.00    +0.000 C 
ATOM     19  O   UNL     1       1.110  12.514  20.170  0.00  0.00    +0.000 OA
ATOM     20  N   UNL     1      -0.843  12.144  18.992  0.00  0.00    +0.000 N 
ATOM     21  C   UNL     1      -2.084  11.420  18.731  0.00  0.00    +0.000 C 
ATOM     22  C   UNL     1      -0.941  13.575  18.713  0.00  0.00    +0.000 C 
ENDBRANCH  16  18
BRANCH  17  23
ATOM     23  O   UNL     1       1.873   9.793  18.370  0.00  0.00    +0.000 OA
ATOM     24  H   UNL     1       1.460   9.227  17.679  0.00  0.00    +0.000 HD
ENDBRANCH  17  23
ENDBRANCH   9  12
BRANCH   1  25
ATOM     25  C   UNL     1       5.943   4.508  18.338  0.00  0.00    +0.000 C 
BRANCH  25  26
ATOM     26  C   UNL     1       5.784   4.675  16.828  0.00  0.00    +0.000 A 
ATOM     27  C   UNL     1       6.118   3.623  15.960  0.00  0.00    +0.000 A 
ATOM     28  C   UNL     1       6.017   3.786  14.576  0.00  0.00    +0.000 A 
ATOM     29  C   UNL     1       5.579   4.996  14.042  0.00  0.00    +0.000 A 
ATOM     30  C   UNL     1       5.241   6.047  14.889  0.00  0.00    +0.000 A 
ATOM     31  C   UNL     1       5.341   5.888  16.271  0.00  0.00    +0.000 A 
ENDBRANCH  25  26
BRANCH  25  33
ATOM     32  C   UNL     1       7.913   6.045  19.018  0.00  0.00    +0.000 C 
ATOM     33  C   UNL     1       7.435   4.637  18.708  0.00  0.00    +0.000 C 
ENDBRANCH  25  33
ENDBRANCH   1  25
TORSDOF 6
ENDMDL
MODEL 7
REMARK VINA RESULT:      -7.4      2.614      8.178
REMARK  Name = 
REMARK  9 active torsions:
REMARK  status: ('A' for Active; 'I' for Inactive)
REMARK    1  A    between atoms: C_1  and  C_2
REMARK    2  A    between atoms: C_2  and  C_3
REMARK    3  A    between atoms: C_3  and  N_4
REMARK    4  A    between atoms: C_3  and  C_25
REMARK    5  A    between atoms: N_12  and  C_13
REMARK    6  A    between atoms: C_17  and  C_18
REMARK    7  A    between atoms: N_20  and  C_21
REMARK    8  A    between atoms: N_20  and  C_22
REMARK    9  A    between atoms: C_23  and  O_24
REMARK                            x       y       z     vdW  Elec       q    Type
REMARK                         _______ _______ _______ _____ _____    ______ ____
ROOT
ATOM      1  N   UNL     1      -0.011  10.638  18.852  0.00  0.00    +0.000 N 
ATOM      2  C   UNL     1       0.182   9.910  20.017  0.00  0.00    +0.000 C 
ATOM      3  N   UNL     1      -0.432  10.142  21.123  0.00  0.00    +0.000 NA
ATOM      4  S   UNL     1       0.163   9.146  22.272  0.00  0.00    +0.000 S 
ATOM      5  O   UNL     1       0.821   9.957  23.272  0.00  0.00    +0.000 OA
ATOM      6  O   UNL     1      -0.871   8.205  22.643  0.00  0.00    +0.000 OA
ATOM      7  N   UNL     1       1.295   8.381  21.404  0.00  0.00    +0.000 NA
ATOM      8  C   UNL     1       1.210   8.762  20.170  0.00  0.00    +0.000 C 
ATOM      9  N   UNL     1       1.959   8.262  19.117  0.00  0.00    +0.000 N 
ATOM     10  H   UNL     1       0.695  10.519  18.135  0.00  0.00    +0.000 HD
ATOM     11  H   UNL     1       1.630   8.478  18.183  0.00  0.00    +0.000 HD
ENDROOT
BRANCH   9  12
ATOM     12  C   UNL     1       2.516   6.945  19.164  0.00  0.00    +0.000 A 
ATOM     13  C   UNL     1       2.117   6.079  20.185  0.00  0.00    +0.000 A 
ATOM     14  C   UNL     1       2.677   4.801  20.304  0.00  0.00    +0.000 A 
ATOM     15  C   UNL     1       3.622   4.352  19.378  0.00  0.00    +0.000 A 
ATOM     16  C   UNL     1       3.997   5.156  18.302  0.00  0.00    +0.000 A 
ATOM     17  C   UNL     1       3.528   6.493  18.277  0.00  0.00    +0.000 A 
BRANCH  16  18
ATOM     18  C   UNL     1       4.943   4.676  17.247  0.00  0.00    +0.000 C 
ATOM     19  O   UNL     1       4.431   3.971  16.371  0.00  0.00    +0.000 OA
ATOM     20  N   UNL     1       6.322   4.960  17.256  0.00  0.00    +0.000 N 
ATOM     21  C   UNL     1       7.110   5.492  18.364  0.00  0.00    +0.000 C 
ATOM     22  C   UNL     1       7.135   4.320  16.225  0.00  0.00    +0.000 C 
ENDBRANCH  16  18
BRANCH  17  23
ATOM     23  O   UNL     1       4.097   7.437  17.450  0.00  0.00    +0.000 OA
ATOM     24  H   UNL     1       3.395   8.075  17.185  0.00  0.00    +0.000 HD
ENDBRANCH  17  23
ENDBRANCH   9  12
BRANCH   1  25
ATOM     25  C   UNL     1      -0.492  12.033  18.943  0.00  0.00    +0.000 C 
BRANCH  25  26
ATOM     26  C   UNL     1       0.694  12.979  18.762  0.00  0.00    +0.000 A 
ATOM     27  C   UNL     1       0.521  14.366  18.896  0.00  0.00    +0.000 A 
ATOM     28  C   UNL     1       1.592  15.238  18.688  0.00  0.00    +0.000 A 
ATOM     29  C   UNL     1       2.848  14.738  18.349  0.00  0.00    +0.000 A 
ATOM     30  C   UNL     1       3.037  13.366  18.217  0.00  0.00    +0.000 A 
ATOM     31  C   UNL     1       1.969  12.492  18.423  0.00  0.00    +0.000 A 
ENDBRANCH  25  26
BRANCH  25  33
ATOM     32  C   UNL     1      -2.268  11.191  17.256  0.00  0.00    +0.000 C 
ATOM     33  C   UNL     1      -1.580  12.380  17.905  0.00  0.00    +0.000 C 
ENDBRANCH  25  33
ENDBRANCH   1  25
TORSDOF 6
ENDMDL
MODEL 8
REMARK VINA RESULT:      -7.3      3.021      4.516
REMARK  Name = 
REMARK  9 active torsions:
REMARK  status: ('A' for Active; 'I' for Inactive)
REMARK    1  A    between atoms: C_1  and  C_2
REMARK    2  A    between atoms: C_2  and  C_3
REMARK    3  A    between atoms: C_3  and  N_4
REMARK    4  A    between atoms: C_3  and  C_25
REMARK    5  A    between atoms: N_12  and  C_13
REMARK    6  A    between atoms: C_17  and  C_18
REMARK    7  A    between atoms: N_20  and  C_21
REMARK    8  A    between atoms: N_20  and  C_22
REMARK    9  A    between atoms: C_23  and  O_24
REMARK                            x       y       z     vdW  Elec       q    Type
REMARK                         _______ _______ _______ _____ _____    ______ ____
ROOT
ATOM      1  N   UNL     1       5.882   5.025  15.052  0.00  0.00    +0.000 N 
ATOM      2  C   UNL     1       6.301   5.307  16.344  0.00  0.00    +0.000 C 
ATOM      3  N   UNL     1       7.526   5.523  16.674  0.00  0.00    +0.000 NA
ATOM      4  S   UNL     1       7.608   5.699  18.295  0.00  0.00    +0.000 S 
ATOM      5  O   UNL     1       8.386   4.601  18.826  0.00  0.00    +0.000 OA
ATOM      6  O   UNL     1       7.963   7.069  18.591  0.00  0.00    +0.000 OA
ATOM      7  N   UNL     1       6.053   5.456  18.671  0.00  0.00    +0.000 NA
ATOM      8  C   UNL     1       5.368   5.337  17.579  0.00  0.00    +0.000 C 
ATOM      9  N   UNL     1       3.992   5.203  17.500  0.00  0.00    +0.000 N 
ATOM     10  H   UNL     1       4.949   4.640  14.965  0.00  0.00    +0.000 HD
ATOM     11  H   UNL     1       3.572   5.354  16.590  0.00  0.00    +0.000 HD
ENDROOT
BRANCH   9  12
ATOM     12  C   UNL     1       3.139   5.697  18.537  0.00  0.00    +0.000 A 
ATOM     13  C   UNL     1       2.726   4.824  19.547  0.00  0.00    +0.000 A 
ATOM     14  C   UNL     1       1.848   5.249  20.551  0.00  0.00    +0.000 A 
ATOM     15  C   UNL     1       1.392   6.569  20.583  0.00  0.00    +0.000 A 
ATOM     16  C   UNL     1       1.834   7.494  19.637  0.00  0.00    +0.000 A 
ATOM     17  C   UNL     1       2.609   7.014  18.551  0.00  0.00    +0.000 A 
BRANCH  16  18
ATOM     18  C   UNL     1       1.433   8.934  19.690  0.00  0.00    +0.000 C 
ATOM     19  O   UNL     1       1.441   9.517  18.601  0.00  0.00    +0.000 OA
ATOM     20  N   UNL     1       1.108   9.603  20.885  0.00  0.00    +0.000 N 
ATOM     21  C   UNL     1       1.357   9.151  22.251  0.00  0.00    +0.000 C 
ATOM     22  C   UNL     1       0.854  11.039  20.790  0.00  0.00    +0.000 C 
ENDBRANCH  16  18
BRANCH  17  23
ATOM     23  O   UNL     1       2.808   7.777  17.420  0.00  0.00    +0.000 OA
ATOM     24  H   UNL     1       2.286   7.378  16.687  0.00  0.00    +0.000 HD
ENDBRANCH  17  23
ENDBRANCH   9  12
BRANCH   1  25
ATOM     25  C   UNL     1       6.834   4.414  14.101  0.00  0.00    +0.000 C 
BRANCH  25  26
ATOM     26  C   UNL     1       6.048   3.713  12.994  0.00  0.00    +0.000 A 
ATOM     27  C   UNL     1       4.741   4.124  12.684  0.00  0.00    +0.000 A 
ATOM     28  C   UNL     1       4.002   3.457  11.704  0.00  0.00    +0.000 A 
ATOM     29  C   UNL     1       4.556   2.378  11.019  0.00  0.00    +0.000 A 
ATOM     30  C   UNL     1       5.851   1.961  11.312  0.00  0.00    +0.000 A 
ATOM     31  C   UNL     1       6.592   2.624  12.291  0.00  0.00    +0.000 A 
ENDBRANCH  25  26
BRANCH  25  33
ATOM     32  C   UNL     1       7.757   5.521  11.949  0.00  0.00    +0.000 C 
ATOM     33  C   UNL     1       7.808   5.427  13.465  0.00  0.00    +0.000 C 
ENDBRANCH  25  33
ENDBRANCH   1  25
TORSDOF 6
ENDMDL
MODEL 9
REMARK VINA RESULT:      -7.3      3.982      6.220
REMARK  Name = 
REMARK  9 active torsions:
REMARK  status: ('A' for Active; 'I' for Inactive)
REMARK    1  A    between atoms: C_1  and  C_2
REMARK    2  A    between atoms: C_2  and  C_3
REMARK    3  A    between atoms: C_3  and  N_4
REMARK    4  A    between atoms: C_3  and  C_25
REMARK    5  A    between atoms: N_12  and  C_13
REMARK    6  A    between atoms: C_17  and  C_18
REMARK    7  A    between atoms: N_20  and  C_21
REMARK    8  A    between atoms: N_20  and  C_22
REMARK    9  A    between atoms: C_23  and  O_24
REMARK                            x       y       z     vdW  Elec       q    Type
REMARK                         _______ _______ _______ _____ _____    ______ ____
ROOT
ATOM      1  N   UNL     1       1.479   8.321  17.771  0.00  0.00    +0.000 N 
ATOM      2  C   UNL     1       1.259   9.651  18.097  0.00  0.00    +0.000 C 
ATOM      3  N   UNL     1       2.194  10.489  18.379  0.00  0.00    +0.000 NA
ATOM      4  S   UNL     1       1.513  11.906  18.818  0.00  0.00    +0.000 S 
ATOM      5  O   UNL     1       1.831  12.146  20.208  0.00  0.00    +0.000 OA
ATOM      6  O   UNL     1       1.817  12.895  17.807  0.00  0.00    +0.000 OA
ATOM      7  N   UNL     1      -0.050  11.497  18.713  0.00  0.00    +0.000 NA
ATOM      8  C   UNL     1      -0.141  10.299  18.234  0.00  0.00    +0.000 C 
ATOM      9  N   UNL     1      -1.320   9.640  17.923  0.00  0.00    +0.000 N 
ATOM     10  H   UNL     1       0.667   7.717  17.811  0.00  0.00    +0.000 HD
ATOM     11  H   UNL     1      -1.239   8.812  17.345  0.00  0.00    +0.000 HD
ENDROOT
BRANCH   9  12
ATOM     12  C   UNL     1      -2.510  10.366  17.600  0.00  0.00    +0.000 A 
ATOM     13  C   UNL     1      -2.938  10.406  16.271  0.00  0.00    +0.000 A 
ATOM     14  C   UNL     1      -4.065  11.150  15.900  0.00  0.00    +0.000 A 
ATOM     15  C   UNL     1      -4.807  11.840  16.861  0.00  0.00    +0.000 A 
ATOM     16  C   UNL     1      -4.458  11.771  18.210  0.00  0.00    +0.000 A 
ATOM     17  C   UNL     1      -3.239  11.131  18.548  0.00  0.00    +0.000 A 
BRANCH  16  18
ATOM     18  C   UNL     1      -5.277  12.428  19.274  0.00  0.00    +0.000 C 
ATOM     19  O   UNL     1      -4.802  13.476  19.725  0.00  0.00    +0.000 OA
ATOM     20  N   UNL     1      -6.481  11.890  19.769  0.00  0.00    +0.000 N 
ATOM     21  C   UNL     1      -6.993  10.536  19.573  0.00  0.00    +0.000 C 
ATOM     22  C   UNL     1      -7.103  12.585  20.892  0.00  0.00    +0.000 C 
ENDBRANCH  16  18
BRANCH  17  23
ATOM     23  O   UNL     1      -2.662  11.298  19.789  0.00  0.00    +0.000 OA
ATOM     24  H   UNL     1      -1.806  11.769  19.668  0.00  0.00    +0.000 HD
ENDBRANCH  17  23
ENDBRANCH   9  12
BRANCH   1  25
ATOM     25  C   UNL     1       2.704   7.651  18.258  0.00  0.00    +0.000 C 
BRANCH  25  26
ATOM     26  C   UNL     1       2.330   6.276  18.809  0.00  0.00    +0.000 A 
ATOM     27  C   UNL     1       2.000   5.227  17.935  0.00  0.00    +0.000 A 
ATOM     28  C   UNL     1       1.615   3.982  18.436  0.00  0.00    +0.000 A 
ATOM     29  C   UNL     1       1.557   3.765  19.812  0.00  0.00    +0.000 A 
ATOM     30  C   UNL     1       1.885   4.793  20.691  0.00  0.00    +0.000 A 
ATOM     31  C   UNL     1       2.269   6.039  20.194  0.00  0.00    +0.000 A 
ENDBRANCH  25  26
BRANCH  25  33
ATOM     32  C   UNL     1       5.026   6.711  17.599  0.00  0.00    +0.000 C 
ATOM     33  C   UNL     1       3.789   7.483  17.173  0.00  0.00    +0.000 C 
ENDBRANCH  25  33
ENDBRANCH   1  25
TORSDOF 6
ENDMDL
