MODEL 1
REMARK VINA RESULT:      -8.4      0.000      0.000
REMARK  Name = 
REMARK  7 active torsions:
REMARK  status: ('A' for Active; 'I' for Inactive)
REMARK    1  A    between atoms: C_1  and  O_2
REMARK    2  A    between atoms: O_2  and  C_3
REMARK    3  A    between atoms: C_7  and  C_8
REMARK    4  A    between atoms: C_8  and  C_9
REMARK    5  A    between atoms: C_17  and  C_18
REMARK    6  A    between atoms: C_25  and  O_26
REMARK    7  A    between atoms: O_26  and  C_27
REMARK                            x       y       z     vdW  Elec       q    Type
REMARK                         _______ _______ _______ _____ _____    ______ ____
ROOT
ATOM      1  C   UNL     1       1.853   8.679  18.167  0.00  0.00    +0.000 C 
ATOM      2  O   UNL     1       2.208   9.448  17.271  0.00  0.00    +0.000 OA
ATOM      3  N   UNL     1       1.352   9.159  19.395  0.00  0.00    +0.000 N 
ATOM      4  C   UNL     1       0.976   8.364  20.470  0.00  0.00    +0.000 C 
ATOM      5  C   UNL     1       0.462   8.829  21.610  0.00  0.00    +0.000 C 
ATOM      6  C   UNL     1       0.431  10.285  21.850  0.00  0.00    +0.000 C 
ATOM      7  O   UNL     1      -0.076  10.717  22.882  0.00  0.00    +0.000 OA
ATOM      8  C   UNL     1       1.157  11.156  20.868  0.00  0.00    +0.000 C 
ATOM      9  C   UNL     1       0.967  10.595  19.449  0.00  0.00    +0.000 C 
ENDROOT
BRANCH   9  10
ATOM     10  C   UNL     1      -0.468  10.833  18.941  0.00  0.00    +0.000 A 
ATOM     11  C   UNL     1      -1.239  11.877  19.478  0.00  0.00    +0.000 A 
ATOM     12  C   UNL     1      -2.570  12.056  19.090  0.00  0.00    +0.000 A 
ATOM     13  C   UNL     1      -3.145  11.212  18.143  0.00  0.00    +0.000 A 
ATOM     14  C   UNL     1      -2.387  10.202  17.568  0.00  0.00    +0.000 A 
ATOM     15  C   UNL     1      -1.062  10.020  17.960  0.00  0.00    +0.000 A 
ENDBRANCH   9  10
BRANCH   1  16
ATOM     16  C   UNL     1       1.926   7.164  17.921  0.00  0.00    +0.000 C 
BRANCH  16  21
ATOM     17  C   UNL     1       5.955   5.566  18.514  0.00  0.00    +0.000 A 
ATOM     18  C   UNL     1       4.886   5.049  19.256  0.00  0.00    +0.000 A 
ATOM     19  C   UNL     1       3.582   5.562  19.132  0.00  0.00    +0.000 A 
ATOM     20  I   UNL     1       2.205   4.773  20.513  0.00  0.00    +0.000 I 
ATOM     21  C   UNL     1       3.299   6.573  18.204  0.00  0.00    +0.000 A 
ATOM     22  C   UNL     1       4.394   7.105  17.490  0.00  0.00    +0.000 A 
ATOM     23  C   UNL     1       5.714   6.646  17.658  0.00  0.00    +0.000 A 
BRANCH  17  25
ATOM     24  C   UNL     1       7.787   4.389  17.553  0.00  0.00    +0.000 C 
ATOM     25  O   UNL     1       7.231   5.092  18.660  0.00  0.00    +0.000 OA
ENDBRANCH  17  25
BRANCH  23  26
ATOM     26  O   UNL     1       6.612   7.363  16.912  0.00  0.00    +0.000 OA
ATOM     27  C   UNL     1       7.598   8.137  17.579  0.00  0.00    +0.000 C 
ENDBRANCH  23  26
ENDBRANCH  16  21
ENDBRANCH   1  16
TORSDOF 5
ENDMDL
MODEL 2
REMARK VINA RESULT:      -8.3      0.475      1.044
REMARK  Name = 
REMARK  7 active torsions:
REMARK  status: ('A' for Active; 'I' for Inactive)
REMARK    1  A    between atoms: C_1  and  O_2
REMARK    2  A    between atoms: O_2  and  C_3
REMARK    3  A    between atoms: C_7  and  C_8
REMARK    4  A    between atoms: C_8  and  C_9
REMARK    5  A    between atoms: C_17  and  C_18
REMARK    6  A    between atoms: C_25  and  O_26
REMARK    7  A    between atoms: O_26  and  C_27
REMARK                            x       y       z     vdW  Elec       q    Type
REMARK                         _______ _______ _______ _____ _____    ______ ____
ROOT
ATOM      1  C   UNL     1       1.892   8.608  18.183  0.00  0.00    +0.000 C 
ATOM      2  O   UNL     1       2.253   9.386  17.297  0.00  0.00    +0.000 OA
ATOM      3  N   UNL     1       1.396   9.077  19.417  0.00  0.00    +0.000 N 
ATOM      4  C   UNL     1       1.012   8.270  20.481  0.00  0.00    +0.000 C 
ATOM      5  C   UNL     1       0.503   8.725  21.627  0.00  0.00    +0.000 C 
ATOM      6  C   UNL     1       0.485  10.178  21.887  0.00  0.00    +0.000 C 
ATOM      7  O   UNL     1      -0.017  10.601  22.925  0.00  0.00    +0.000 OA
ATOM      8  C   UNL     1       1.220  11.055  20.917  0.00  0.00    +0.000 C 
ATOM      9  C   UNL     1       1.024  10.515  19.490  0.00  0.00    +0.000 C 
ENDROOT
BRANCH   9  10
ATOM     10  C   UNL     1      -0.409  10.774  18.987  0.00  0.00    +0.000 A 
ATOM     11  C   UNL     1      -0.939   9.994  17.946  0.00  0.00    +0.000 A 
ATOM     12  C   UNL     1      -2.205  10.269  17.420  0.00  0.00    +0.000 A 
ATOM     13  C   UNL     1      -2.971  11.309  17.939  0.00  0.00    +0.000 A 
ATOM     14  C   UNL     1      -2.484  12.063  18.998  0.00  0.00    +0.000 A 
ATOM     15  C   UNL     1      -1.219  11.794  19.517  0.00  0.00    +0.000 A 
ENDBRANCH   9  10
BRANCH   1  16
ATOM     16  C   UNL     1       1.950   7.096  17.916  0.00  0.00    +0.000 C 
BRANCH  16  21
ATOM     17  C   UNL     1       5.960   5.446  18.499  0.00  0.00    +0.000 A 
ATOM     18  C   UNL     1       4.887   4.947  19.248  0.00  0.00    +0.000 A 
ATOM     19  C   UNL     1       3.590   5.477  19.127  0.00  0.00    +0.000 A 
ATOM     20  I   UNL     1       2.209   4.715  20.519  0.00  0.00    +0.000 I 
ATOM     21  C   UNL     1       3.316   6.487  18.196  0.00  0.00    +0.000 A 
ATOM     22  C   UNL     1       4.415   7.001  17.474  0.00  0.00    +0.000 A 
ATOM     23  C   UNL     1       5.730   6.525  17.638  0.00  0.00    +0.000 A 
BRANCH  17  25
ATOM     24  C   UNL     1       8.028   5.522  19.675  0.00  0.00    +0.000 C 
ATOM     25  O   UNL     1       7.230   4.954  18.641  0.00  0.00    +0.000 OA
ENDBRANCH  17  25
BRANCH  23  26
ATOM     26  O   UNL     1       6.634   7.225  16.883  0.00  0.00    +0.000 OA
ATOM     27  C   UNL     1       7.436   8.213  17.513  0.00  0.00    +0.000 C 
ENDBRANCH  23  26
ENDBRANCH  16  21
ENDBRANCH   1  16
TORSDOF 5
ENDMDL
MODEL 3
REMARK VINA RESULT:      -7.9      1.369      1.680
REMARK  Name = 
REMARK  7 active torsions:
REMARK  status: ('A' for Active; 'I' for Inactive)
REMARK    1  A    between atoms: C_1  and  O_2
REMARK    2  A    between atoms: O_2  and  C_3
REMARK    3  A    between atoms: C_7  and  C_8
REMARK    4  A    between atoms: C_8  and  C_9
REMARK    5  A    between atoms: C_17  and  C_18
REMARK    6  A    between atoms: C_25  and  O_26
REMARK    7  A    between atoms: O_26  and  C_27
REMARK                            x       y       z     vdW  Elec       q    Type
REMARK                         _______ _______ _______ _____ _____    ______ ____
ROOT
ATOM      1  C   UNL     1       1.976   8.355  18.377  0.00  0.00    +0.000 C 
ATOM      2  O   UNL     1       2.289   8.795  17.268  0.00  0.00    +0.000 OA
ATOM      3  N   UNL     1       1.476   9.200  19.390  0.00  0.00    +0.000 N 
ATOM      4  C   UNL     1       1.145   8.794  20.676  0.00  0.00    +0.000 C 
ATOM      5  C   UNL     1       0.631   9.596  21.611  0.00  0.00    +0.000 C 
ATOM      6  C   UNL     1       0.552  11.048  21.358  0.00  0.00    +0.000 C 
ATOM      7  O   UNL     1       0.045  11.781  22.203  0.00  0.00    +0.000 OA
ATOM      8  C   UNL     1       1.232  11.565  20.126  0.00  0.00    +0.000 C 
ATOM      9  C   UNL     1       1.041  10.561  18.977  0.00  0.00    +0.000 C 
ENDROOT
BRANCH   9  10
ATOM     10  C   UNL     1      -0.409  10.577  18.456  0.00  0.00    +0.000 A 
ATOM     11  C   UNL     1      -0.812   9.661  17.471  0.00  0.00    +0.000 A 
ATOM     12  C   UNL     1      -2.099   9.715  16.927  0.00  0.00    +0.000 A 
ATOM     13  C   UNL     1      -3.011  10.667  17.374  0.00  0.00    +0.000 A 
ATOM     14  C   UNL     1      -2.647  11.554  18.378  0.00  0.00    +0.000 A 
ATOM     15  C   UNL     1      -1.362  11.504  18.915  0.00  0.00    +0.000 A 
ENDBRANCH   9  10
BRANCH   1  16
ATOM     16  C   UNL     1       2.099   6.847  18.643  0.00  0.00    +0.000 C 
BRANCH  16  21
ATOM     17  C   UNL     1       5.508   5.212  16.442  0.00  0.00    +0.000 A 
ATOM     18  C   UNL     1       4.438   4.377  16.787  0.00  0.00    +0.000 A 
ATOM     19  C   UNL     1       3.342   4.848  17.532  0.00  0.00    +0.000 A 
ATOM     20  I   UNL     1       1.982   3.352  18.113  0.00  0.00    +0.000 I 
ATOM     21  C   UNL     1       3.257   6.197  17.901  0.00  0.00    +0.000 A 
ATOM     22  C   UNL     1       4.360   7.015  17.575  0.00  0.00    +0.000 A 
ATOM     23  C   UNL     1       5.493   6.538  16.890  0.00  0.00    +0.000 A 
BRANCH  17  25
ATOM     24  C   UNL     1       6.331   4.101  14.505  0.00  0.00    +0.000 C 
ATOM     25  O   UNL     1       6.592   4.746  15.747  0.00  0.00    +0.000 OA
ENDBRANCH  17  25
BRANCH  23  26
ATOM     26  O   UNL     1       6.461   7.498  16.752  0.00  0.00    +0.000 OA
ATOM     27  C   UNL     1       7.570   7.488  17.639  0.00  0.00    +0.000 C 
ENDBRANCH  23  26
ENDBRANCH  16  21
ENDBRANCH   1  16
TORSDOF 5
ENDMDL
MODEL 4
REMARK VINA RESULT:      -7.5      1.240      1.307
REMARK  Name = 
REMARK  7 active torsions:
REMARK  status: ('A' for Active; 'I' for Inactive)
REMARK    1  A    between atoms: C_1  and  O_2
REMARK    2  A    between atoms: O_2  and  C_3
REMARK    3  A    between atoms: C_7  and  C_8
REMARK    4  A    between atoms: C_8  and  C_9
REMARK    5  A    between atoms: C_17  and  C_18
REMARK    6  A    between atoms: C_25  and  O_26
REMARK    7  A    between atoms: O_26  and  C_27
REMARK                            x       y       z     vdW  Elec       q    Type
REMARK                         _______ _______ _______ _____ _____    ______ ____
ROOT
ATOM      1  C   UNL     1       1.861   8.518  18.438  0.00  0.00    +0.000 C 
ATOM      2  O   UNL     1       2.144   8.885  17.296  0.00  0.00    +0.000 OA
ATOM      3  N   UNL     1       1.378   9.425  19.404  0.00  0.00    +0.000 N 
ATOM      4  C   UNL     1       1.082   9.104  20.723  0.00  0.00    +0.000 C 
ATOM      5  C   UNL     1       0.583   9.963  21.615  0.00  0.00    +0.000 C 
ATOM      6  C   UNL     1       0.484  11.393  21.267  0.00  0.00    +0.000 C 
ATOM      7  O   UNL     1      -0.009  12.178  22.073  0.00  0.00    +0.000 OA
ATOM      8  C   UNL     1       1.130  11.832  19.987  0.00  0.00    +0.000 C 
ATOM      9  C   UNL     1       0.921  10.752  18.912  0.00  0.00    +0.000 C 
ENDROOT
BRANCH   9  10
ATOM     10  C   UNL     1      -0.541  10.722  18.428  0.00  0.00    +0.000 A 
ATOM     11  C   UNL     1      -1.452  11.690  18.880  0.00  0.00    +0.000 A 
ATOM     12  C   UNL     1      -2.801  11.629  18.517  0.00  0.00    +0.000 A 
ATOM     13  C   UNL     1      -3.257  10.616  17.678  0.00  0.00    +0.000 A 
ATOM     14  C   UNL     1      -2.365   9.674  17.184  0.00  0.00    +0.000 A 
ATOM     15  C   UNL     1      -1.022   9.731  17.552  0.00  0.00    +0.000 A 
ENDBRANCH   9  10
BRANCH   1  16
ATOM     16  C   UNL     1       2.005   7.032  18.802  0.00  0.00    +0.000 C 
BRANCH  16  21
ATOM     17  C   UNL     1       5.188   5.206  16.420  0.00  0.00    +0.000 A 
ATOM     18  C   UNL     1       4.114   4.424  16.862  0.00  0.00    +0.000 A 
ATOM     19  C   UNL     1       3.091   4.957  17.667  0.00  0.00    +0.000 A 
ATOM     20  I   UNL     1       1.720   3.531  18.383  0.00  0.00    +0.000 I 
ATOM     21  C   UNL     1       3.083   6.317  18.001  0.00  0.00    +0.000 A 
ATOM     22  C   UNL     1       4.190   7.083  17.576  0.00  0.00    +0.000 A 
ATOM     23  C   UNL     1       5.253   6.543  16.829  0.00  0.00    +0.000 A 
BRANCH  17  25
ATOM     24  C   UNL     1       7.363   4.240  16.363  0.00  0.00    +0.000 C 
ATOM     25  O   UNL     1       6.202   4.680  15.665  0.00  0.00    +0.000 OA
ENDBRANCH  17  25
BRANCH  23  26
ATOM     26  O   UNL     1       6.244   7.460  16.596  0.00  0.00    +0.000 OA
ATOM     27  C   UNL     1       7.277   7.615  17.559  0.00  0.00    +0.000 C 
ENDBRANCH  23  26
ENDBRANCH  16  21
ENDBRANCH   1  16
TORSDOF 5
ENDMDL
MODEL 5
REMARK VINA RESULT:      -7.5      2.738      7.893
REMARK  Name = 
REMARK  7 active torsions:
REMARK  status: ('A' for Active; 'I' for Inactive)
REMARK    1  A    between atoms: C_1  and  O_2
REMARK    2  A    between atoms: O_2  and  C_3
REMARK    3  A    between atoms: C_7  and  C_8
REMARK    4  A    between atoms: C_8  and  C_9
REMARK    5  A    between atoms: C_17  and  C_18
REMARK    6  A    between atoms: C_25  and  O_26
REMARK    7  A    between atoms: O_26  and  C_27
REMARK                            x       y       z     vdW  Elec       q    Type
REMARK                         _______ _______ _______ _____ _____    ______ ____
ROOT
ATOM      1  C   UNL     1       3.927   3.985  17.402  0.00  0.00    +0.000 C 
ATOM      2  O   UNL     1       4.172   2.777  17.443  0.00  0.00    +0.000 OA
ATOM      3  N   UNL     1       4.958   4.941  17.283  0.00  0.00    +0.000 N 
ATOM      4  C   UNL     1       4.772   6.317  17.276  0.00  0.00    +0.000 C 
ATOM      5  C   UNL     1       5.751   7.210  17.118  0.00  0.00    +0.000 C 
ATOM      6  C   UNL     1       7.155   6.754  17.115  0.00  0.00    +0.000 C 
ATOM      7  O   UNL     1       8.055   7.569  16.933  0.00  0.00    +0.000 OA
ATOM      8  C   UNL     1       7.409   5.322  17.482  0.00  0.00    +0.000 C 
ATOM      9  C   UNL     1       6.300   4.438  16.887  0.00  0.00    +0.000 C 
ENDROOT
BRANCH   9  10
ATOM     10  C   UNL     1       6.448   4.308  15.359  0.00  0.00    +0.000 A 
ATOM     11  C   UNL     1       7.517   4.936  14.701  0.00  0.00    +0.000 A 
ATOM     12  C   UNL     1       7.620   4.899  13.307  0.00  0.00    +0.000 A 
ATOM     13  C   UNL     1       6.672   4.215  12.550  0.00  0.00    +0.000 A 
ATOM     14  C   UNL     1       5.632   3.550  13.185  0.00  0.00    +0.000 A 
ATOM     15  C   UNL     1       5.525   3.594  14.574  0.00  0.00    +0.000 A 
ENDBRANCH   9  10
BRANCH   1  16
ATOM     16  C   UNL     1       2.464   4.451  17.444  0.00  0.00    +0.000 C 
BRANCH  16  21
ATOM     17  C   UNL     1       1.755   7.499  20.501  0.00  0.00    +0.000 A 
ATOM     18  C   UNL     1       1.702   6.143  20.846  0.00  0.00    +0.000 A 
ATOM     19  C   UNL     1       1.879   5.128  19.888  0.00  0.00    +0.000 A 
ATOM     20  I   UNL     1       1.529   3.183  20.611  0.00  0.00    +0.000 I 
ATOM     21  C   UNL     1       2.181   5.448  18.558  0.00  0.00    +0.000 A 
ATOM     22  C   UNL     1       2.196   6.818  18.222  0.00  0.00    +0.000 A 
ATOM     23  C   UNL     1       1.952   7.840  19.159  0.00  0.00    +0.000 A 
BRANCH  17  25
ATOM     24  C   UNL     1       0.196   8.786  21.758  0.00  0.00    +0.000 C 
ATOM     25  O   UNL     1       1.548   8.487  21.426  0.00  0.00    +0.000 OA
ENDBRANCH  17  25
BRANCH  23  26
ATOM     26  O   UNL     1       1.950   9.084  18.584  0.00  0.00    +0.000 OA
ATOM     27  C   UNL     1       0.717   9.636  18.146  0.00  0.00    +0.000 C 
ENDBRANCH  23  26
ENDBRANCH  16  21
ENDBRANCH   1  16
TORSDOF 5
ENDMDL
MODEL 6
REMARK VINA RESULT:      -7.4      2.875      7.456
REMARK  Name = 
REMARK  7 active torsions:
REMARK  status: ('A' for Active; 'I' for Inactive)
REMARK    1  A    between atoms: C_1  and  O_2
REMARK    2  A    between atoms: O_2  and  C_3
REMARK    3  A    between atoms: C_7  and  C_8
REMARK    4  A    between atoms: C_8  and  C_9
REMARK    5  A    between atoms: C_17  and  C_18
REMARK    6  A    between atoms: C_25  and  O_26
REMARK    7  A    between atoms: O_26  and  C_27
REMARK                            x       y       z     vdW  Elec       q    Type
REMARK                         _______ _______ _______ _____ _____    ______ ____
ROOT
ATOM      1  C   UNL     1       2.002   8.243  18.866  0.00  0.00    +0.000 C 
ATOM      2  O   UNL     1       1.576   8.331  20.020  0.00  0.00    +0.000 OA
ATOM      3  N   UNL     1       3.002   7.311  18.520  0.00  0.00    +0.000 N 
ATOM      4  C   UNL     1       3.568   7.179  17.258  0.00  0.00    +0.000 C 
ATOM      5  C   UNL     1       4.482   6.263  16.933  0.00  0.00    +0.000 C 
ATOM      6  C   UNL     1       5.080   5.427  17.992  0.00  0.00    +0.000 C 
ATOM      7  O   UNL     1       5.893   4.558  17.690  0.00  0.00    +0.000 OA
ATOM      8  C   UNL     1       4.758   5.789  19.412  0.00  0.00    +0.000 C 
ATOM      9  C   UNL     1       3.288   6.234  19.505  0.00  0.00    +0.000 C 
ENDROOT
BRANCH   9  10
ATOM     10  C   UNL     1       2.331   5.037  19.355  0.00  0.00    +0.000 A 
ATOM     11  C   UNL     1       1.824   4.394  20.497  0.00  0.00    +0.000 A 
ATOM     12  C   UNL     1       1.022   3.255  20.380  0.00  0.00    +0.000 A 
ATOM     13  C   UNL     1       0.692   2.754  19.124  0.00  0.00    +0.000 A 
ATOM     14  C   UNL     1       1.145   3.400  17.982  0.00  0.00    +0.000 A 
ATOM     15  C   UNL     1       1.951   4.531  18.099  0.00  0.00    +0.000 A 
ENDBRANCH   9  10
BRANCH   1  16
ATOM     16  C   UNL     1       1.400   9.145  17.778  0.00  0.00    +0.000 C 
BRANCH  16  21
ATOM     17  C   UNL     1       0.405  13.097  19.370  0.00  0.00    +0.000 A 
ATOM     18  C   UNL     1      -0.619  12.236  18.956  0.00  0.00    +0.000 A 
ATOM     19  C   UNL     1      -0.345  10.975  18.396  0.00  0.00    +0.000 A 
ATOM     20  I   UNL     1      -2.037   9.973  17.649  0.00  0.00    +0.000 I 
ATOM     21  C   UNL     1       0.973  10.511  18.296  0.00  0.00    +0.000 A 
ATOM     22  C   UNL     1       1.993  11.404  18.686  0.00  0.00    +0.000 A 
ATOM     23  C   UNL     1       1.733  12.696  19.182  0.00  0.00    +0.000 A 
BRANCH  17  25
ATOM     24  C   UNL     1      -0.087  15.387  18.945  0.00  0.00    +0.000 C 
ATOM     25  O   UNL     1       0.141  14.340  19.882  0.00  0.00    +0.000 OA
ENDBRANCH  17  25
BRANCH  23  26
ATOM     26  O   UNL     1       2.882  13.401  19.425  0.00  0.00    +0.000 OA
ATOM     27  C   UNL     1       3.476  14.133  18.363  0.00  0.00    +0.000 C 
ENDBRANCH  23  26
ENDBRANCH  16  21
ENDBRANCH   1  16
TORSDOF 5
ENDMDL
MODEL 7
REMARK VINA RESULT:      -7.2      2.644      7.598
REMARK  Name = 
REMARK  7 active torsions:
REMARK  status: ('A' for Active; 'I' for Inactive)
REMARK    1  A    between atoms: C_1  and  O_2
REMARK    2  A    between atoms: O_2  and  C_3
REMARK    3  A    between atoms: C_7  and  C_8
REMARK    4  A    between atoms: C_8  and  C_9
REMARK    5  A    between atoms: C_17  and  C_18
REMARK    6  A    between atoms: C_25  and  O_26
REMARK    7  A    between atoms: O_26  and  C_27
REMARK                            x       y       z     vdW  Elec       q    Type
REMARK                         _______ _______ _______ _____ _____    ______ ____
ROOT
ATOM      1  C   UNL     1       1.957   8.163  19.178  0.00  0.00    +0.000 C 
ATOM      2  O   UNL     1       1.560   8.109  20.344  0.00  0.00    +0.000 OA
ATOM      3  N   UNL     1       2.960   7.293  18.701  0.00  0.00    +0.000 N 
ATOM      4  C   UNL     1       3.495   7.318  17.420  0.00  0.00    +0.000 C 
ATOM      5  C   UNL     1       4.412   6.461  16.968  0.00  0.00    +0.000 C 
ATOM      6  C   UNL     1       5.047   5.517  17.908  0.00  0.00    +0.000 C 
ATOM      7  O   UNL     1       5.863   4.701  17.486  0.00  0.00    +0.000 OA
ATOM      8  C   UNL     1       4.757   5.705  19.367  0.00  0.00    +0.000 C 
ATOM      9  C   UNL     1       3.285   6.114  19.547  0.00  0.00    +0.000 C 
ENDROOT
BRANCH   9  10
ATOM     10  C   UNL     1       2.339   4.927  19.281  0.00  0.00    +0.000 A 
ATOM     11  C   UNL     1       1.562   4.399  20.325  0.00  0.00    +0.000 A 
ATOM     12  C   UNL     1       0.762   3.271  20.122  0.00  0.00    +0.000 A 
ATOM     13  C   UNL     1       0.705   2.666  18.869  0.00  0.00    +0.000 A 
ATOM     14  C   UNL     1       1.429   3.199  17.812  0.00  0.00    +0.000 A 
ATOM     15  C   UNL     1       2.233   4.319  18.017  0.00  0.00    +0.000 A 
ENDBRANCH   9  10
BRANCH   1  16
ATOM     16  C   UNL     1       1.316   9.177  18.217  0.00  0.00    +0.000 C 
BRANCH  16  21
ATOM     17  C   UNL     1      -0.315  12.583  20.426  0.00  0.00    +0.000 A 
ATOM     18  C   UNL     1      -1.139  11.860  19.554  0.00  0.00    +0.000 A 
ATOM     19  C   UNL     1      -0.648  10.786  18.790  0.00  0.00    +0.000 A 
ATOM     20  I   UNL     1      -2.021  10.015  17.396  0.00  0.00    +0.000 I 
ATOM     21  C   UNL     1       0.680  10.362  18.928  0.00  0.00    +0.000 A 
ATOM     22  C   UNL     1       1.505  11.123  19.785  0.00  0.00    +0.000 A 
ATOM     23  C   UNL     1       1.040  12.242  20.501  0.00  0.00    +0.000 A 
BRANCH  17  25
ATOM     24  C   UNL     1      -1.199  13.393  22.482  0.00  0.00    +0.000 C 
ATOM     25  O   UNL     1      -0.784  13.650  21.144  0.00  0.00    +0.000 OA
ENDBRANCH  17  25
BRANCH  23  26
ATOM     26  O   UNL     1       2.039  12.859  21.208  0.00  0.00    +0.000 OA
ATOM     27  C   UNL     1       2.787  13.890  20.582  0.00  0.00    +0.000 C 
ENDBRANCH  23  26
ENDBRANCH  16  21
ENDBRANCH   1  16
TORSDOF 5
ENDMDL
MODEL 8
REMARK VINA RESULT:      -7.0      2.513      7.989
REMARK  Name = 
REMARK  7 active torsions:
REMARK  status: ('A' for Active; 'I' for Inactive)
REMARK    1  A    between atoms: C_1  and  O_2
REMARK    2  A    between atoms: O_2  and  C_3
REMARK    3  A    between atoms: C_7  and  C_8
REMARK    4  A    between atoms: C_8  and  C_9
REMARK    5  A    between atoms: C_17  and  C_18
REMARK    6  A    between atoms: C_25  and  O_26
REMARK    7  A    between atoms: O_26  and  C_27
REMARK                            x       y       z     vdW  Elec       q    Type
REMARK                         _______ _______ _______ _____ _____    ______ ____
ROOT
ATOM      1  C   UNL     1       2.031   7.679  18.741  0.00  0.00    +0.000 C 
ATOM      2  O   UNL     1       2.217   8.122  17.605  0.00  0.00    +0.000 OA
ATOM      3  N   UNL     1       1.988   6.291  18.991  0.00  0.00    +0.000 N 
ATOM      4  C   UNL     1       1.738   5.711  20.229  0.00  0.00    +0.000 C 
ATOM      5  C   UNL     1       1.744   4.397  20.461  0.00  0.00    +0.000 C 
ATOM      6  C   UNL     1       1.852   3.461  19.326  0.00  0.00    +0.000 C 
ATOM      7  O   UNL     1       1.895   2.252  19.541  0.00  0.00    +0.000 OA
ATOM      8  C   UNL     1       1.759   4.044  17.947  0.00  0.00    +0.000 C 
ATOM      9  C   UNL     1       2.490   5.397  17.914  0.00  0.00    +0.000 C 
ENDROOT
BRANCH   9  10
ATOM     10  C   UNL     1       4.017   5.209  17.977  0.00  0.00    +0.000 A 
ATOM     11  C   UNL     1       4.708   4.693  16.869  0.00  0.00    +0.000 A 
ATOM     12  C   UNL     1       6.081   4.438  16.936  0.00  0.00    +0.000 A 
ATOM     13  C   UNL     1       6.791   4.716  18.102  0.00  0.00    +0.000 A 
ATOM     14  C   UNL     1       6.135   5.268  19.194  0.00  0.00    +0.000 A 
ATOM     15  C   UNL     1       4.765   5.515  19.128  0.00  0.00    +0.000 A 
ENDBRANCH   9  10
BRANCH   1  16
ATOM     16  C   UNL     1       1.881   8.664  19.911  0.00  0.00    +0.000 C 
BRANCH  16  21
ATOM     17  C   UNL     1      -1.646  11.198  19.387  0.00  0.00    +0.000 A 
ATOM     18  C   UNL     1      -1.197  10.889  20.677  0.00  0.00    +0.000 A 
ATOM     19  C   UNL     1      -0.096  10.042  20.894  0.00  0.00    +0.000 A 
ATOM     20  I   UNL     1       0.237   9.553  22.913  0.00  0.00    +0.000 I 
ATOM     21  C   UNL     1       0.634   9.529  19.814  0.00  0.00    +0.000 A 
ATOM     22  C   UNL     1       0.148   9.823  18.522  0.00  0.00    +0.000 A 
ATOM     23  C   UNL     1      -0.996  10.613  18.295  0.00  0.00    +0.000 A 
BRANCH  17  25
ATOM     24  C   UNL     1      -3.187  12.781  20.274  0.00  0.00    +0.000 C 
ATOM     25  O   UNL     1      -2.740  11.994  19.174  0.00  0.00    +0.000 OA
ENDBRANCH  17  25
BRANCH  23  26
ATOM     26  O   UNL     1      -1.313  10.698  16.965  0.00  0.00    +0.000 OA
ATOM     27  C   UNL     1      -2.361   9.887  16.454  0.00  0.00    +0.000 C 
ENDBRANCH  23  26
ENDBRANCH  16  21
ENDBRANCH   1  16
TORSDOF 5
ENDMDL
MODEL 9
REMARK VINA RESULT:      -6.9      2.722      7.979
REMARK  Name = 
REMARK  7 active torsions:
REMARK  status: ('A' for Active; 'I' for Inactive)
REMARK    1  A    between atoms: C_1  and  O_2
REMARK    2  A    between atoms: O_2  and  C_3
REMARK    3  A    between atoms: C_7  and  C_8
REMARK    4  A    between atoms: C_8  and  C_9
REMARK    5  A    between atoms: C_17  and  C_18
REMARK    6  A    between atoms: C_25  and  O_26
REMARK    7  A    between atoms: O_26  and  C_27
REMARK                            x       y       z     vdW  Elec       q    Type
REMARK                         _______ _______ _______ _____ _____    ______ ____
ROOT
ATOM      1  C   UNL     1       2.040   8.589  18.234  0.00  0.00    +0.000 C 
ATOM      2  O   UNL     1       2.265   8.791  17.038  0.00  0.00    +0.000 OA
ATOM      3  N   UNL     1       2.091   7.290  18.782  0.00  0.00    +0.000 N 
ATOM      4  C   UNL     1       1.807   6.970  20.103  0.00  0.00    +0.000 C 
ATOM      5  C   UNL     1       1.902   5.743  20.620  0.00  0.00    +0.000 C 
ATOM      6  C   UNL     1       2.159   4.598  19.726  0.00  0.00    +0.000 C 
ATOM      7  O   UNL     1       2.284   3.473  20.204  0.00  0.00    +0.000 OA
ATOM      8  C   UNL     1       2.112   4.859  18.250  0.00  0.00    +0.000 C 
ATOM      9  C   UNL     1       2.733   6.234  17.954  0.00  0.00    +0.000 C 
ENDROOT
BRANCH   9  10
ATOM     10  C   UNL     1       4.263   6.206  18.128  0.00  0.00    +0.000 A 
ATOM     11  C   UNL     1       5.086   6.907  17.232  0.00  0.00    +0.000 A 
ATOM     12  C   UNL     1       6.478   6.825  17.325  0.00  0.00    +0.000 A 
ATOM     13  C   UNL     1       7.072   6.062  18.327  0.00  0.00    +0.000 A 
ATOM     14  C   UNL     1       6.277   5.398  19.250  0.00  0.00    +0.000 A 
ATOM     15  C   UNL     1       4.889   5.474  19.153  0.00  0.00    +0.000 A 
ENDBRANCH   9  10
BRANCH   1  16
ATOM     16  C   UNL     1       1.735   9.784  19.149  0.00  0.00    +0.000 C 
BRANCH  16  21
ATOM     17  C   UNL     1      -2.148  11.511  18.110  0.00  0.00    +0.000 A 
ATOM     18  C   UNL     1      -1.300  12.189  18.995  0.00  0.00    +0.000 A 
ATOM     19  C   UNL     1      -0.062  11.651  19.393  0.00  0.00    +0.000 A 
ATOM     20  I   UNL     1       0.917  12.749  20.896  0.00  0.00    +0.000 I 
ATOM     21  C   UNL     1       0.393  10.438  18.859  0.00  0.00    +0.000 A 
ATOM     22  C   UNL     1      -0.489   9.753  17.996  0.00  0.00    +0.000 A 
ATOM     23  C   UNL     1      -1.759  10.249  17.646  0.00  0.00    +0.000 A 
BRANCH  17  25
ATOM     24  C   UNL     1      -4.454  11.772  18.638  0.00  0.00    +0.000 C 
ATOM     25  O   UNL     1      -3.368  12.017  17.750  0.00  0.00    +0.000 OA
ENDBRANCH  17  25
BRANCH  23  26
ATOM     26  O   UNL     1      -2.460   9.377  16.856  0.00  0.00    +0.000 OA
ATOM     27  C   UNL     1      -2.759   9.749  15.519  0.00  0.00    +0.000 C 
ENDBRANCH  23  26
ENDBRANCH  16  21
ENDBRANCH   1  16
TORSDOF 5
ENDMDL
