MODEL 1
REMARK VINA RESULT:      -7.5      0.000      0.000
REMARK  Name = 
REMARK  2 active torsions:
REMARK  status: ('A' for Active; 'I' for Inactive)
REMARK    1  A    between atoms: N_1  and  C_2
REMARK    2  A    between atoms: C_7  and  N_8
REMARK                            x       y       z     vdW  Elec       q    Type
REMARK                         _______ _______ _______ _____ _____    ______ ____
ROOT
ATOM      1  N   UNL     1       4.078   3.804  18.342  0.00  0.00    +0.000 N 
ATOM      2  S   UNL     1       3.496   3.647  16.719  0.00  0.00    +0.000 S 
ATOM      3  C   UNL     1       5.034   4.182  16.057  0.00  0.00    +0.000 A 
ATOM      4  C   UNL     1       5.388   4.282  14.722  0.00  0.00    +0.000 A 
ATOM      5  C   UNL     1       6.678   4.720  14.404  0.00  0.00    +0.000 A 
ATOM      6  C   UNL     1       7.593   5.045  15.418  0.00  0.00    +0.000 A 
ATOM      7  C   UNL     1       7.225   4.942  16.760  0.00  0.00    +0.000 A 
ATOM      8  C   UNL     1       5.939   4.510  17.059  0.00  0.00    +0.000 A 
ATOM      9  C   UNL     1       5.379   4.327  18.413  0.00  0.00    +0.000 A 
ATOM     10  O   UNL     1       6.060   4.600  19.392  0.00  0.00    +0.000 OA
ENDROOT
BRANCH   1  16
ATOM     11  C   UNL     1       3.549   2.555  20.457  0.00  0.00    +0.000 A 
ATOM     12  C   UNL     1       2.687   2.377  21.555  0.00  0.00    +0.000 A 
ATOM     13  C   UNL     1       1.496   3.089  21.665  0.00  0.00    +0.000 A 
ATOM     14  C   UNL     1       1.169   4.025  20.697  0.00  0.00    +0.000 A 
ATOM     15  C   UNL     1       2.034   4.251  19.622  0.00  0.00    +0.000 A 
ATOM     16  C   UNL     1       3.238   3.534  19.474  0.00  0.00    +0.000 A 
BRANCH  11  17
ATOM     17  N   UNL     1       4.819   1.941  20.556  0.00  0.00    +0.000 N 
ATOM     18  H   UNL     1       4.806   0.946  20.363  0.00  0.00    +0.000 HD
ATOM     19  H   UNL     1       5.517   2.431  20.001  0.00  0.00    +0.000 HD
ENDBRANCH  11  17
ENDBRANCH   1  16
TORSDOF 2
ENDMDL
MODEL 2
REMARK VINA RESULT:      -7.2      1.408      1.841
REMARK  Name = 
REMARK  2 active torsions:
REMARK  status: ('A' for Active; 'I' for Inactive)
REMARK    1  A    between atoms: N_1  and  C_2
REMARK    2  A    between atoms: C_7  and  N_8
REMARK                            x       y       z     vdW  Elec       q    Type
REMARK                         _______ _______ _______ _____ _____    ______ ____
ROOT
ATOM      1  N   UNL     1       4.211   4.060  18.422  0.00  0.00    +0.000 N 
ATOM      2  S   UNL     1       5.744   4.821  18.687  0.00  0.00    +0.000 S 
ATOM      3  C   UNL     1       6.127   4.772  16.973  0.00  0.00    +0.000 A 
ATOM      4  C   UNL     1       7.254   5.275  16.346  0.00  0.00    +0.000 A 
ATOM      5  C   UNL     1       7.361   5.145  14.958  0.00  0.00    +0.000 A 
ATOM      6  C   UNL     1       6.345   4.521  14.217  0.00  0.00    +0.000 A 
ATOM      7  C   UNL     1       5.213   4.015  14.859  0.00  0.00    +0.000 A 
ATOM      8  C   UNL     1       5.125   4.148  16.239  0.00  0.00    +0.000 A 
ATOM      9  C   UNL     1       4.003   3.690  17.084  0.00  0.00    +0.000 A 
ATOM     10  O   UNL     1       3.060   3.104  16.572  0.00  0.00    +0.000 OA
ENDROOT
BRANCH   1  16
ATOM     11  C   UNL     1       3.554   2.662  20.404  0.00  0.00    +0.000 A 
ATOM     12  C   UNL     1       2.656   2.442  21.465  0.00  0.00    +0.000 A 
ATOM     13  C   UNL     1       1.509   3.216  21.617  0.00  0.00    +0.000 A 
ATOM     14  C   UNL     1       1.265   4.254  20.733  0.00  0.00    +0.000 A 
ATOM     15  C   UNL     1       2.168   4.521  19.699  0.00  0.00    +0.000 A 
ATOM     16  C   UNL     1       3.328   3.744  19.509  0.00  0.00    +0.000 A 
BRANCH  11  17
ATOM     17  N   UNL     1       4.780   1.962  20.469  0.00  0.00    +0.000 N 
ATOM     18  H   UNL     1       5.592   2.544  20.293  0.00  0.00    +0.000 HD
ATOM     19  H   UNL     1       4.865   1.435  21.335  0.00  0.00    +0.000 HD
ENDBRANCH  11  17
ENDBRANCH   1  16
TORSDOF 2
ENDMDL
MODEL 3
REMARK VINA RESULT:      -7.0      1.692      5.968
REMARK  Name = 
REMARK  2 active torsions:
REMARK  status: ('A' for Active; 'I' for Inactive)
REMARK    1  A    between atoms: N_1  and  C_2
REMARK    2  A    between atoms: C_7  and  N_8
REMARK                            x       y       z     vdW  Elec       q    Type
REMARK                         _______ _______ _______ _____ _____    ______ ____
ROOT
ATOM      1  N   UNL     1       4.478   4.183  17.825  0.00  0.00    +0.000 N 
ATOM      2  S   UNL     1       4.035   5.476  18.890  0.00  0.00    +0.000 S 
ATOM      3  C   UNL     1       2.974   4.424  19.815  0.00  0.00    +0.000 A 
ATOM      4  C   UNL     1       2.242   4.747  20.945  0.00  0.00    +0.000 A 
ATOM      5  C   UNL     1       1.463   3.752  21.544  0.00  0.00    +0.000 A 
ATOM      6  C   UNL     1       1.429   2.454  21.013  0.00  0.00    +0.000 A 
ATOM      7  C   UNL     1       2.169   2.138  19.872  0.00  0.00    +0.000 A 
ATOM      8  C   UNL     1       2.934   3.139  19.286  0.00  0.00    +0.000 A 
ATOM      9  C   UNL     1       3.788   2.990  18.091  0.00  0.00    +0.000 A 
ATOM     10  O   UNL     1       3.832   1.915  17.509  0.00  0.00    +0.000 OA
ENDROOT
BRANCH   1  16
ATOM     11  C   UNL     1       6.767   4.592  16.876  0.00  0.00    +0.000 A 
ATOM     12  C   UNL     1       7.575   4.753  15.734  0.00  0.00    +0.000 A 
ATOM     13  C   UNL     1       7.027   4.790  14.456  0.00  0.00    +0.000 A 
ATOM     14  C   UNL     1       5.661   4.623  14.295  0.00  0.00    +0.000 A 
ATOM     15  C   UNL     1       4.845   4.415  15.411  0.00  0.00    +0.000 A 
ATOM     16  C   UNL     1       5.368   4.389  16.719  0.00  0.00    +0.000 A 
BRANCH  11  17
ATOM     17  N   UNL     1       7.447   4.359  18.093  0.00  0.00    +0.000 N 
ATOM     18  H   UNL     1       6.896   4.581  18.915  0.00  0.00    +0.000 HD
ATOM     19  H   UNL     1       7.835   3.419  18.132  0.00  0.00    +0.000 HD
ENDBRANCH  11  17
ENDBRANCH   1  16
TORSDOF 2
ENDMDL
MODEL 4
REMARK VINA RESULT:      -7.0      1.593      5.868
REMARK  Name = 
REMARK  2 active torsions:
REMARK  status: ('A' for Active; 'I' for Inactive)
REMARK    1  A    between atoms: N_1  and  C_2
REMARK    2  A    between atoms: C_7  and  N_8
REMARK                            x       y       z     vdW  Elec       q    Type
REMARK                         _______ _______ _______ _____ _____    ______ ____
ROOT
ATOM      1  N   UNL     1       4.281   4.050  17.385  0.00  0.00    +0.000 N 
ATOM      2  S   UNL     1       3.803   2.442  17.815  0.00  0.00    +0.000 S 
ATOM      3  C   UNL     1       2.670   3.041  19.016  0.00  0.00    +0.000 A 
ATOM      4  C   UNL     1       1.810   2.298  19.808  0.00  0.00    +0.000 A 
ATOM      5  C   UNL     1       0.971   2.974  20.700  0.00  0.00    +0.000 A 
ATOM      6  C   UNL     1       0.998   4.375  20.785  0.00  0.00    +0.000 A 
ATOM      7  C   UNL     1       1.870   5.114  19.984  0.00  0.00    +0.000 A 
ATOM      8  C   UNL     1       2.700   4.427  19.107  0.00  0.00    +0.000 A 
ATOM      9  C   UNL     1       3.671   5.036  18.176  0.00  0.00    +0.000 A 
ATOM     10  O   UNL     1       3.819   6.250  18.164  0.00  0.00    +0.000 OA
ENDROOT
BRANCH   1  16
ATOM     11  C   UNL     1       6.651   4.569  16.732  0.00  0.00    +0.000 A 
ATOM     12  C   UNL     1       7.590   4.768  15.702  0.00  0.00    +0.000 A 
ATOM     13  C   UNL     1       7.208   4.774  14.364  0.00  0.00    +0.000 A 
ATOM     14  C   UNL     1       5.884   4.539  14.031  0.00  0.00    +0.000 A 
ATOM     15  C   UNL     1       4.943   4.293  15.035  0.00  0.00    +0.000 A 
ATOM     16  C   UNL     1       5.295   4.297  16.400  0.00  0.00    +0.000 A 
BRANCH  11  17
ATOM     17  N   UNL     1       7.179   4.373  18.028  0.00  0.00    +0.000 N 
ATOM     18  H   UNL     1       6.516   3.972  18.682  0.00  0.00    +0.000 HD
ATOM     19  H   UNL     1       8.055   3.856  18.002  0.00  0.00    +0.000 HD
ENDBRANCH  11  17
ENDBRANCH   1  16
TORSDOF 2
ENDMDL
MODEL 5
REMARK VINA RESULT:      -6.8      2.365      2.563
REMARK  Name = 
REMARK  2 active torsions:
REMARK  status: ('A' for Active; 'I' for Inactive)
REMARK    1  A    between atoms: N_1  and  C_2
REMARK    2  A    between atoms: C_7  and  N_8
REMARK                            x       y       z     vdW  Elec       q    Type
REMARK                         _______ _______ _______ _____ _____    ______ ____
ROOT
ATOM      1  N   UNL     1       4.067   4.725  18.542  0.00  0.00    +0.000 N 
ATOM      2  S   UNL     1       4.014   6.004  17.375  0.00  0.00    +0.000 S 
ATOM      3  C   UNL     1       5.668   6.475  17.735  0.00  0.00    +0.000 A 
ATOM      4  C   UNL     1       6.412   7.472  17.126  0.00  0.00    +0.000 A 
ATOM      5  C   UNL     1       7.727   7.680  17.554  0.00  0.00    +0.000 A 
ATOM      6  C   UNL     1       8.281   6.892  18.574  0.00  0.00    +0.000 A 
ATOM      7  C   UNL     1       7.522   5.890  19.183  0.00  0.00    +0.000 A 
ATOM      8  C   UNL     1       6.216   5.700  18.750  0.00  0.00    +0.000 A 
ATOM      9  C   UNL     1       5.272   4.686  19.262  0.00  0.00    +0.000 A 
ATOM     10  O   UNL     1       5.614   3.946  20.174  0.00  0.00    +0.000 OA
ENDROOT
BRANCH   1  16
ATOM     11  C   UNL     1       2.806   2.565  18.310  0.00  0.00    +0.000 A 
ATOM     12  C   UNL     1       1.668   1.805  18.641  0.00  0.00    +0.000 A 
ATOM     13  C   UNL     1       0.622   2.349  19.380  0.00  0.00    +0.000 A 
ATOM     14  C   UNL     1       0.717   3.653  19.840  0.00  0.00    +0.000 A 
ATOM     15  C   UNL     1       1.859   4.411  19.563  0.00  0.00    +0.000 A 
ATOM     16  C   UNL     1       2.927   3.894  18.802  0.00  0.00    +0.000 A 
BRANCH  11  17
ATOM     17  N   UNL     1       3.888   1.854  17.744  0.00  0.00    +0.000 N 
ATOM     18  H   UNL     1       4.784   2.313  17.863  0.00  0.00    +0.000 HD
ATOM     19  H   UNL     1       3.907   0.886  18.058  0.00  0.00    +0.000 HD
ENDBRANCH  11  17
ENDBRANCH   1  16
TORSDOF 2
ENDMDL
MODEL 6
REMARK VINA RESULT:      -6.8      1.260      5.847
REMARK  Name = 
REMARK  2 active torsions:
REMARK  status: ('A' for Active; 'I' for Inactive)
REMARK    1  A    between atoms: N_1  and  C_2
REMARK    2  A    between atoms: C_7  and  N_8
REMARK                            x       y       z     vdW  Elec       q    Type
REMARK                         _______ _______ _______ _____ _____    ______ ____
ROOT
ATOM      1  N   UNL     1       4.189   4.037  17.737  0.00  0.00    +0.000 N 
ATOM      2  S   UNL     1       2.494   4.031  17.382  0.00  0.00    +0.000 S 
ATOM      3  C   UNL     1       2.100   3.496  19.008  0.00  0.00    +0.000 A 
ATOM      4  C   UNL     1       0.840   3.292  19.547  0.00  0.00    +0.000 A 
ATOM      5  C   UNL     1       0.741   2.875  20.878  0.00  0.00    +0.000 A 
ATOM      6  C   UNL     1       1.895   2.672  21.651  0.00  0.00    +0.000 A 
ATOM      7  C   UNL     1       3.160   2.878  21.099  0.00  0.00    +0.000 A 
ATOM      8  C   UNL     1       3.241   3.288  19.774  0.00  0.00    +0.000 A 
ATOM      9  C   UNL     1       4.484   3.568  19.028  0.00  0.00    +0.000 A 
ATOM     10  O   UNL     1       5.567   3.406  19.572  0.00  0.00    +0.000 OA
ENDROOT
BRANCH   1  16
ATOM     11  C   UNL     1       6.084   5.451  16.888  0.00  0.00    +0.000 A 
ATOM     12  C   UNL     1       7.035   5.693  15.878  0.00  0.00    +0.000 A 
ATOM     13  C   UNL     1       7.053   4.946  14.704  0.00  0.00    +0.000 A 
ATOM     14  C   UNL     1       6.144   3.912  14.540  0.00  0.00    +0.000 A 
ATOM     15  C   UNL     1       5.221   3.624  15.550  0.00  0.00    +0.000 A 
ATOM     16  C   UNL     1       5.167   4.374  16.742  0.00  0.00    +0.000 A 
BRANCH  11  17
ATOM     17  N   UNL     1       6.292   6.123  18.114  0.00  0.00    +0.000 N 
ATOM     18  H   UNL     1       6.165   5.533  18.929  0.00  0.00    +0.000 HD
ATOM     19  H   UNL     1       7.185   6.611  18.128  0.00  0.00    +0.000 HD
ENDBRANCH  11  17
ENDBRANCH   1  16
TORSDOF 2
ENDMDL
MODEL 7
REMARK VINA RESULT:      -6.8      2.444      2.812
REMARK  Name = 
REMARK  2 active torsions:
REMARK  status: ('A' for Active; 'I' for Inactive)
REMARK    1  A    between atoms: N_1  and  C_2
REMARK    2  A    between atoms: C_7  and  N_8
REMARK                            x       y       z     vdW  Elec       q    Type
REMARK                         _______ _______ _______ _____ _____    ______ ____
ROOT
ATOM      1  N   UNL     1       4.003   4.903  18.642  0.00  0.00    +0.000 N 
ATOM      2  S   UNL     1       3.928   6.248  17.553  0.00  0.00    +0.000 S 
ATOM      3  C   UNL     1       5.625   6.621  17.809  0.00  0.00    +0.000 A 
ATOM      4  C   UNL     1       6.371   7.616  17.200  0.00  0.00    +0.000 A 
ATOM      5  C   UNL     1       7.723   7.739  17.535  0.00  0.00    +0.000 A 
ATOM      6  C   UNL     1       8.310   6.869  18.467  0.00  0.00    +0.000 A 
ATOM      7  C   UNL     1       7.550   5.870  19.077  0.00  0.00    +0.000 A 
ATOM      8  C   UNL     1       6.207   5.765  18.736  0.00  0.00    +0.000 A 
ATOM      9  C   UNL     1       5.254   4.768  19.264  0.00  0.00    +0.000 A 
ATOM     10  O   UNL     1       5.625   3.962  20.106  0.00  0.00    +0.000 OA
ENDROOT
BRANCH   1  16
ATOM     11  C   UNL     1       2.020   4.344  20.079  0.00  0.00    +0.000 A 
ATOM     12  C   UNL     1       0.882   3.541  20.284  0.00  0.00    +0.000 A 
ATOM     13  C   UNL     1       0.582   2.478  19.439  0.00  0.00    +0.000 A 
ATOM     14  C   UNL     1       1.396   2.225  18.345  0.00  0.00    +0.000 A 
ATOM     15  C   UNL     1       2.506   3.038  18.097  0.00  0.00    +0.000 A 
ATOM     16  C   UNL     1       2.845   4.112  18.944  0.00  0.00    +0.000 A 
BRANCH  11  17
ATOM     17  N   UNL     1       2.108   5.514  20.868  0.00  0.00    +0.000 N 
ATOM     18  H   UNL     1       2.067   5.336  21.866  0.00  0.00    +0.000 HD
ATOM     19  H   UNL     1       2.914   6.079  20.611  0.00  0.00    +0.000 HD
ENDBRANCH  11  17
ENDBRANCH   1  16
TORSDOF 2
ENDMDL
MODEL 8
REMARK VINA RESULT:      -6.8      2.502      5.861
REMARK  Name = 
REMARK  2 active torsions:
REMARK  status: ('A' for Active; 'I' for Inactive)
REMARK    1  A    between atoms: N_1  and  C_2
REMARK    2  A    between atoms: C_7  and  N_8
REMARK                            x       y       z     vdW  Elec       q    Type
REMARK                         _______ _______ _______ _____ _____    ______ ____
ROOT
ATOM      1  N   UNL     1       4.442   5.035  18.699  0.00  0.00    +0.000 N 
ATOM      2  S   UNL     1       3.290   5.575  19.874  0.00  0.00    +0.000 S 
ATOM      3  C   UNL     1       2.218   4.228  19.521  0.00  0.00    +0.000 A 
ATOM      4  C   UNL     1       1.016   3.923  20.138  0.00  0.00    +0.000 A 
ATOM      5  C   UNL     1       0.316   2.789  19.715  0.00  0.00    +0.000 A 
ATOM      6  C   UNL     1       0.825   1.976  18.691  0.00  0.00    +0.000 A 
ATOM      7  C   UNL     1       2.036   2.292  18.074  0.00  0.00    +0.000 A 
ATOM      8  C   UNL     1       2.717   3.425  18.503  0.00  0.00    +0.000 A 
ATOM      9  C   UNL     1       4.011   3.908  17.981  0.00  0.00    +0.000 A 
ATOM     10  O   UNL     1       4.557   3.309  17.065  0.00  0.00    +0.000 OA
ENDROOT
BRANCH   1  16
ATOM     11  C   UNL     1       5.771   6.687  17.351  0.00  0.00    +0.000 A 
ATOM     12  C   UNL     1       6.977   7.393  17.178  0.00  0.00    +0.000 A 
ATOM     13  C   UNL     1       8.077   7.161  17.998  0.00  0.00    +0.000 A 
ATOM     14  C   UNL     1       7.974   6.248  19.035  0.00  0.00    +0.000 A 
ATOM     15  C   UNL     1       6.771   5.570  19.254  0.00  0.00    +0.000 A 
ATOM     16  C   UNL     1       5.646   5.770  18.430  0.00  0.00    +0.000 A 
BRANCH  11  17
ATOM     17  N   UNL     1       4.664   7.151  16.603  0.00  0.00    +0.000 N 
ATOM     18  H   UNL     1       4.769   8.103  16.269  0.00  0.00    +0.000 HD
ATOM     19  H   UNL     1       4.419   6.506  15.856  0.00  0.00    +0.000 HD
ENDBRANCH  11  17
ENDBRANCH   1  16
TORSDOF 2
ENDMDL
MODEL 9
REMARK VINA RESULT:      -6.7      1.702      2.513
REMARK  Name = 
REMARK  2 active torsions:
REMARK  status: ('A' for Active; 'I' for Inactive)
REMARK    1  A    between atoms: N_1  and  C_2
REMARK    2  A    between atoms: C_7  and  N_8
REMARK                            x       y       z     vdW  Elec       q    Type
REMARK                         _______ _______ _______ _____ _____    ______ ____
ROOT
ATOM      1  N   UNL     1       4.406   4.202  18.333  0.00  0.00    +0.000 N 
ATOM      2  S   UNL     1       6.015   4.830  18.461  0.00  0.00    +0.000 S 
ATOM      3  C   UNL     1       6.262   4.700  16.726  0.00  0.00    +0.000 A 
ATOM      4  C   UNL     1       7.378   5.084  16.002  0.00  0.00    +0.000 A 
ATOM      5  C   UNL     1       7.369   4.907  14.615  0.00  0.00    +0.000 A 
ATOM      6  C   UNL     1       6.250   4.357  13.972  0.00  0.00    +0.000 A 
ATOM      7  C   UNL     1       5.130   3.971  14.710  0.00  0.00    +0.000 A 
ATOM      8  C   UNL     1       5.157   4.149  16.088  0.00  0.00    +0.000 A 
ATOM      9  C   UNL     1       4.067   3.816  17.026  0.00  0.00    +0.000 A 
ATOM     10  O   UNL     1       3.040   3.303  16.604  0.00  0.00    +0.000 OA
ENDROOT
BRANCH   1  16
ATOM     11  C   UNL     1       2.776   5.017  20.062  0.00  0.00    +0.000 A 
ATOM     12  C   UNL     1       1.971   4.722  21.179  0.00  0.00    +0.000 A 
ATOM     13  C   UNL     1       2.001   3.469  21.783  0.00  0.00    +0.000 A 
ATOM     14  C   UNL     1       2.807   2.474  21.251  0.00  0.00    +0.000 A 
ATOM     15  C   UNL     1       3.579   2.732  20.115  0.00  0.00    +0.000 A 
ATOM     16  C   UNL     1       3.583   3.995  19.491  0.00  0.00    +0.000 A 
BRANCH  11  17
ATOM     17  N   UNL     1       2.509   6.242  19.408  0.00  0.00    +0.000 N 
ATOM     18  H   UNL     1       2.639   7.056  19.999  0.00  0.00    +0.000 HD
ATOM     19  H   UNL     1       3.019   6.318  18.531  0.00  0.00    +0.000 HD
ENDBRANCH  11  17
ENDBRANCH   1  16
TORSDOF 2
ENDMDL
