MODEL 1
REMARK VINA RESULT:      -7.5      0.000      0.000
REMARK  Name = 
REMARK  10 active torsions:
REMARK  status: ('A' for Active; 'I' for Inactive)
REMARK    1  A    between atoms: C_1  and  N_2
REMARK    2  A    between atoms: N_2  and  C_3
REMARK    3  A    between atoms: C_3  and  C_4
REMARK    4  A    between atoms: C_10  and  C_12
REMARK    5  A    between atoms: C_12  and  O_13
REMARK    6  A    between atoms: O_13  and  C_14
REMARK    7  A    between atoms: C_14  and  C_16
REMARK    8  A    between atoms: C_16  and  O_17
REMARK    9  A    between atoms: O_17  and  C_18
REMARK   10  A    between atoms: C_21  and  C_22
REMARK                            x       y       z     vdW  Elec       q    Type
REMARK                         _______ _______ _______ _____ _____    ______ ____
ROOT
ATOM      1  O   UNL     1       7.016   4.950  19.239  0.00  0.00    +0.000 OA
ENDROOT
BRANCH   1   2
ATOM      2  C   UNL     1       7.575   4.794  18.005  0.00  0.00    +0.000 C 
ATOM      3  O   UNL     1       8.510   4.049  17.743  0.00  0.00    +0.000 OA
BRANCH   2   4
ATOM      4  C   UNL     1       6.950   5.755  17.012  0.00  0.00    +0.000 C 
BRANCH   4   5
ATOM      5  O   UNL     1       7.674   5.626  15.787  0.00  0.00    +0.000 OA
BRANCH   5   6
ATOM      6  C   UNL     1       7.013   5.046  14.741  0.00  0.00    +0.000 A 
ATOM      7  C   UNL     1       5.701   4.649  15.012  0.00  0.00    +0.000 A 
ATOM      8  C   UNL     1       4.924   4.034  14.026  0.00  0.00    +0.000 A 
ATOM      9  C   UNL     1       5.447   3.834  12.746  0.00  0.00    +0.000 A 
ATOM     10  C   UNL     1       6.748   4.263  12.463  0.00  0.00    +0.000 A 
ATOM     11  C   UNL     1       7.530   4.868  13.458  0.00  0.00    +0.000 A 
BRANCH   9  12
ATOM     12  C   UNL     1       4.655   3.197  11.731  0.00  0.00    +0.000 C 
ATOM     13  N   UNL     1       4.021   2.674  10.914  0.00  0.00    +0.000 NA
ENDBRANCH   9  12
ENDBRANCH   5   6
ENDBRANCH   4   5
ENDBRANCH   2   4
ENDBRANCH   1   2
BRANCH   1  14
ATOM     14  C   UNL     1       5.603   5.089  19.223  0.00  0.00    +0.000 C 
BRANCH  14  17
ATOM     15  C   UNL     1       2.762   2.640  18.406  0.00  0.00    +0.000 C 
ATOM     16  N   UNL     1       3.577   3.844  18.384  0.00  0.00    +0.000 N 
ATOM     17  C   UNL     1       4.720   3.832  19.176  0.00  0.00    +0.000 C 
ATOM     18  O   UNL     1       4.992   2.864  19.891  0.00  0.00    +0.000 OA
BRANCH  16  19
ATOM     19  C   UNL     1       3.054   5.022  17.688  0.00  0.00    +0.000 C 
BRANCH  19  20
ATOM     20  C   UNL     1       2.557   6.124  18.600  0.00  0.00    +0.000 A 
ATOM     21  C   UNL     1       2.454   7.455  18.175  0.00  0.00    +0.000 A 
ATOM     22  C   UNL     1       1.945   8.441  19.023  0.00  0.00    +0.000 A 
ATOM     23  C   UNL     1       1.520   8.111  20.306  0.00  0.00    +0.000 A 
ATOM     24  C   UNL     1       1.602   6.791  20.742  0.00  0.00    +0.000 A 
ATOM     25  C   UNL     1       2.113   5.803  19.895  0.00  0.00    +0.000 A 
ENDBRANCH  19  20
ENDBRANCH  16  19
ENDBRANCH  14  17
ENDBRANCH   1  14
TORSDOF 9
ENDMDL
MODEL 2
REMARK VINA RESULT:      -7.4      5.426      7.454
REMARK  Name = 
REMARK  10 active torsions:
REMARK  status: ('A' for Active; 'I' for Inactive)
REMARK    1  A    between atoms: C_1  and  N_2
REMARK    2  A    between atoms: N_2  and  C_3
REMARK    3  A    between atoms: C_3  and  C_4
REMARK    4  A    between atoms: C_10  and  C_12
REMARK    5  A    between atoms: C_12  and  O_13
REMARK    6  A    between atoms: O_13  and  C_14
REMARK    7  A    between atoms: C_14  and  C_16
REMARK    8  A    between atoms: C_16  and  O_17
REMARK    9  A    between atoms: O_17  and  C_18
REMARK   10  A    between atoms: C_21  and  C_22
REMARK                            x       y       z     vdW  Elec       q    Type
REMARK                         _______ _______ _______ _____ _____    ______ ____
ROOT
ATOM      1  O   UNL     1       7.070   7.390  16.816  0.00  0.00    +0.000 OA
ENDROOT
BRANCH   1   2
ATOM      2  C   UNL     1       7.845   7.694  17.897  0.00  0.00    +0.000 C 
ATOM      3  O   UNL     1       8.172   6.906  18.774  0.00  0.00    +0.000 OA
BRANCH   2   4
ATOM      4  C   UNL     1       8.161   9.177  17.926  0.00  0.00    +0.000 C 
BRANCH   4   5
ATOM      5  O   UNL     1       8.953   9.416  19.090  0.00  0.00    +0.000 OA
BRANCH   5   6
ATOM      6  C   UNL     1       9.594  10.622  19.161  0.00  0.00    +0.000 A 
ATOM      7  C   UNL     1       9.771  11.127  20.452  0.00  0.00    +0.000 A 
ATOM      8  C   UNL     1      10.404  12.357  20.656  0.00  0.00    +0.000 A 
ATOM      9  C   UNL     1      10.892  13.082  19.566  0.00  0.00    +0.000 A 
ATOM     10  C   UNL     1      10.747  12.560  18.276  0.00  0.00    +0.000 A 
ATOM     11  C   UNL     1      10.100  11.333  18.073  0.00  0.00    +0.000 A 
BRANCH   9  12
ATOM     12  C   UNL     1      11.537  14.348  19.769  0.00  0.00    +0.000 C 
ATOM     13  N   UNL     1      12.067  15.368  19.926  0.00  0.00    +0.000 NA
ENDBRANCH   9  12
ENDBRANCH   5   6
ENDBRANCH   4   5
ENDBRANCH   2   4
ENDBRANCH   1   2
BRANCH   1  14
ATOM     14  C   UNL     1       5.759   6.958  17.145  0.00  0.00    +0.000 C 
BRANCH  14  17
ATOM     15  C   UNL     1       4.355   3.402  16.784  0.00  0.00    +0.000 C 
ATOM     16  N   UNL     1       4.821   4.632  17.407  0.00  0.00    +0.000 N 
ATOM     17  C   UNL     1       5.222   5.648  16.547  0.00  0.00    +0.000 C 
ATOM     18  O   UNL     1       5.223   5.487  15.323  0.00  0.00    +0.000 OA
BRANCH  16  19
ATOM     19  C   UNL     1       5.000   4.646  18.861  0.00  0.00    +0.000 C 
BRANCH  19  20
ATOM     20  C   UNL     1       3.750   4.325  19.653  0.00  0.00    +0.000 A 
ATOM     21  C   UNL     1       2.722   5.259  19.837  0.00  0.00    +0.000 A 
ATOM     22  C   UNL     1       1.559   4.918  20.531  0.00  0.00    +0.000 A 
ATOM     23  C   UNL     1       1.399   3.633  21.041  0.00  0.00    +0.000 A 
ATOM     24  C   UNL     1       2.403   2.687  20.857  0.00  0.00    +0.000 A 
ATOM     25  C   UNL     1       3.569   3.028  20.165  0.00  0.00    +0.000 A 
ENDBRANCH  19  20
ENDBRANCH  16  19
ENDBRANCH  14  17
ENDBRANCH   1  14
TORSDOF 9
ENDMDL
MODEL 3
REMARK VINA RESULT:      -7.3      4.790      6.970
REMARK  Name = 
REMARK  10 active torsions:
REMARK  status: ('A' for Active; 'I' for Inactive)
REMARK    1  A    between atoms: C_1  and  N_2
REMARK    2  A    between atoms: N_2  and  C_3
REMARK    3  A    between atoms: C_3  and  C_4
REMARK    4  A    between atoms: C_10  and  C_12
REMARK    5  A    between atoms: C_12  and  O_13
REMARK    6  A    between atoms: O_13  and  C_14
REMARK    7  A    between atoms: C_14  and  C_16
REMARK    8  A    between atoms: C_16  and  O_17
REMARK    9  A    between atoms: O_17  and  C_18
REMARK   10  A    between atoms: C_21  and  C_22
REMARK                            x       y       z     vdW  Elec       q    Type
REMARK                         _______ _______ _______ _____ _____    ______ ____
ROOT
ATOM      1  O   UNL     1       7.549   5.876  17.026  0.00  0.00    +0.000 OA
ENDROOT
BRANCH   1   2
ATOM      2  C   UNL     1       7.732   6.599  18.168  0.00  0.00    +0.000 C 
ATOM      3  O   UNL     1       7.672   6.150  19.305  0.00  0.00    +0.000 OA
BRANCH   2   4
ATOM      4  C   UNL     1       7.914   8.069  17.843  0.00  0.00    +0.000 C 
BRANCH   4   5
ATOM      5  O   UNL     1       8.850   8.596  18.785  0.00  0.00    +0.000 OA
BRANCH   5   6
ATOM      6  C   UNL     1       8.975   9.956  18.832  0.00  0.00    +0.000 A 
ATOM      7  C   UNL     1       9.412  10.471  20.056  0.00  0.00    +0.000 A 
ATOM      8  C   UNL     1       9.570  11.849  20.235  0.00  0.00    +0.000 A 
ATOM      9  C   UNL     1       9.316  12.725  19.176  0.00  0.00    +0.000 A 
ATOM     10  C   UNL     1       8.913  12.208  17.940  0.00  0.00    +0.000 A 
ATOM     11  C   UNL     1       8.743  10.827  17.768  0.00  0.00    +0.000 A 
BRANCH   9  12
ATOM     12  C   UNL     1       9.472  14.141  19.356  0.00  0.00    +0.000 C 
ATOM     13  N   UNL     1       9.594  15.286  19.490  0.00  0.00    +0.000 NA
ENDBRANCH   9  12
ENDBRANCH   5   6
ENDBRANCH   4   5
ENDBRANCH   2   4
ENDBRANCH   1   2
BRANCH   1  14
ATOM     14  C   UNL     1       6.233   5.367  16.865  0.00  0.00    +0.000 C 
BRANCH  14  17
ATOM     15  C   UNL     1       3.070   7.379  17.691  0.00  0.00    +0.000 C 
ATOM     16  N   UNL     1       4.191   6.466  17.853  0.00  0.00    +0.000 N 
ATOM     17  C   UNL     1       5.052   6.344  16.768  0.00  0.00    +0.000 C 
ATOM     18  O   UNL     1       4.839   6.946  15.712  0.00  0.00    +0.000 OA
BRANCH  16  19
ATOM     19  C   UNL     1       4.231   5.625  19.052  0.00  0.00    +0.000 C 
BRANCH  19  20
ATOM     20  C   UNL     1       3.038   4.706  19.216  0.00  0.00    +0.000 A 
ATOM     21  C   UNL     1       2.180   4.789  20.321  0.00  0.00    +0.000 A 
ATOM     22  C   UNL     1       1.059   3.961  20.421  0.00  0.00    +0.000 A 
ATOM     23  C   UNL     1       0.771   3.046  19.413  0.00  0.00    +0.000 A 
ATOM     24  C   UNL     1       1.604   2.959  18.301  0.00  0.00    +0.000 A 
ATOM     25  C   UNL     1       2.727   3.785  18.201  0.00  0.00    +0.000 A 
ENDBRANCH  19  20
ENDBRANCH  16  19
ENDBRANCH  14  17
ENDBRANCH   1  14
TORSDOF 9
ENDMDL
MODEL 4
REMARK VINA RESULT:      -7.0      0.771      1.592
REMARK  Name = 
REMARK  10 active torsions:
REMARK  status: ('A' for Active; 'I' for Inactive)
REMARK    1  A    between atoms: C_1  and  N_2
REMARK    2  A    between atoms: N_2  and  C_3
REMARK    3  A    between atoms: C_3  and  C_4
REMARK    4  A    between atoms: C_10  and  C_12
REMARK    5  A    between atoms: C_12  and  O_13
REMARK    6  A    between atoms: O_13  and  C_14
REMARK    7  A    between atoms: C_14  and  C_16
REMARK    8  A    between atoms: C_16  and  O_17
REMARK    9  A    between atoms: O_17  and  C_18
REMARK   10  A    between atoms: C_21  and  C_22
REMARK                            x       y       z     vdW  Elec       q    Type
REMARK                         _______ _______ _______ _____ _____    ______ ____
ROOT
ATOM      1  O   UNL     1       6.054   4.759  18.840  0.00  0.00    +0.000 OA
ENDROOT
BRANCH   1   2
ATOM      2  C   UNL     1       7.201   4.927  18.121  0.00  0.00    +0.000 C 
ATOM      3  O   UNL     1       8.257   4.347  18.332  0.00  0.00    +0.000 OA
BRANCH   2   4
ATOM      4  C   UNL     1       7.023   6.019  17.083  0.00  0.00    +0.000 C 
BRANCH   4   5
ATOM      5  O   UNL     1       7.671   5.575  15.890  0.00  0.00    +0.000 OA
BRANCH   5   6
ATOM      6  C   UNL     1       6.878   5.002  14.936  0.00  0.00    +0.000 A 
ATOM      7  C   UNL     1       7.481   4.827  13.687  0.00  0.00    +0.000 A 
ATOM      8  C   UNL     1       6.771   4.260  12.625  0.00  0.00    +0.000 A 
ATOM      9  C   UNL     1       5.452   3.837  12.812  0.00  0.00    +0.000 A 
ATOM     10  C   UNL     1       4.859   3.978  14.071  0.00  0.00    +0.000 A 
ATOM     11  C   UNL     1       5.571   4.559  15.131  0.00  0.00    +0.000 A 
BRANCH   9  12
ATOM     12  C   UNL     1       4.716   3.259  11.723  0.00  0.00    +0.000 C 
ATOM     13  N   UNL     1       4.115   2.787  10.851  0.00  0.00    +0.000 NA
ENDBRANCH   9  12
ENDBRANCH   5   6
ENDBRANCH   4   5
ENDBRANCH   2   4
ENDBRANCH   1   2
BRANCH   1  14
ATOM     14  C   UNL     1       5.255   3.667  18.411  0.00  0.00    +0.000 C 
BRANCH  14  17
ATOM     15  C   UNL     1       2.265   2.272  20.375  0.00  0.00    +0.000 C 
ATOM     16  N   UNL     1       3.018   2.986  19.355  0.00  0.00    +0.000 N 
ATOM     17  C   UNL     1       4.404   2.903  19.438  0.00  0.00    +0.000 C 
ATOM     18  O   UNL     1       4.954   2.292  20.358  0.00  0.00    +0.000 OA
BRANCH  16  19
ATOM     19  C   UNL     1       2.285   3.869  18.445  0.00  0.00    +0.000 C 
BRANCH  19  20
ATOM     20  C   UNL     1       2.135   5.295  18.934  0.00  0.00    +0.000 A 
ATOM     21  C   UNL     1       1.730   5.596  20.241  0.00  0.00    +0.000 A 
ATOM     22  C   UNL     1       1.648   6.920  20.680  0.00  0.00    +0.000 A 
ATOM     23  C   UNL     1       1.981   7.963  19.822  0.00  0.00    +0.000 A 
ATOM     24  C   UNL     1       2.399   7.684  18.523  0.00  0.00    +0.000 A 
ATOM     25  C   UNL     1       2.479   6.359  18.083  0.00  0.00    +0.000 A 
ENDBRANCH  19  20
ENDBRANCH  16  19
ENDBRANCH  14  17
ENDBRANCH   1  14
TORSDOF 9
ENDMDL
MODEL 5
REMARK VINA RESULT:      -7.0      1.585      2.914
REMARK  Name = 
REMARK  10 active torsions:
REMARK  status: ('A' for Active; 'I' for Inactive)
REMARK    1  A    between atoms: C_1  and  N_2
REMARK    2  A    between atoms: N_2  and  C_3
REMARK    3  A    between atoms: C_3  and  C_4
REMARK    4  A    between atoms: C_10  and  C_12
REMARK    5  A    between atoms: C_12  and  O_13
REMARK    6  A    between atoms: O_13  and  C_14
REMARK    7  A    between atoms: C_14  and  C_16
REMARK    8  A    between atoms: C_16  and  O_17
REMARK    9  A    between atoms: O_17  and  C_18
REMARK   10  A    between atoms: C_21  and  C_22
REMARK                            x       y       z     vdW  Elec       q    Type
REMARK                         _______ _______ _______ _____ _____    ______ ____
ROOT
ATOM      1  O   UNL     1       6.693   6.383  18.546  0.00  0.00    +0.000 OA
ENDROOT
BRANCH   1   2
ATOM      2  C   UNL     1       7.637   5.416  18.734  0.00  0.00    +0.000 C 
ATOM      3  O   UNL     1       8.465   5.404  19.634  0.00  0.00    +0.000 OA
BRANCH   2   4
ATOM      4  C   UNL     1       7.594   4.405  17.604  0.00  0.00    +0.000 C 
BRANCH   4   5
ATOM      5  O   UNL     1       7.667   5.138  16.380  0.00  0.00    +0.000 OA
BRANCH   5   6
ATOM      6  C   UNL     1       6.908   4.678  15.341  0.00  0.00    +0.000 A 
ATOM      7  C   UNL     1       7.462   4.861  14.071  0.00  0.00    +0.000 A 
ATOM      8  C   UNL     1       6.777   4.442  12.927  0.00  0.00    +0.000 A 
ATOM      9  C   UNL     1       5.538   3.809  13.046  0.00  0.00    +0.000 A 
ATOM     10  C   UNL     1       4.998   3.592  14.318  0.00  0.00    +0.000 A 
ATOM     11  C   UNL     1       5.682   4.026  15.464  0.00  0.00    +0.000 A 
BRANCH   9  12
ATOM     12  C   UNL     1       4.827   3.381  11.873  0.00  0.00    +0.000 C 
ATOM     13  N   UNL     1       4.257   3.026  10.929  0.00  0.00    +0.000 NA
ENDBRANCH   9  12
ENDBRANCH   5   6
ENDBRANCH   4   5
ENDBRANCH   2   4
ENDBRANCH   1   2
BRANCH   1  14
ATOM     14  C   UNL     1       5.371   5.883  18.404  0.00  0.00    +0.000 C 
BRANCH  14  17
ATOM     15  C   UNL     1       2.126   7.836  17.773  0.00  0.00    +0.000 C 
ATOM     16  N   UNL     1       3.123   7.025  18.454  0.00  0.00    +0.000 N 
ATOM     17  C   UNL     1       4.295   6.765  17.752  0.00  0.00    +0.000 C 
ATOM     18  O   UNL     1       4.450   7.167  16.595  0.00  0.00    +0.000 OA
BRANCH  16  19
ATOM     19  C   UNL     1       2.757   6.403  19.729  0.00  0.00    +0.000 C 
BRANCH  19  20
ATOM     20  C   UNL     1       2.043   5.073  19.599  0.00  0.00    +0.000 A 
ATOM     21  C   UNL     1       1.817   4.467  18.356  0.00  0.00    +0.000 A 
ATOM     22  C   UNL     1       1.199   3.216  18.270  0.00  0.00    +0.000 A 
ATOM     23  C   UNL     1       0.809   2.548  19.426  0.00  0.00    +0.000 A 
ATOM     24  C   UNL     1       1.037   3.128  20.671  0.00  0.00    +0.000 A 
ATOM     25  C   UNL     1       1.653   4.380  20.758  0.00  0.00    +0.000 A 
ENDBRANCH  19  20
ENDBRANCH  16  19
ENDBRANCH  14  17
ENDBRANCH   1  14
TORSDOF 9
ENDMDL
MODEL 6
REMARK VINA RESULT:      -7.0      5.224      7.458
REMARK  Name = 
REMARK  10 active torsions:
REMARK  status: ('A' for Active; 'I' for Inactive)
REMARK    1  A    between atoms: C_1  and  N_2
REMARK    2  A    between atoms: N_2  and  C_3
REMARK    3  A    between atoms: C_3  and  C_4
REMARK    4  A    between atoms: C_10  and  C_12
REMARK    5  A    between atoms: C_12  and  O_13
REMARK    6  A    between atoms: O_13  and  C_14
REMARK    7  A    between atoms: C_14  and  C_16
REMARK    8  A    between atoms: C_16  and  O_17
REMARK    9  A    between atoms: O_17  and  C_18
REMARK   10  A    between atoms: C_21  and  C_22
REMARK                            x       y       z     vdW  Elec       q    Type
REMARK                         _______ _______ _______ _____ _____    ______ ____
ROOT
ATOM      1  O   UNL     1       7.151   7.725  17.138  0.00  0.00    +0.000 OA
ENDROOT
BRANCH   1   2
ATOM      2  C   UNL     1       7.893   7.385  18.231  0.00  0.00    +0.000 C 
ATOM      3  O   UNL     1       7.825   6.317  18.825  0.00  0.00    +0.000 OA
BRANCH   2   4
ATOM      4  C   UNL     1       8.744   8.556  18.682  0.00  0.00    +0.000 C 
BRANCH   4   5
ATOM      5  O   UNL     1       8.237   9.721  18.028  0.00  0.00    +0.000 OA
BRANCH   5   6
ATOM      6  C   UNL     1       8.883  10.899  18.282  0.00  0.00    +0.000 A 
ATOM      7  C   UNL     1       9.871  10.835  19.268  0.00  0.00    +0.000 A 
ATOM      8  C   UNL     1      10.596  11.975  19.627  0.00  0.00    +0.000 A 
ATOM      9  C   UNL     1      10.354  13.190  18.979  0.00  0.00    +0.000 A 
ATOM     10  C   UNL     1       9.390  13.247  17.967  0.00  0.00    +0.000 A 
ATOM     11  C   UNL     1       8.656  12.104  17.619  0.00  0.00    +0.000 A 
BRANCH   9  12
ATOM     12  C   UNL     1      11.092  14.366  19.347  0.00  0.00    +0.000 C 
ATOM     13  N   UNL     1      11.696  15.309  19.648  0.00  0.00    +0.000 NA
ENDBRANCH   9  12
ENDBRANCH   5   6
ENDBRANCH   4   5
ENDBRANCH   2   4
ENDBRANCH   1   2
BRANCH   1  14
ATOM     14  C   UNL     1       5.974   6.949  16.970  0.00  0.00    +0.000 C 
BRANCH  14  17
ATOM     15  C   UNL     1       5.634   3.416  15.508  0.00  0.00    +0.000 C 
ATOM     16  N   UNL     1       5.568   4.514  16.461  0.00  0.00    +0.000 N 
ATOM     17  C   UNL     1       5.985   5.758  16.000  0.00  0.00    +0.000 C 
ATOM     18  O   UNL     1       6.429   5.901  14.858  0.00  0.00    +0.000 OA
BRANCH  16  19
ATOM     19  C   UNL     1       5.248   4.202  17.855  0.00  0.00    +0.000 C 
BRANCH  19  20
ATOM     20  C   UNL     1       3.840   3.690  18.079  0.00  0.00    +0.000 A 
ATOM     21  C   UNL     1       3.583   2.460  18.698  0.00  0.00    +0.000 A 
ATOM     22  C   UNL     1       2.273   2.036  18.935  0.00  0.00    +0.000 A 
ATOM     23  C   UNL     1       1.199   2.841  18.568  0.00  0.00    +0.000 A 
ATOM     24  C   UNL     1       1.434   4.073  17.963  0.00  0.00    +0.000 A 
ATOM     25  C   UNL     1       2.745   4.497  17.723  0.00  0.00    +0.000 A 
ENDBRANCH  19  20
ENDBRANCH  16  19
ENDBRANCH  14  17
ENDBRANCH   1  14
TORSDOF 9
ENDMDL
MODEL 7
REMARK VINA RESULT:      -6.8      3.676      8.556
REMARK  Name = 
REMARK  10 active torsions:
REMARK  status: ('A' for Active; 'I' for Inactive)
REMARK    1  A    between atoms: C_1  and  N_2
REMARK    2  A    between atoms: N_2  and  C_3
REMARK    3  A    between atoms: C_3  and  C_4
REMARK    4  A    between atoms: C_10  and  C_12
REMARK    5  A    between atoms: C_12  and  O_13
REMARK    6  A    between atoms: O_13  and  C_14
REMARK    7  A    between atoms: C_14  and  C_16
REMARK    8  A    between atoms: C_16  and  O_17
REMARK    9  A    between atoms: O_17  and  C_18
REMARK   10  A    between atoms: C_21  and  C_22
REMARK                            x       y       z     vdW  Elec       q    Type
REMARK                         _______ _______ _______ _____ _____    ______ ____
ROOT
ATOM      1  O   UNL     1       2.730   6.083  19.702  0.00  0.00    +0.000 OA
ENDROOT
BRANCH   1   2
ATOM      2  C   UNL     1       2.739   7.135  18.833  0.00  0.00    +0.000 C 
ATOM      3  O   UNL     1       3.491   7.252  17.875  0.00  0.00    +0.000 OA
BRANCH   2   4
ATOM      4  C   UNL     1       1.756   8.200  19.279  0.00  0.00    +0.000 C 
BRANCH   4   5
ATOM      5  O   UNL     1       1.692   8.144  20.705  0.00  0.00    +0.000 OA
BRANCH   5   6
ATOM      6  C   UNL     1       0.851   9.029  21.319  0.00  0.00    +0.000 A 
ATOM      7  C   UNL     1       0.286   9.993  20.478  0.00  0.00    +0.000 A 
ATOM      8  C   UNL     1      -0.583  10.962  20.988  0.00  0.00    +0.000 A 
ATOM      9  C   UNL     1      -0.917  10.959  22.345  0.00  0.00    +0.000 A 
ATOM     10  C   UNL     1      -0.380   9.973  23.180  0.00  0.00    +0.000 A 
ATOM     11  C   UNL     1       0.502   9.010  22.668  0.00  0.00    +0.000 A 
BRANCH   9  12
ATOM     12  C   UNL     1      -1.805  11.955  22.875  0.00  0.00    +0.000 C 
ATOM     13  N   UNL     1      -2.528  12.752  23.307  0.00  0.00    +0.000 NA
ENDBRANCH   9  12
ENDBRANCH   5   6
ENDBRANCH   4   5
ENDBRANCH   2   4
ENDBRANCH   1   2
BRANCH   1  14
ATOM     14  C   UNL     1       1.808   5.058  19.363  0.00  0.00    +0.000 C 
BRANCH  14  17
ATOM     15  C   UNL     1       3.357   1.637  18.563  0.00  0.00    +0.000 C 
ATOM     16  N   UNL     1       3.006   3.044  18.434  0.00  0.00    +0.000 N 
ATOM     17  C   UNL     1       2.242   3.587  19.461  0.00  0.00    +0.000 C 
ATOM     18  O   UNL     1       1.849   2.892  20.402  0.00  0.00    +0.000 OA
BRANCH  16  19
ATOM     19  C   UNL     1       3.320   3.723  17.175  0.00  0.00    +0.000 C 
BRANCH  19  20
ATOM     20  C   UNL     1       4.776   4.108  17.013  0.00  0.00    +0.000 A 
ATOM     21  C   UNL     1       5.581   4.456  18.106  0.00  0.00    +0.000 A 
ATOM     22  C   UNL     1       6.934   4.760  17.932  0.00  0.00    +0.000 A 
ATOM     23  C   UNL     1       7.506   4.708  16.665  0.00  0.00    +0.000 A 
ATOM     24  C   UNL     1       6.725   4.351  15.569  0.00  0.00    +0.000 A 
ATOM     25  C   UNL     1       5.371   4.050  15.741  0.00  0.00    +0.000 A 
ENDBRANCH  19  20
ENDBRANCH  16  19
ENDBRANCH  14  17
ENDBRANCH   1  14
TORSDOF 9
ENDMDL
MODEL 8
REMARK VINA RESULT:      -6.8      1.181      1.702
REMARK  Name = 
REMARK  10 active torsions:
REMARK  status: ('A' for Active; 'I' for Inactive)
REMARK    1  A    between atoms: C_1  and  N_2
REMARK    2  A    between atoms: N_2  and  C_3
REMARK    3  A    between atoms: C_3  and  C_4
REMARK    4  A    between atoms: C_10  and  C_12
REMARK    5  A    between atoms: C_12  and  O_13
REMARK    6  A    between atoms: O_13  and  C_14
REMARK    7  A    between atoms: C_14  and  C_16
REMARK    8  A    between atoms: C_16  and  O_17
REMARK    9  A    between atoms: O_17  and  C_18
REMARK   10  A    between atoms: C_21  and  C_22
REMARK                            x       y       z     vdW  Elec       q    Type
REMARK                         _______ _______ _______ _____ _____    ______ ____
ROOT
ATOM      1  O   UNL     1       5.556   5.276  19.070  0.00  0.00    +0.000 OA
ENDROOT
BRANCH   1   2
ATOM      2  C   UNL     1       6.912   5.302  19.221  0.00  0.00    +0.000 C 
ATOM      3  O   UNL     1       7.501   5.509  20.274  0.00  0.00    +0.000 OA
BRANCH   2   4
ATOM      4  C   UNL     1       7.600   5.146  17.879  0.00  0.00    +0.000 C 
BRANCH   4   5
ATOM      5  O   UNL     1       6.796   5.823  16.912  0.00  0.00    +0.000 OA
BRANCH   5   6
ATOM      6  C   UNL     1       6.587   5.179  15.725  0.00  0.00    +0.000 A 
ATOM      7  C   UNL     1       5.386   4.470  15.635  0.00  0.00    +0.000 A 
ATOM      8  C   UNL     1       5.062   3.760  14.475  0.00  0.00    +0.000 A 
ATOM      9  C   UNL     1       5.929   3.777  13.379  0.00  0.00    +0.000 A 
ATOM     10  C   UNL     1       7.115   4.516  13.455  0.00  0.00    +0.000 A 
ATOM     11  C   UNL     1       7.443   5.216  14.625  0.00  0.00    +0.000 A 
BRANCH   9  12
ATOM     12  C   UNL     1       5.603   3.045  12.188  0.00  0.00    +0.000 C 
ATOM     13  N   UNL     1       5.331   2.450  11.230  0.00  0.00    +0.000 NA
ENDBRANCH   9  12
ENDBRANCH   5   6
ENDBRANCH   4   5
ENDBRANCH   2   4
ENDBRANCH   1   2
BRANCH   1  14
ATOM     14  C   UNL     1       4.972   4.000  19.290  0.00  0.00    +0.000 C 
BRANCH  14  17
ATOM     15  C   UNL     1       1.496   4.436  17.720  0.00  0.00    +0.000 C 
ATOM     16  N   UNL     1       2.863   4.734  18.119  0.00  0.00    +0.000 N 
ATOM     17  C   UNL     1       3.538   3.732  18.808  0.00  0.00    +0.000 C 
ATOM     18  O   UNL     1       2.981   2.670  19.101  0.00  0.00    +0.000 OA
BRANCH  16  19
ATOM     19  C   UNL     1       3.357   6.100  17.932  0.00  0.00    +0.000 C 
BRANCH  19  20
ATOM     20  C   UNL     1       2.531   7.168  18.617  0.00  0.00    +0.000 A 
ATOM     21  C   UNL     1       2.197   7.096  19.976  0.00  0.00    +0.000 A 
ATOM     22  C   UNL     1       1.474   8.121  20.592  0.00  0.00    +0.000 A 
ATOM     23  C   UNL     1       1.086   9.240  19.863  0.00  0.00    +0.000 A 
ATOM     24  C   UNL     1       1.420   9.337  18.515  0.00  0.00    +0.000 A 
ATOM     25  C   UNL     1       2.141   8.310  17.896  0.00  0.00    +0.000 A 
ENDBRANCH  19  20
ENDBRANCH  16  19
ENDBRANCH  14  17
ENDBRANCH   1  14
TORSDOF 9
ENDMDL
MODEL 9
REMARK VINA RESULT:      -6.8      4.664      6.865
REMARK  Name = 
REMARK  10 active torsions:
REMARK  status: ('A' for Active; 'I' for Inactive)
REMARK    1  A    between atoms: C_1  and  N_2
REMARK    2  A    between atoms: N_2  and  C_3
REMARK    3  A    between atoms: C_3  and  C_4
REMARK    4  A    between atoms: C_10  and  C_12
REMARK    5  A    between atoms: C_12  and  O_13
REMARK    6  A    between atoms: O_13  and  C_14
REMARK    7  A    between atoms: C_14  and  C_16
REMARK    8  A    between atoms: C_16  and  O_17
REMARK    9  A    between atoms: O_17  and  C_18
REMARK   10  A    between atoms: C_21  and  C_22
REMARK                            x       y       z     vdW  Elec       q    Type
REMARK                         _______ _______ _______ _____ _____    ______ ____
ROOT
ATOM      1  O   UNL     1       6.498   6.034  18.736  0.00  0.00    +0.000 OA
ENDROOT
BRANCH   1   2
ATOM      2  C   UNL     1       7.410   6.449  17.810  0.00  0.00    +0.000 C 
ATOM      3  O   UNL     1       7.590   5.933  16.716  0.00  0.00    +0.000 OA
BRANCH   2   4
ATOM      4  C   UNL     1       8.254   7.581  18.365  0.00  0.00    +0.000 C 
BRANCH   4   5
ATOM      5  O   UNL     1       7.781   8.790  17.769  0.00  0.00    +0.000 OA
BRANCH   5   6
ATOM      6  C   UNL     1       8.391   9.948  18.163  0.00  0.00    +0.000 A 
ATOM      7  C   UNL     1       9.251   9.826  19.258  0.00  0.00    +0.000 A 
ATOM      8  C   UNL     1       9.927  10.941  19.762  0.00  0.00    +0.000 A 
ATOM      9  C   UNL     1       9.768  12.189  19.154  0.00  0.00    +0.000 A 
ATOM     10  C   UNL     1       8.936  12.306  18.036  0.00  0.00    +0.000 A 
ATOM     11  C   UNL     1       8.249  11.188  17.541  0.00  0.00    +0.000 A 
BRANCH   9  12
ATOM     12  C   UNL     1      10.456  13.339  19.672  0.00  0.00    +0.000 C 
ATOM     13  N   UNL     1      11.001  14.272  20.092  0.00  0.00    +0.000 NA
ENDBRANCH   9  12
ENDBRANCH   5   6
ENDBRANCH   4   5
ENDBRANCH   2   4
ENDBRANCH   1   2
BRANCH   1  14
ATOM     14  C   UNL     1       5.262   5.608  18.182  0.00  0.00    +0.000 C 
BRANCH  14  17
ATOM     15  C   UNL     1       2.289   8.006  17.789  0.00  0.00    +0.000 C 
ATOM     16  N   UNL     1       3.197   7.041  18.390  0.00  0.00    +0.000 N 
ATOM     17  C   UNL     1       4.287   6.652  17.617  0.00  0.00    +0.000 C 
ATOM     18  O   UNL     1       4.438   7.074  16.467  0.00  0.00    +0.000 OA
BRANCH  16  19
ATOM     19  C   UNL     1       2.812   6.426  19.662  0.00  0.00    +0.000 C 
BRANCH  19  20
ATOM     20  C   UNL     1       2.145   5.072  19.530  0.00  0.00    +0.000 A 
ATOM     21  C   UNL     1       1.697   4.350  20.644  0.00  0.00    +0.000 A 
ATOM     22  C   UNL     1       1.041   3.126  20.489  0.00  0.00    +0.000 A 
ATOM     23  C   UNL     1       0.812   2.612  19.217  0.00  0.00    +0.000 A 
ATOM     24  C   UNL     1       1.237   3.321  18.097  0.00  0.00    +0.000 A 
ATOM     25  C   UNL     1       1.896   4.544  18.252  0.00  0.00    +0.000 A 
ENDBRANCH  19  20
ENDBRANCH  16  19
ENDBRANCH  14  17
ENDBRANCH   1  14
TORSDOF 9
ENDMDL
