MODEL 1
REMARK VINA RESULT:      -7.7      0.000      0.000
REMARK  Name = 
REMARK  7 active torsions:
REMARK  status: ('A' for Active; 'I' for Inactive)
REMARK    1  A    between atoms: C_1  and  C_2
REMARK    2  A    between atoms: C_2  and  C_3
REMARK    3  A    between atoms: C_2  and  C_4
REMARK    4  A    between atoms: C_4  and  N_5
REMARK    5  A    between atoms: C_4  and  C_14
REMARK    6  A    between atoms: C_6  and  C_8
REMARK    7  A    between atoms: C_14  and  C_16
REMARK                            x       y       z     vdW  Elec       q    Type
REMARK                         _______ _______ _______ _____ _____    ______ ____
ROOT
ATOM      1  C   UNL     1       5.085   3.587  18.107  0.00  0.00    +0.000 C 
ENDROOT
BRANCH   1   2
ATOM      2  N   UNL     1       5.344   3.844  16.693  0.00  0.00    +0.000 N 
ATOM      3  C   UNL     1       6.599   4.191  16.230  0.00  0.00    +0.000 C 
ATOM      4  O   UNL     1       7.569   4.363  16.949  0.00  0.00    +0.000 OA
ATOM      5  H   UNL     1       4.626   3.571  16.031  0.00  0.00    +0.000 HD
BRANCH   3   6
ATOM      6  C   UNL     1       6.717   4.312  14.755  0.00  0.00    +0.000 A 
ATOM      7  C   UNL     1       5.903   3.551  13.909  0.00  0.00    +0.000 A 
ATOM      8  C   UNL     1       6.075   3.629  12.527  0.00  0.00    +0.000 A 
ATOM      9  C   UNL     1       7.051   4.472  11.992  0.00  0.00    +0.000 A 
ATOM     10  C   UNL     1       7.837   5.259  12.834  0.00  0.00    +0.000 A 
ATOM     11  C   UNL     1       7.665   5.189  14.218  0.00  0.00    +0.000 A 
ENDBRANCH   3   6
ENDBRANCH   1   2
BRANCH   1  13
ATOM     12  C   UNL     1       2.739   3.306  17.114  0.00  0.00    +0.000 C 
ATOM     13  C   UNL     1       3.649   3.038  18.321  0.00  0.00    +0.000 C 
ATOM     14  C   UNL     1       3.658   1.529  18.591  0.00  0.00    +0.000 C 
ENDBRANCH   1  13
BRANCH   1  15
ATOM     15  C   UNL     1       5.292   4.932  18.828  0.00  0.00    +0.000 C 
ATOM     16  O   UNL     1       6.217   5.144  19.612  0.00  0.00    +0.000 OA
BRANCH  15  17
ATOM     17  C   UNL     1       4.279   6.003  18.621  0.00  0.00    +0.000 A 
ATOM     18  C   UNL     1       3.227   6.172  19.528  0.00  0.00    +0.000 A 
ATOM     19  C   UNL     1       2.271   7.168  19.314  0.00  0.00    +0.000 A 
ATOM     20  C   UNL     1       2.366   7.989  18.193  0.00  0.00    +0.000 A 
ATOM     21 CL   UNL     1       1.160   9.182  17.909  0.00  0.00    +0.000 Cl
ATOM     22  C   UNL     1       3.427   7.846  17.299  0.00  0.00    +0.000 A 
ATOM     23  C   UNL     1       4.394   6.859  17.519  0.00  0.00    +0.000 A 
ENDBRANCH  15  17
ENDBRANCH   1  15
TORSDOF 5
ENDMDL
MODEL 2
REMARK VINA RESULT:      -7.6      0.476      1.180
REMARK  Name = 
REMARK  7 active torsions:
REMARK  status: ('A' for Active; 'I' for Inactive)
REMARK    1  A    between atoms: C_1  and  C_2
REMARK    2  A    between atoms: C_2  and  C_3
REMARK    3  A    between atoms: C_2  and  C_4
REMARK    4  A    between atoms: C_4  and  N_5
REMARK    5  A    between atoms: C_4  and  C_14
REMARK    6  A    between atoms: C_6  and  C_8
REMARK    7  A    between atoms: C_14  and  C_16
REMARK                            x       y       z     vdW  Elec       q    Type
REMARK                         _______ _______ _______ _____ _____    ______ ____
ROOT
ATOM      1  C   UNL     1       5.198   3.754  18.319  0.00  0.00    +0.000 C 
ENDROOT
BRANCH   1   2
ATOM      2  N   UNL     1       5.392   3.940  16.883  0.00  0.00    +0.000 N 
ATOM      3  C   UNL     1       6.626   4.254  16.345  0.00  0.00    +0.000 C 
ATOM      4  O   UNL     1       7.630   4.453  17.009  0.00  0.00    +0.000 OA
ATOM      5  H   UNL     1       4.642   3.641  16.269  0.00  0.00    +0.000 HD
BRANCH   3   6
ATOM      6  C   UNL     1       6.675   4.302  14.862  0.00  0.00    +0.000 A 
ATOM      7  C   UNL     1       5.807   3.519  14.093  0.00  0.00    +0.000 A 
ATOM      8  C   UNL     1       5.913   3.528  12.702  0.00  0.00    +0.000 A 
ATOM      9  C   UNL     1       6.878   4.323  12.082  0.00  0.00    +0.000 A 
ATOM     10  C   UNL     1       7.719   5.132  12.847  0.00  0.00    +0.000 A 
ATOM     11  C   UNL     1       7.612   5.132  14.239  0.00  0.00    +0.000 A 
ENDBRANCH   3   6
ENDBRANCH   1   2
BRANCH   1  13
ATOM     12  C   UNL     1       3.519   1.915  17.713  0.00  0.00    +0.000 C 
ATOM     13  C   UNL     1       3.814   3.120  18.618  0.00  0.00    +0.000 C 
ATOM     14  C   UNL     1       3.708   2.663  20.077  0.00  0.00    +0.000 C 
ENDBRANCH   1  13
BRANCH   1  15
ATOM     15  C   UNL     1       5.331   5.153  18.949  0.00  0.00    +0.000 C 
ATOM     16  O   UNL     1       6.242   5.466  19.715  0.00  0.00    +0.000 OA
BRANCH  15  17
ATOM     17  C   UNL     1       4.260   6.150  18.677  0.00  0.00    +0.000 A 
ATOM     18  C   UNL     1       4.289   6.927  17.513  0.00  0.00    +0.000 A 
ATOM     19  C   UNL     1       3.289   7.873  17.278  0.00  0.00    +0.000 A 
ATOM     20  C   UNL     1       2.264   8.043  18.206  0.00  0.00    +0.000 A 
ATOM     21 CL   UNL     1       1.061   9.241  17.933  0.00  0.00    +0.000 Cl
ATOM     22  C   UNL     1       2.212   7.252  19.353  0.00  0.00    +0.000 A 
ATOM     23  C   UNL     1       3.204   6.293  19.585  0.00  0.00    +0.000 A 
ENDBRANCH  15  17
ENDBRANCH   1  15
TORSDOF 5
ENDMDL
MODEL 3
REMARK VINA RESULT:      -7.5      2.863      6.534
REMARK  Name = 
REMARK  7 active torsions:
REMARK  status: ('A' for Active; 'I' for Inactive)
REMARK    1  A    between atoms: C_1  and  C_2
REMARK    2  A    between atoms: C_2  and  C_3
REMARK    3  A    between atoms: C_2  and  C_4
REMARK    4  A    between atoms: C_4  and  N_5
REMARK    5  A    between atoms: C_4  and  C_14
REMARK    6  A    between atoms: C_6  and  C_8
REMARK    7  A    between atoms: C_14  and  C_16
REMARK                            x       y       z     vdW  Elec       q    Type
REMARK                         _______ _______ _______ _____ _____    ______ ____
ROOT
ATOM      1  C   UNL     1       3.876   4.460  19.390  0.00  0.00    +0.000 C 
ENDROOT
BRANCH   1   2
ATOM      2  N   UNL     1       3.287   5.724  19.824  0.00  0.00    +0.000 N 
ATOM      3  C   UNL     1       2.492   6.486  18.988  0.00  0.00    +0.000 C 
ATOM      4  O   UNL     1       2.259   6.205  17.824  0.00  0.00    +0.000 OA
ATOM      5  H   UNL     1       3.314   5.935  20.815  0.00  0.00    +0.000 HD
BRANCH   3   6
ATOM      6  C   UNL     1       1.885   7.686  19.616  0.00  0.00    +0.000 A 
ATOM      7  C   UNL     1       1.645   8.841  18.864  0.00  0.00    +0.000 A 
ATOM      8  C   UNL     1       1.135   9.981  19.488  0.00  0.00    +0.000 A 
ATOM      9  C   UNL     1       0.858   9.962  20.856  0.00  0.00    +0.000 A 
ATOM     10  C   UNL     1       1.062   8.799  21.598  0.00  0.00    +0.000 A 
ATOM     11  C   UNL     1       1.566   7.653  20.978  0.00  0.00    +0.000 A 
ENDBRANCH   3   6
ENDBRANCH   1   2
BRANCH   1  13
ATOM     12  C   UNL     1       2.377   3.176  21.026  0.00  0.00    +0.000 C 
ATOM     13  C   UNL     1       3.809   3.397  20.520  0.00  0.00    +0.000 C 
ATOM     14  C   UNL     1       4.370   2.048  20.056  0.00  0.00    +0.000 C 
ENDBRANCH   1  13
BRANCH   1  15
ATOM     15  C   UNL     1       5.330   4.782  18.997  0.00  0.00    +0.000 C 
ATOM     16  O   UNL     1       6.165   5.215  19.790  0.00  0.00    +0.000 OA
BRANCH  15  17
ATOM     17  C   UNL     1       5.719   4.632  17.568  0.00  0.00    +0.000 A 
ATOM     18  C   UNL     1       7.007   4.975  17.141  0.00  0.00    +0.000 A 
ATOM     19  C   UNL     1       7.355   4.849  15.794  0.00  0.00    +0.000 A 
ATOM     20  C   UNL     1       6.416   4.384  14.877  0.00  0.00    +0.000 A 
ATOM     21 CL   UNL     1       6.835   4.274  13.212  0.00  0.00    +0.000 Cl
ATOM     22  C   UNL     1       5.139   4.012  15.299  0.00  0.00    +0.000 A 
ATOM     23  C   UNL     1       4.793   4.123  16.650  0.00  0.00    +0.000 A 
ENDBRANCH  15  17
ENDBRANCH   1  15
TORSDOF 5
ENDMDL
MODEL 4
REMARK VINA RESULT:      -7.5      3.214      6.944
REMARK  Name = 
REMARK  7 active torsions:
REMARK  status: ('A' for Active; 'I' for Inactive)
REMARK    1  A    between atoms: C_1  and  C_2
REMARK    2  A    between atoms: C_2  and  C_3
REMARK    3  A    between atoms: C_2  and  C_4
REMARK    4  A    between atoms: C_4  and  N_5
REMARK    5  A    between atoms: C_4  and  C_14
REMARK    6  A    between atoms: C_6  and  C_8
REMARK    7  A    between atoms: C_14  and  C_16
REMARK                            x       y       z     vdW  Elec       q    Type
REMARK                         _______ _______ _______ _____ _____    ______ ____
ROOT
ATOM      1  C   UNL     1       2.590   5.128  18.752  0.00  0.00    +0.000 C 
ENDROOT
BRANCH   1   2
ATOM      2  N   UNL     1       2.174   6.254  19.586  0.00  0.00    +0.000 N 
ATOM      3  C   UNL     1       1.968   7.516  19.063  0.00  0.00    +0.000 C 
ATOM      4  O   UNL     1       2.160   7.811  17.894  0.00  0.00    +0.000 OA
ATOM      5  H   UNL     1       1.852   6.044  20.524  0.00  0.00    +0.000 HD
BRANCH   3   6
ATOM      6  C   UNL     1       1.445   8.520  20.023  0.00  0.00    +0.000 A 
ATOM      7  C   UNL     1       1.379   8.234  21.391  0.00  0.00    +0.000 A 
ATOM      8  C   UNL     1       0.824   9.165  22.268  0.00  0.00    +0.000 A 
ATOM      9  C   UNL     1       0.342  10.381  21.781  0.00  0.00    +0.000 A 
ATOM     10  C   UNL     1       0.442  10.683  20.422  0.00  0.00    +0.000 A 
ATOM     11  C   UNL     1       1.004   9.757  19.540  0.00  0.00    +0.000 A 
ENDBRANCH   3   6
ENDBRANCH   1   2
BRANCH   1  13
ATOM     12  C   UNL     1       0.979   3.953  20.363  0.00  0.00    +0.000 C 
ATOM     13  C   UNL     1       2.137   3.779  19.370  0.00  0.00    +0.000 C 
ATOM     14  C   UNL     1       1.699   2.784  18.289  0.00  0.00    +0.000 C 
ENDBRANCH   1  13
BRANCH   1  15
ATOM     15  C   UNL     1       4.123   5.221  18.648  0.00  0.00    +0.000 C 
ATOM     16  O   UNL     1       4.849   5.515  19.598  0.00  0.00    +0.000 OA
BRANCH  15  17
ATOM     17  C   UNL     1       4.750   5.018  17.313  0.00  0.00    +0.000 A 
ATOM     18  C   UNL     1       5.124   3.738  16.888  0.00  0.00    +0.000 A 
ATOM     19  C   UNL     1       5.727   3.563  15.641  0.00  0.00    +0.000 A 
ATOM     20  C   UNL     1       5.960   4.666  14.823  0.00  0.00    +0.000 A 
ATOM     21 CL   UNL     1       6.746   4.450  13.309  0.00  0.00    +0.000 Cl
ATOM     22  C   UNL     1       5.564   5.941  15.227  0.00  0.00    +0.000 A 
ATOM     23  C   UNL     1       4.945   6.118  16.469  0.00  0.00    +0.000 A 
ENDBRANCH  15  17
ENDBRANCH   1  15
TORSDOF 5
ENDMDL
MODEL 5
REMARK VINA RESULT:      -7.5      3.240      7.012
REMARK  Name = 
REMARK  7 active torsions:
REMARK  status: ('A' for Active; 'I' for Inactive)
REMARK    1  A    between atoms: C_1  and  C_2
REMARK    2  A    between atoms: C_2  and  C_3
REMARK    3  A    between atoms: C_2  and  C_4
REMARK    4  A    between atoms: C_4  and  N_5
REMARK    5  A    between atoms: C_4  and  C_14
REMARK    6  A    between atoms: C_6  and  C_8
REMARK    7  A    between atoms: C_14  and  C_16
REMARK                            x       y       z     vdW  Elec       q    Type
REMARK                         _______ _______ _______ _____ _____    ______ ____
ROOT
ATOM      1  C   UNL     1       2.560   5.242  18.731  0.00  0.00    +0.000 C 
ENDROOT
BRANCH   1   2
ATOM      2  N   UNL     1       2.142   6.364  19.569  0.00  0.00    +0.000 N 
ATOM      3  C   UNL     1       1.939   7.629  19.050  0.00  0.00    +0.000 C 
ATOM      4  O   UNL     1       2.136   7.930  17.885  0.00  0.00    +0.000 OA
ATOM      5  H   UNL     1       1.816   6.149  20.504  0.00  0.00    +0.000 HD
BRANCH   3   6
ATOM      6  C   UNL     1       1.412   8.628  20.014  0.00  0.00    +0.000 A 
ATOM      7  C   UNL     1       1.324   8.328  21.377  0.00  0.00    +0.000 A 
ATOM      8  C   UNL     1       0.765   9.257  22.256  0.00  0.00    +0.000 A 
ATOM      9  C   UNL     1       0.304  10.483  21.775  0.00  0.00    +0.000 A 
ATOM     10  C   UNL     1       0.426  10.797  20.421  0.00  0.00    +0.000 A 
ATOM     11  C   UNL     1       0.991   9.875  19.538  0.00  0.00    +0.000 A 
ENDBRANCH   3   6
ENDBRANCH   1   2
BRANCH   1  13
ATOM     12  C   UNL     1       0.976   4.074  20.371  0.00  0.00    +0.000 C 
ATOM     13  C   UNL     1       2.090   3.891  19.331  0.00  0.00    +0.000 C 
ATOM     14  C   UNL     1       1.580   2.939  18.243  0.00  0.00    +0.000 C 
ENDBRANCH   1  13
BRANCH   1  15
ATOM     15  C   UNL     1       4.096   5.324  18.648  0.00  0.00    +0.000 C 
ATOM     16  O   UNL     1       4.810   5.633  19.602  0.00  0.00    +0.000 OA
BRANCH  15  17
ATOM     17  C   UNL     1       4.741   5.093  17.326  0.00  0.00    +0.000 A 
ATOM     18  C   UNL     1       4.936   6.152  16.433  0.00  0.00    +0.000 A 
ATOM     19  C   UNL     1       5.524   5.919  15.188  0.00  0.00    +0.000 A 
ATOM     20  C   UNL     1       5.914   4.628  14.837  0.00  0.00    +0.000 A 
ATOM     21 CL   UNL     1       6.595   4.340  13.284  0.00  0.00    +0.000 Cl
ATOM     22  C   UNL     1       5.750   3.572  15.733  0.00  0.00    +0.000 A 
ATOM     23  C   UNL     1       5.174   3.805  16.987  0.00  0.00    +0.000 A 
ENDBRANCH  15  17
ENDBRANCH   1  15
TORSDOF 5
ENDMDL
MODEL 6
REMARK VINA RESULT:      -7.5      2.817      6.442
REMARK  Name = 
REMARK  7 active torsions:
REMARK  status: ('A' for Active; 'I' for Inactive)
REMARK    1  A    between atoms: C_1  and  C_2
REMARK    2  A    between atoms: C_2  and  C_3
REMARK    3  A    between atoms: C_2  and  C_4
REMARK    4  A    between atoms: C_4  and  N_5
REMARK    5  A    between atoms: C_4  and  C_14
REMARK    6  A    between atoms: C_6  and  C_8
REMARK    7  A    between atoms: C_14  and  C_16
REMARK                            x       y       z     vdW  Elec       q    Type
REMARK                         _______ _______ _______ _____ _____    ______ ____
ROOT
ATOM      1  C   UNL     1       3.325   4.183  18.982  0.00  0.00    +0.000 C 
ENDROOT
BRANCH   1   2
ATOM      2  N   UNL     1       2.825   5.427  19.562  0.00  0.00    +0.000 N 
ATOM      3  C   UNL     1       2.569   6.543  18.789  0.00  0.00    +0.000 C 
ATOM      4  O   UNL     1       2.782   6.608  17.590  0.00  0.00    +0.000 OA
ATOM      5  H   UNL     1       2.484   5.392  20.517  0.00  0.00    +0.000 HD
BRANCH   3   6
ATOM      6  C   UNL     1       1.964   7.688  19.515  0.00  0.00    +0.000 A 
ATOM      7  C   UNL     1       1.680   7.598  20.882  0.00  0.00    +0.000 A 
ATOM      8  C   UNL     1       1.051   8.661  21.532  0.00  0.00    +0.000 A 
ATOM      9  C   UNL     1       0.714   9.812  20.819  0.00  0.00    +0.000 A 
ATOM     10  C   UNL     1       1.030   9.918  19.464  0.00  0.00    +0.000 A 
ATOM     11  C   UNL     1       1.666   8.860  18.810  0.00  0.00    +0.000 A 
ENDBRANCH   3   6
ENDBRANCH   1   2
BRANCH   1  13
ATOM     12  C   UNL     1       2.287   3.375  21.182  0.00  0.00    +0.000 C 
ATOM     13  C   UNL     1       2.907   2.959  19.841  0.00  0.00    +0.000 C 
ATOM     14  C   UNL     1       1.901   2.070  19.101  0.00  0.00    +0.000 C 
ENDBRANCH   1  13
BRANCH   1  15
ATOM     15  C   UNL     1       4.856   4.333  18.912  0.00  0.00    +0.000 C 
ATOM     16  O   UNL     1       5.573   4.424  19.908  0.00  0.00    +0.000 OA
BRANCH  15  17
ATOM     17  C   UNL     1       5.488   4.450  17.570  0.00  0.00    +0.000 A 
ATOM     18  C   UNL     1       6.791   4.944  17.436  0.00  0.00    +0.000 A 
ATOM     19  C   UNL     1       7.367   5.068  16.170  0.00  0.00    +0.000 A 
ATOM     20  C   UNL     1       6.640   4.701  15.040  0.00  0.00    +0.000 A 
ATOM     21 CL   UNL     1       7.337   4.900  13.480  0.00  0.00    +0.000 Cl
ATOM     22  C   UNL     1       5.352   4.181  15.166  0.00  0.00    +0.000 A 
ATOM     23  C   UNL     1       4.778   4.042  16.434  0.00  0.00    +0.000 A 
ENDBRANCH  15  17
ENDBRANCH   1  15
TORSDOF 5
ENDMDL
MODEL 7
REMARK VINA RESULT:      -7.5      3.147      6.749
REMARK  Name = 
REMARK  7 active torsions:
REMARK  status: ('A' for Active; 'I' for Inactive)
REMARK    1  A    between atoms: C_1  and  C_2
REMARK    2  A    between atoms: C_2  and  C_3
REMARK    3  A    between atoms: C_2  and  C_4
REMARK    4  A    between atoms: C_4  and  N_5
REMARK    5  A    between atoms: C_4  and  C_14
REMARK    6  A    between atoms: C_6  and  C_8
REMARK    7  A    between atoms: C_14  and  C_16
REMARK                            x       y       z     vdW  Elec       q    Type
REMARK                         _______ _______ _______ _____ _____    ______ ____
ROOT
ATOM      1  C   UNL     1       6.008   5.378  17.161  0.00  0.00    +0.000 C 
ENDROOT
BRANCH   1   2
ATOM      2  N   UNL     1       4.712   5.046  17.747  0.00  0.00    +0.000 N 
ATOM      3  C   UNL     1       4.570   4.044  18.688  0.00  0.00    +0.000 C 
ATOM      4  O   UNL     1       5.482   3.327  19.066  0.00  0.00    +0.000 OA
ATOM      5  H   UNL     1       3.950   5.697  17.593  0.00  0.00    +0.000 HD
BRANCH   3   6
ATOM      6  C   UNL     1       3.208   3.906  19.263  0.00  0.00    +0.000 A 
ATOM      7  C   UNL     1       2.703   4.869  20.143  0.00  0.00    +0.000 A 
ATOM      8  C   UNL     1       1.447   4.687  20.723  0.00  0.00    +0.000 A 
ATOM      9  C   UNL     1       0.696   3.551  20.418  0.00  0.00    +0.000 A 
ATOM     10  C   UNL     1       1.183   2.609  19.511  0.00  0.00    +0.000 A 
ATOM     11  C   UNL     1       2.436   2.789  18.922  0.00  0.00    +0.000 A 
ENDBRANCH   3   6
ENDBRANCH   1   2
BRANCH   1  13
ATOM     12  C   UNL     1       7.734   5.739  19.021  0.00  0.00    +0.000 C 
ATOM     13  C   UNL     1       6.768   6.411  18.035  0.00  0.00    +0.000 C 
ATOM     14  C   UNL     1       7.567   7.396  17.174  0.00  0.00    +0.000 C 
ENDBRANCH   1  13
BRANCH   1  15
ATOM     15  C   UNL     1       5.707   5.934  15.756  0.00  0.00    +0.000 C 
ATOM     16  O   UNL     1       5.116   6.995  15.560  0.00  0.00    +0.000 OA
BRANCH  15  17
ATOM     17  C   UNL     1       6.084   5.105  14.578  0.00  0.00    +0.000 A 
ATOM     18  C   UNL     1       5.213   4.126  14.087  0.00  0.00    +0.000 A 
ATOM     19  C   UNL     1       5.585   3.342  12.994  0.00  0.00    +0.000 A 
ATOM     20  C   UNL     1       6.828   3.533  12.395  0.00  0.00    +0.000 A 
ATOM     21 CL   UNL     1       7.301   2.532  11.079  0.00  0.00    +0.000 Cl
ATOM     22  C   UNL     1       7.691   4.526  12.860  0.00  0.00    +0.000 A 
ATOM     23  C   UNL     1       7.314   5.324  13.946  0.00  0.00    +0.000 A 
ENDBRANCH  15  17
ENDBRANCH   1  15
TORSDOF 5
ENDMDL
MODEL 8
REMARK VINA RESULT:      -7.4      3.122      6.704
REMARK  Name = 
REMARK  7 active torsions:
REMARK  status: ('A' for Active; 'I' for Inactive)
REMARK    1  A    between atoms: C_1  and  C_2
REMARK    2  A    between atoms: C_2  and  C_3
REMARK    3  A    between atoms: C_2  and  C_4
REMARK    4  A    between atoms: C_4  and  N_5
REMARK    5  A    between atoms: C_4  and  C_14
REMARK    6  A    between atoms: C_6  and  C_8
REMARK    7  A    between atoms: C_14  and  C_16
REMARK                            x       y       z     vdW  Elec       q    Type
REMARK                         _______ _______ _______ _____ _____    ______ ____
ROOT
ATOM      1  C   UNL     1       6.388   5.088  17.146  0.00  0.00    +0.000 C 
ENDROOT
BRANCH   1   2
ATOM      2  N   UNL     1       5.171   5.072  17.955  0.00  0.00    +0.000 N 
ATOM      3  C   UNL     1       4.261   4.034  17.889  0.00  0.00    +0.000 C 
ATOM      4  O   UNL     1       4.362   3.085  17.129  0.00  0.00    +0.000 OA
ATOM      5  H   UNL     1       5.105   5.746  18.710  0.00  0.00    +0.000 HD
BRANCH   3   6
ATOM      6  C   UNL     1       3.135   4.119  18.852  0.00  0.00    +0.000 A 
ATOM      7  C   UNL     1       2.918   5.283  19.596  0.00  0.00    +0.000 A 
ATOM      8  C   UNL     1       1.895   5.320  20.544  0.00  0.00    +0.000 A 
ATOM      9  C   UNL     1       1.087   4.199  20.741  0.00  0.00    +0.000 A 
ATOM     10  C   UNL     1       1.279   3.051  19.973  0.00  0.00    +0.000 A 
ATOM     11  C   UNL     1       2.297   3.011  19.018  0.00  0.00    +0.000 A 
ENDBRANCH   3   6
ENDBRANCH   1   2
BRANCH   1  13
ATOM     12  C   UNL     1       7.446   7.383  17.571  0.00  0.00    +0.000 C 
ATOM     13  C   UNL     1       7.520   5.876  17.857  0.00  0.00    +0.000 C 
ATOM     14  C   UNL     1       7.480   5.672  19.376  0.00  0.00    +0.000 C 
ENDBRANCH   1  13
BRANCH   1  15
ATOM     15  C   UNL     1       5.997   5.737  15.805  0.00  0.00    +0.000 C 
ATOM     16  O   UNL     1       5.396   6.807  15.721  0.00  0.00    +0.000 OA
BRANCH  15  17
ATOM     17  C   UNL     1       6.296   4.991  14.552  0.00  0.00    +0.000 A 
ATOM     18  C   UNL     1       5.417   4.011  14.079  0.00  0.00    +0.000 A 
ATOM     19  C   UNL     1       5.717   3.305  12.912  0.00  0.00    +0.000 A 
ATOM     20  C   UNL     1       6.896   3.576  12.223  0.00  0.00    +0.000 A 
ATOM     21 CL   UNL     1       7.284   2.671  10.812  0.00  0.00    +0.000 Cl
ATOM     22  C   UNL     1       7.764   4.571  12.671  0.00  0.00    +0.000 A 
ATOM     23  C   UNL     1       7.459   5.291  13.831  0.00  0.00    +0.000 A 
ENDBRANCH  15  17
ENDBRANCH   1  15
TORSDOF 5
ENDMDL
MODEL 9
REMARK VINA RESULT:      -7.4      2.231      3.252
REMARK  Name = 
REMARK  7 active torsions:
REMARK  status: ('A' for Active; 'I' for Inactive)
REMARK    1  A    between atoms: C_1  and  C_2
REMARK    2  A    between atoms: C_2  and  C_3
REMARK    3  A    between atoms: C_2  and  C_4
REMARK    4  A    between atoms: C_4  and  N_5
REMARK    5  A    between atoms: C_4  and  C_14
REMARK    6  A    between atoms: C_6  and  C_8
REMARK    7  A    between atoms: C_14  and  C_16
REMARK                            x       y       z     vdW  Elec       q    Type
REMARK                         _______ _______ _______ _____ _____    ______ ____
ROOT
ATOM      1  C   UNL     1       5.409   6.408  17.514  0.00  0.00    +0.000 C 
ENDROOT
BRANCH   1   2
ATOM      2  N   UNL     1       5.472   5.745  16.214  0.00  0.00    +0.000 N 
ATOM      3  C   UNL     1       6.643   5.673  15.485  0.00  0.00    +0.000 C 
ATOM      4  O   UNL     1       7.694   6.191  15.826  0.00  0.00    +0.000 OA
ATOM      5  H   UNL     1       4.682   5.167  15.947  0.00  0.00    +0.000 HD
BRANCH   3   6
ATOM      6  C   UNL     1       6.562   4.873  14.237  0.00  0.00    +0.000 A 
ATOM      7  C   UNL     1       7.531   5.008  13.237  0.00  0.00    +0.000 A 
ATOM      8  C   UNL     1       7.402   4.295  12.045  0.00  0.00    +0.000 A 
ATOM      9  C   UNL     1       6.311   3.445  11.856  0.00  0.00    +0.000 A 
ATOM     10  C   UNL     1       5.364   3.281  12.868  0.00  0.00    +0.000 A 
ATOM     11  C   UNL     1       5.493   3.987  14.066  0.00  0.00    +0.000 A 
ENDBRANCH   3   6
ENDBRANCH   1   2
BRANCH   1  13
ATOM     12  C   UNL     1       5.940   4.002  18.221  0.00  0.00    +0.000 C 
ATOM     13  C   UNL     1       5.935   5.479  18.641  0.00  0.00    +0.000 C 
ATOM     14  C   UNL     1       7.356   5.862  19.068  0.00  0.00    +0.000 C 
ENDBRANCH   1  13
BRANCH   1  15
ATOM     15  C   UNL     1       3.930   6.781  17.729  0.00  0.00    +0.000 C 
ATOM     16  O   UNL     1       3.447   7.858  17.378  0.00  0.00    +0.000 OA
BRANCH  15  17
ATOM     17  C   UNL     1       3.064   5.821  18.465  0.00  0.00    +0.000 A 
ATOM     18  C   UNL     1       2.843   5.970  19.839  0.00  0.00    +0.000 A 
ATOM     19  C   UNL     1       2.043   5.052  20.523  0.00  0.00    +0.000 A 
ATOM     20  C   UNL     1       1.469   3.985  19.835  0.00  0.00    +0.000 A 
ATOM     21 CL   UNL     1       0.524   2.832  20.692  0.00  0.00    +0.000 Cl
ATOM     22  C   UNL     1       1.661   3.846  18.461  0.00  0.00    +0.000 A 
ATOM     23  C   UNL     1       2.449   4.773  17.770  0.00  0.00    +0.000 A 
ENDBRANCH  15  17
ENDBRANCH   1  15
TORSDOF 5
ENDMDL
