MODEL 1
REMARK VINA RESULT:      -7.6      0.000      0.000
REMARK  Name = 
REMARK  3 active torsions:
REMARK  status: ('A' for Active; 'I' for Inactive)
REMARK    1  A    between atoms: N_9  and  C_10
REMARK    2  A    between atoms: C_10  and  C_11
REMARK    3  A    between atoms: C_16  and  N_17
REMARK                            x       y       z     vdW  Elec       q    Type
REMARK                         _______ _______ _______ _____ _____    ______ ____
ROOT
ATOM      1  N   UNL     1       4.708   2.988  11.153  0.00  0.00    +0.000 N 
ATOM      2  C   UNL     1       5.421   3.363  12.207  0.00  0.00    +0.000 A 
ATOM      3  N   UNL     1       6.744   3.414  12.239  0.00  0.00    +0.000 NA
ATOM      4  N   UNL     1       6.962   3.863  13.478  0.00  0.00    +0.000 N 
ATOM      5  C   UNL     1       5.791   4.029  14.180  0.00  0.00    +0.000 A 
ATOM      6  N   UNL     1       5.745   4.530  15.445  0.00  0.00    +0.000 N 
ATOM      7  C   UNL     1       6.873   4.450  16.379  0.00  0.00    +0.000 C 
ATOM      8  C   UNL     1       6.814   5.610  17.414  0.00  0.00    +0.000 C 
ATOM      9  N   UNL     1       5.513   5.806  18.112  0.00  0.00    +0.000 NA
ATOM     10  C   UNL     1       4.451   5.835  17.073  0.00  0.00    +0.000 C 
ATOM     11  C   UNL     1       4.435   4.627  16.110  0.00  0.00    +0.000 C 
ATOM     12  N   UNL     1       4.799   3.710  13.371  0.00  0.00    +0.000 NA
ATOM     13  H   UNL     1       5.187   2.486  10.427  0.00  0.00    +0.000 HD
ATOM     14  H   UNL     1       3.747   2.695  11.323  0.00  0.00    +0.000 HD
ATOM     15  H   UNL     1       7.901   4.063  13.778  0.00  0.00    +0.000 HD
ENDROOT
BRANCH   9  16
ATOM     16  C   UNL     1       5.318   4.784  19.165  0.00  0.00    +0.000 C 
BRANCH  16  17
ATOM     17  C   UNL     1       3.886   4.571  19.641  0.00  0.00    +0.000 A 
ATOM     18  C   UNL     1       3.105   5.641  20.108  0.00  0.00    +0.000 A 
ATOM     19  C   UNL     1       1.791   5.448  20.553  0.00  0.00    +0.000 A 
ATOM     20  C   UNL     1       1.212   4.178  20.533  0.00  0.00    +0.000 A 
ATOM     21  C   UNL     1       1.967   3.087  20.118  0.00  0.00    +0.000 A 
ATOM     22  C   UNL     1       3.297   3.290  19.720  0.00  0.00    +0.000 A 
BRANCH  22  23
ATOM     23  N   UNL     1       4.098   2.094  19.533  0.00  0.00    +0.000 N 
ATOM     24  O   UNL     1       3.892   1.441  18.501  0.00  0.00    +0.000 OA
ATOM     25  O   UNL     1       4.941   1.832  20.399  0.00  0.00    +0.000 OA
ENDBRANCH  22  23
ENDBRANCH  16  17
ENDBRANCH   9  16
TORSDOF 3
ENDMDL
MODEL 2
REMARK VINA RESULT:      -7.6      2.075      2.726
REMARK  Name = 
REMARK  3 active torsions:
REMARK  status: ('A' for Active; 'I' for Inactive)
REMARK    1  A    between atoms: N_9  and  C_10
REMARK    2  A    between atoms: C_10  and  C_11
REMARK    3  A    between atoms: C_16  and  N_17
REMARK                            x       y       z     vdW  Elec       q    Type
REMARK                         _______ _______ _______ _____ _____    ______ ____
ROOT
ATOM      1  N   UNL     1       8.172   5.834  12.504  0.00  0.00    +0.000 N 
ATOM      2  C   UNL     1       7.457   5.127  13.369  0.00  0.00    +0.000 A 
ATOM      3  N   UNL     1       6.884   3.964  13.098  0.00  0.00    +0.000 NA
ATOM      4  N   UNL     1       6.326   3.663  14.274  0.00  0.00    +0.000 N 
ATOM      5  C   UNL     1       6.525   4.653  15.207  0.00  0.00    +0.000 A 
ATOM      6  N   UNL     1       6.100   4.557  16.498  0.00  0.00    +0.000 N 
ATOM      7  C   UNL     1       4.977   3.709  16.909  0.00  0.00    +0.000 C 
ATOM      8  C   UNL     1       5.131   3.274  18.395  0.00  0.00    +0.000 C 
ATOM      9  N   UNL     1       5.410   4.360  19.375  0.00  0.00    +0.000 NA
ATOM     10  C   UNL     1       6.535   5.167  18.836  0.00  0.00    +0.000 C 
ATOM     11  C   UNL     1       6.339   5.697  17.398  0.00  0.00    +0.000 C 
ATOM     12  N   UNL     1       7.250   5.595  14.635  0.00  0.00    +0.000 NA
ATOM     13  H   UNL     1       8.073   5.606  11.530  0.00  0.00    +0.000 HD
ATOM     14  H   UNL     1       8.302   6.823  12.708  0.00  0.00    +0.000 HD
ATOM     15  H   UNL     1       5.856   2.782  14.392  0.00  0.00    +0.000 HD
ENDROOT
BRANCH   9  16
ATOM     16  C   UNL     1       4.183   5.133  19.673  0.00  0.00    +0.000 C 
BRANCH  16  17
ATOM     17  C   UNL     1       2.976   4.329  20.141  0.00  0.00    +0.000 A 
ATOM     18  C   UNL     1       3.012   3.586  21.332  0.00  0.00    +0.000 A 
ATOM     19  C   UNL     1       1.906   2.840  21.762  0.00  0.00    +0.000 A 
ATOM     20  C   UNL     1       0.726   2.823  21.017  0.00  0.00    +0.000 A 
ATOM     21  C   UNL     1       0.666   3.511  19.811  0.00  0.00    +0.000 A 
ATOM     22  C   UNL     1       1.797   4.216  19.371  0.00  0.00    +0.000 A 
BRANCH  22  23
ATOM     23  N   UNL     1       1.754   4.706  18.006  0.00  0.00    +0.000 N 
ATOM     24  O   UNL     1       1.499   3.875  17.123  0.00  0.00    +0.000 OA
ATOM     25  O   UNL     1       1.948   5.914  17.828  0.00  0.00    +0.000 OA
ENDBRANCH  22  23
ENDBRANCH  16  17
ENDBRANCH   9  16
TORSDOF 3
ENDMDL
MODEL 3
REMARK VINA RESULT:      -7.6      0.995      1.216
REMARK  Name = 
REMARK  3 active torsions:
REMARK  status: ('A' for Active; 'I' for Inactive)
REMARK    1  A    between atoms: N_9  and  C_10
REMARK    2  A    between atoms: C_10  and  C_11
REMARK    3  A    between atoms: C_16  and  N_17
REMARK                            x       y       z     vdW  Elec       q    Type
REMARK                         _______ _______ _______ _____ _____    ______ ____
ROOT
ATOM      1  N   UNL     1       6.935   3.590  11.559  0.00  0.00    +0.000 N 
ATOM      2  C   UNL     1       7.085   4.216  12.719  0.00  0.00    +0.000 A 
ATOM      3  N   UNL     1       8.138   4.949  13.046  0.00  0.00    +0.000 NA
ATOM      4  N   UNL     1       7.800   5.368  14.268  0.00  0.00    +0.000 N 
ATOM      5  C   UNL     1       6.591   4.853  14.674  0.00  0.00    +0.000 A 
ATOM      6  N   UNL     1       6.004   5.177  15.859  0.00  0.00    +0.000 N 
ATOM      7  C   UNL     1       6.759   5.640  17.026  0.00  0.00    +0.000 C 
ATOM      8  C   UNL     1       5.869   6.531  17.940  0.00  0.00    +0.000 C 
ATOM      9  N   UNL     1       4.539   5.975  18.311  0.00  0.00    +0.000 NA
ATOM     10  C   UNL     1       3.887   5.509  17.058  0.00  0.00    +0.000 C 
ATOM     11  C   UNL     1       4.725   4.533  16.201  0.00  0.00    +0.000 C 
ATOM     12  N   UNL     1       6.127   4.114  13.685  0.00  0.00    +0.000 NA
ATOM     13  H   UNL     1       7.757   3.458  10.996  0.00  0.00    +0.000 HD
ATOM     14  H   UNL     1       6.259   2.828  11.526  0.00  0.00    +0.000 HD
ATOM     15  H   UNL     1       8.399   6.010  14.759  0.00  0.00    +0.000 HD
ENDROOT
BRANCH   9  16
ATOM     16  C   UNL     1       4.671   4.939  19.359  0.00  0.00    +0.000 C 
BRANCH  16  17
ATOM     17  C   UNL     1       3.372   4.328  19.873  0.00  0.00    +0.000 A 
ATOM     18  C   UNL     1       2.369   5.125  20.447  0.00  0.00    +0.000 A 
ATOM     19  C   UNL     1       1.176   4.566  20.926  0.00  0.00    +0.000 A 
ATOM     20  C   UNL     1       0.947   3.193  20.835  0.00  0.00    +0.000 A 
ATOM     21  C   UNL     1       1.934   2.366  20.312  0.00  0.00    +0.000 A 
ATOM     22  C   UNL     1       3.141   2.935  19.879  0.00  0.00    +0.000 A 
BRANCH  22  23
ATOM     23  N   UNL     1       4.213   2.006  19.573  0.00  0.00    +0.000 N 
ATOM     24  O   UNL     1       4.199   1.490  18.447  0.00  0.00    +0.000 OA
ATOM     25  O   UNL     1       5.071   1.819  20.445  0.00  0.00    +0.000 OA
ENDBRANCH  22  23
ENDBRANCH  16  17
ENDBRANCH   9  16
TORSDOF 3
ENDMDL
MODEL 4
REMARK VINA RESULT:      -7.3      1.810      2.489
REMARK  Name = 
REMARK  3 active torsions:
REMARK  status: ('A' for Active; 'I' for Inactive)
REMARK    1  A    between atoms: N_9  and  C_10
REMARK    2  A    between atoms: C_10  and  C_11
REMARK    3  A    between atoms: C_16  and  N_17
REMARK                            x       y       z     vdW  Elec       q    Type
REMARK                         _______ _______ _______ _____ _____    ______ ____
ROOT
ATOM      1  N   UNL     1       8.125   5.835  12.517  0.00  0.00    +0.000 N 
ATOM      2  C   UNL     1       7.442   5.096  13.382  0.00  0.00    +0.000 A 
ATOM      3  N   UNL     1       6.939   3.900  13.117  0.00  0.00    +0.000 NA
ATOM      4  N   UNL     1       6.386   3.580  14.289  0.00  0.00    +0.000 N 
ATOM      5  C   UNL     1       6.519   4.588  15.215  0.00  0.00    +0.000 A 
ATOM      6  N   UNL     1       6.088   4.480  16.503  0.00  0.00    +0.000 N 
ATOM      7  C   UNL     1       5.010   3.573  16.911  0.00  0.00    +0.000 C 
ATOM      8  C   UNL     1       5.173   3.162  18.403  0.00  0.00    +0.000 C 
ATOM      9  N   UNL     1       5.380   4.271  19.375  0.00  0.00    +0.000 NA
ATOM     10  C   UNL     1       6.464   5.135  18.838  0.00  0.00    +0.000 C 
ATOM     11  C   UNL     1       6.252   5.640  17.393  0.00  0.00    +0.000 C 
ATOM     12  N   UNL     1       7.196   5.564  14.641  0.00  0.00    +0.000 NA
ATOM     13  H   UNL     1       8.050   5.592  11.544  0.00  0.00    +0.000 HD
ATOM     14  H   UNL     1       8.197   6.831  12.712  0.00  0.00    +0.000 HD
ATOM     15  H   UNL     1       5.966   2.674  14.412  0.00  0.00    +0.000 HD
ENDROOT
BRANCH   9  16
ATOM     16  C   UNL     1       4.109   4.976  19.653  0.00  0.00    +0.000 C 
BRANCH  16  17
ATOM     17  C   UNL     1       2.831   4.237  19.272  0.00  0.00    +0.000 A 
ATOM     18  C   UNL     1       2.082   4.610  18.144  0.00  0.00    +0.000 A 
ATOM     19  C   UNL     1       0.902   3.938  17.795  0.00  0.00    +0.000 A 
ATOM     20  C   UNL     1       0.443   2.865  18.558  0.00  0.00    +0.000 A 
ATOM     21  C   UNL     1       1.133   2.493  19.705  0.00  0.00    +0.000 A 
ATOM     22  C   UNL     1       2.287   3.206  20.068  0.00  0.00    +0.000 A 
BRANCH  22  23
ATOM     23  N   UNL     1       2.819   2.932  21.389  0.00  0.00    +0.000 N 
ATOM     24  O   UNL     1       2.264   3.496  22.342  0.00  0.00    +0.000 OA
ATOM     25  O   UNL     1       3.765   2.138  21.469  0.00  0.00    +0.000 OA
ENDBRANCH  22  23
ENDBRANCH  16  17
ENDBRANCH   9  16
TORSDOF 3
ENDMDL
MODEL 5
REMARK VINA RESULT:      -7.0      2.317      2.984
REMARK  Name = 
REMARK  3 active torsions:
REMARK  status: ('A' for Active; 'I' for Inactive)
REMARK    1  A    between atoms: N_9  and  C_10
REMARK    2  A    between atoms: C_10  and  C_11
REMARK    3  A    between atoms: C_16  and  N_17
REMARK                            x       y       z     vdW  Elec       q    Type
REMARK                         _______ _______ _______ _____ _____    ______ ____
ROOT
ATOM      1  N   UNL     1       8.231   5.671  12.057  0.00  0.00    +0.000 N 
ATOM      2  C   UNL     1       7.478   5.045  12.952  0.00  0.00    +0.000 A 
ATOM      3  N   UNL     1       6.684   4.020  12.681  0.00  0.00    +0.000 NA
ATOM      4  N   UNL     1       6.184   3.745  13.888  0.00  0.00    +0.000 N 
ATOM      5  C   UNL     1       6.638   4.622  14.846  0.00  0.00    +0.000 A 
ATOM      6  N   UNL     1       6.316   4.517  16.165  0.00  0.00    +0.000 N 
ATOM      7  C   UNL     1       5.099   3.853  16.641  0.00  0.00    +0.000 C 
ATOM      8  C   UNL     1       5.300   3.301  18.082  0.00  0.00    +0.000 C 
ATOM      9  N   UNL     1       5.853   4.255  19.082  0.00  0.00    +0.000 NA
ATOM     10  C   UNL     1       7.054   4.888  18.477  0.00  0.00    +0.000 C 
ATOM     11  C   UNL     1       6.833   5.537  17.092  0.00  0.00    +0.000 C 
ATOM     12  N   UNL     1       7.468   5.458  14.253  0.00  0.00    +0.000 NA
ATOM     13  H   UNL     1       8.010   5.528  11.087  0.00  0.00    +0.000 HD
ATOM     14  H   UNL     1       8.554   6.607  12.296  0.00  0.00    +0.000 HD
ATOM     15  H   UNL     1       5.576   2.953  14.008  0.00  0.00    +0.000 HD
ENDROOT
BRANCH   9  16
ATOM     16  C   UNL     1       4.815   5.209  19.534  0.00  0.00    +0.000 C 
BRANCH  16  17
ATOM     17  C   UNL     1       3.480   4.605  19.954  0.00  0.00    +0.000 A 
ATOM     18  C   UNL     1       3.370   3.249  20.300  0.00  0.00    +0.000 A 
ATOM     19  C   UNL     1       2.143   2.688  20.679  0.00  0.00    +0.000 A 
ATOM     20  C   UNL     1       0.990   3.472  20.735  0.00  0.00    +0.000 A 
ATOM     21  C   UNL     1       1.050   4.808  20.359  0.00  0.00    +0.000 A 
ATOM     22  C   UNL     1       2.276   5.344  19.937  0.00  0.00    +0.000 A 
BRANCH  22  23
ATOM     23  N   UNL     1       2.225   6.661  19.332  0.00  0.00    +0.000 N 
ATOM     24  O   UNL     1       2.290   6.711  18.096  0.00  0.00    +0.000 OA
ATOM     25  O   UNL     1       2.094   7.631  20.090  0.00  0.00    +0.000 OA
ENDBRANCH  22  23
ENDBRANCH  16  17
ENDBRANCH   9  16
TORSDOF 3
ENDMDL
MODEL 6
REMARK VINA RESULT:      -7.0      3.436      7.066
REMARK  Name = 
REMARK  3 active torsions:
REMARK  status: ('A' for Active; 'I' for Inactive)
REMARK    1  A    between atoms: N_9  and  C_10
REMARK    2  A    between atoms: C_10  and  C_11
REMARK    3  A    between atoms: C_16  and  N_17
REMARK                            x       y       z     vdW  Elec       q    Type
REMARK                         _______ _______ _______ _____ _____    ______ ____
ROOT
ATOM      1  N   UNL     1       0.679  10.631  20.109  0.00  0.00    +0.000 N 
ATOM      2  C   UNL     1       1.050   9.383  20.365  0.00  0.00    +0.000 A 
ATOM      3  N   UNL     1       0.841   8.758  21.514  0.00  0.00    +0.000 NA
ATOM      4  N   UNL     1       1.362   7.554  21.258  0.00  0.00    +0.000 N 
ATOM      5  C   UNL     1       1.909   7.486  19.999  0.00  0.00    +0.000 A 
ATOM      6  N   UNL     1       2.452   6.348  19.483  0.00  0.00    +0.000 N 
ATOM      7  C   UNL     1       2.994   5.271  20.316  0.00  0.00    +0.000 C 
ATOM      8  C   UNL     1       2.917   3.907  19.572  0.00  0.00    +0.000 C 
ATOM      9  N   UNL     1       3.460   3.879  18.185  0.00  0.00    +0.000 NA
ATOM     10  C   UNL     1       2.868   5.030  17.454  0.00  0.00    +0.000 C 
ATOM     11  C   UNL     1       3.042   6.406  18.135  0.00  0.00    +0.000 C 
ATOM     12  N   UNL     1       1.713   8.655  19.420  0.00  0.00    +0.000 NA
ATOM     13  H   UNL     1       0.452  11.214  20.896  0.00  0.00    +0.000 HD
ATOM     14  H   UNL     1       1.144  11.104  19.337  0.00  0.00    +0.000 HD
ATOM     15  H   UNL     1       1.294   6.825  21.948  0.00  0.00    +0.000 HD
ENDROOT
BRANCH   9  16
ATOM     16  C   UNL     1       4.939   3.850  18.197  0.00  0.00    +0.000 C 
BRANCH  16  17
ATOM     17  C   UNL     1       5.631   4.181  16.879  0.00  0.00    +0.000 A 
ATOM     18  C   UNL     1       5.228   3.583  15.674  0.00  0.00    +0.000 A 
ATOM     19  C   UNL     1       5.865   3.879  14.461  0.00  0.00    +0.000 A 
ATOM     20  C   UNL     1       6.919   4.792  14.417  0.00  0.00    +0.000 A 
ATOM     21  C   UNL     1       7.375   5.372  15.595  0.00  0.00    +0.000 A 
ATOM     22  C   UNL     1       6.757   5.030  16.807  0.00  0.00    +0.000 A 
BRANCH  22  23
ATOM     23  N   UNL     1       7.426   5.475  18.015  0.00  0.00    +0.000 N 
ATOM     24  O   UNL     1       7.248   6.655  18.349  0.00  0.00    +0.000 OA
ATOM     25  O   UNL     1       8.100   4.642  18.633  0.00  0.00    +0.000 OA
ENDBRANCH  22  23
ENDBRANCH  16  17
ENDBRANCH   9  16
TORSDOF 3
ENDMDL
MODEL 7
REMARK VINA RESULT:      -6.8      1.393      1.626
REMARK  Name = 
REMARK  3 active torsions:
REMARK  status: ('A' for Active; 'I' for Inactive)
REMARK    1  A    between atoms: N_9  and  C_10
REMARK    2  A    between atoms: C_10  and  C_11
REMARK    3  A    between atoms: C_16  and  N_17
REMARK                            x       y       z     vdW  Elec       q    Type
REMARK                         _______ _______ _______ _____ _____    ______ ____
ROOT
ATOM      1  N   UNL     1       7.224   3.820  11.333  0.00  0.00    +0.000 N 
ATOM      2  C   UNL     1       7.279   4.346  12.549  0.00  0.00    +0.000 A 
ATOM      3  N   UNL     1       8.239   5.152  12.978  0.00  0.00    +0.000 NA
ATOM      4  N   UNL     1       7.829   5.416  14.221  0.00  0.00    +0.000 N 
ATOM      5  C   UNL     1       6.672   4.741  14.536  0.00  0.00    +0.000 A 
ATOM      6  N   UNL     1       6.025   4.888  15.726  0.00  0.00    +0.000 N 
ATOM      7  C   UNL     1       6.698   5.316  16.956  0.00  0.00    +0.000 C 
ATOM      8  C   UNL     1       5.696   6.019  17.916  0.00  0.00    +0.000 C 
ATOM      9  N   UNL     1       4.424   5.294  18.189  0.00  0.00    +0.000 NA
ATOM     10  C   UNL     1       3.857   4.883  16.877  0.00  0.00    +0.000 C 
ATOM     11  C   UNL     1       4.814   4.085  15.964  0.00  0.00    +0.000 C 
ATOM     12  N   UNL     1       6.314   4.054  13.469  0.00  0.00    +0.000 NA
ATOM     13  H   UNL     1       8.069   3.829  10.788  0.00  0.00    +0.000 HD
ATOM     14  H   UNL     1       6.635   2.999  11.208  0.00  0.00    +0.000 HD
ATOM     15  H   UNL     1       8.343   6.067  14.788  0.00  0.00    +0.000 HD
ENDROOT
BRANCH   9  16
ATOM     16  C   UNL     1       4.642   4.183  19.142  0.00  0.00    +0.000 C 
BRANCH  16  17
ATOM     17  C   UNL     1       3.408   3.678  19.883  0.00  0.00    +0.000 A 
ATOM     18  C   UNL     1       3.055   4.187  21.143  0.00  0.00    +0.000 A 
ATOM     19  C   UNL     1       1.926   3.721  21.830  0.00  0.00    +0.000 A 
ATOM     20  C   UNL     1       1.109   2.738  21.271  0.00  0.00    +0.000 A 
ATOM     21  C   UNL     1       1.449   2.179  20.045  0.00  0.00    +0.000 A 
ATOM     22  C   UNL     1       2.609   2.623  19.391  0.00  0.00    +0.000 A 
BRANCH  22  23
ATOM     23  N   UNL     1       3.038   1.841  18.247  0.00  0.00    +0.000 N 
ATOM     24  O   UNL     1       2.435   2.033  17.182  0.00  0.00    +0.000 OA
ATOM     25  O   UNL     1       3.986   1.064  18.412  0.00  0.00    +0.000 OA
ENDBRANCH  22  23
ENDBRANCH  16  17
ENDBRANCH   9  16
TORSDOF 3
ENDMDL
MODEL 8
REMARK VINA RESULT:      -6.8      4.179      7.252
REMARK  Name = 
REMARK  3 active torsions:
REMARK  status: ('A' for Active; 'I' for Inactive)
REMARK    1  A    between atoms: N_9  and  C_10
REMARK    2  A    between atoms: C_10  and  C_11
REMARK    3  A    between atoms: C_16  and  N_17
REMARK                            x       y       z     vdW  Elec       q    Type
REMARK                         _______ _______ _______ _____ _____    ______ ____
ROOT
ATOM      1  N   UNL     1       0.149  12.399  18.370  0.00  0.00    +0.000 N 
ATOM      2  C   UNL     1       0.436  11.280  19.021  0.00  0.00    +0.000 A 
ATOM      3  N   UNL     1       0.053  11.013  20.261  0.00  0.00    +0.000 NA
ATOM      4  N   UNL     1       0.559   9.789  20.436  0.00  0.00    +0.000 N 
ATOM      5  C   UNL     1       1.268   9.362  19.338  0.00  0.00    +0.000 A 
ATOM      6  N   UNL     1       1.832   8.125  19.250  0.00  0.00    +0.000 N 
ATOM      7  C   UNL     1       2.219   7.338  20.424  0.00  0.00    +0.000 C 
ATOM      8  C   UNL     1       2.192   5.816  20.100  0.00  0.00    +0.000 C 
ATOM      9  N   UNL     1       2.914   5.391  18.869  0.00  0.00    +0.000 NA
ATOM     10  C   UNL     1       2.468   6.279  17.763  0.00  0.00    +0.000 C 
ATOM     11  C   UNL     1       2.599   7.794  18.038  0.00  0.00    +0.000 C 
ATOM     12  N   UNL     1       1.193  10.312  18.426  0.00  0.00    +0.000 NA
ATOM     13  H   UNL     1      -0.160  13.185  18.916  0.00  0.00    +0.000 HD
ATOM     14  H   UNL     1       0.730  12.631  17.566  0.00  0.00    +0.000 HD
ATOM     15  H   UNL     1       0.373   9.290  21.289  0.00  0.00    +0.000 HD
ENDROOT
BRANCH   9  16
ATOM     16  C   UNL     1       4.377   5.372  19.093  0.00  0.00    +0.000 C 
BRANCH  16  17
ATOM     17  C   UNL     1       5.235   4.930  17.913  0.00  0.00    +0.000 A 
ATOM     18  C   UNL     1       4.711   4.116  16.895  0.00  0.00    +0.000 A 
ATOM     19  C   UNL     1       5.498   3.702  15.812  0.00  0.00    +0.000 A 
ATOM     20  C   UNL     1       6.832   4.100  15.709  0.00  0.00    +0.000 A 
ATOM     21  C   UNL     1       7.398   4.870  16.718  0.00  0.00    +0.000 A 
ATOM     22  C   UNL     1       6.610   5.237  17.819  0.00  0.00    +0.000 A 
BRANCH  22  23
ATOM     23  N   UNL     1       7.315   5.826  18.942  0.00  0.00    +0.000 N 
ATOM     24  O   UNL     1       7.875   6.913  18.741  0.00  0.00    +0.000 OA
ATOM     25  O   UNL     1       7.282   5.217  20.018  0.00  0.00    +0.000 OA
ENDBRANCH  22  23
ENDBRANCH  16  17
ENDBRANCH   9  16
TORSDOF 3
ENDMDL
MODEL 9
REMARK VINA RESULT:      -6.7      3.855      7.487
REMARK  Name = 
REMARK  3 active torsions:
REMARK  status: ('A' for Active; 'I' for Inactive)
REMARK    1  A    between atoms: N_9  and  C_10
REMARK    2  A    between atoms: C_10  and  C_11
REMARK    3  A    between atoms: C_16  and  N_17
REMARK                            x       y       z     vdW  Elec       q    Type
REMARK                         _______ _______ _______ _____ _____    ______ ____
ROOT
ATOM      1  N   UNL     1       0.166  11.245  20.936  0.00  0.00    +0.000 N 
ATOM      2  C   UNL     1       0.542   9.978  21.057  0.00  0.00    +0.000 A 
ATOM      3  N   UNL     1       0.285   9.215  22.109  0.00  0.00    +0.000 NA
ATOM      4  N   UNL     1       0.836   8.057  21.737  0.00  0.00    +0.000 N 
ATOM      5  C   UNL     1       1.449   8.148  20.509  0.00  0.00    +0.000 A 
ATOM      6  N   UNL     1       2.034   7.087  19.888  0.00  0.00    +0.000 N 
ATOM      7  C   UNL     1       2.550   5.921  20.612  0.00  0.00    +0.000 C 
ATOM      8  C   UNL     1       2.531   4.657  19.704  0.00  0.00    +0.000 C 
ATOM      9  N   UNL     1       3.145   4.804  18.355  0.00  0.00    +0.000 NA
ATOM     10  C   UNL     1       2.574   6.030  17.739  0.00  0.00    +0.000 C 
ATOM     11  C   UNL     1       2.691   7.314  18.591  0.00  0.00    +0.000 C 
ATOM     12  N   UNL     1       1.264   9.377  20.067  0.00  0.00    +0.000 NA
ATOM     13  H   UNL     1      -0.110  11.726  21.774  0.00  0.00    +0.000 HD
ATOM     14  H   UNL     1       0.663  11.813  20.253  0.00  0.00    +0.000 HD
ATOM     15  H   UNL     1       0.744   7.249  22.328  0.00  0.00    +0.000 HD
ENDROOT
BRANCH   9  16
ATOM     16  C   UNL     1       4.622   4.787  18.441  0.00  0.00    +0.000 C 
BRANCH  16  17
ATOM     17  C   UNL     1       5.374   4.725  17.116  0.00  0.00    +0.000 A 
ATOM     18  C   UNL     1       4.809   4.115  15.985  0.00  0.00    +0.000 A 
ATOM     19  C   UNL     1       5.500   4.050  14.767  0.00  0.00    +0.000 A 
ATOM     20  C   UNL     1       6.774   4.605  14.642  0.00  0.00    +0.000 A 
ATOM     21  C   UNL     1       7.384   5.180  15.751  0.00  0.00    +0.000 A 
ATOM     22  C   UNL     1       6.698   5.195  16.975  0.00  0.00    +0.000 A 
BRANCH  22  23
ATOM     23  N   UNL     1       7.474   5.584  18.138  0.00  0.00    +0.000 N 
ATOM     24  O   UNL     1       7.973   4.669  18.807  0.00  0.00    +0.000 OA
ATOM     25  O   UNL     1       7.601   6.795  18.358  0.00  0.00    +0.000 OA
ENDBRANCH  22  23
ENDBRANCH  16  17
ENDBRANCH   9  16
TORSDOF 3
ENDMDL
