MODEL 1
REMARK VINA RESULT:      -7.6      0.000      0.000
REMARK  Name = 
REMARK  2 active torsions:
REMARK  status: ('A' for Active; 'I' for Inactive)
REMARK    1  A    between atoms: C_2  and  C_4
REMARK    2  A    between atoms: C_12  and  N_13
REMARK                            x       y       z     vdW  Elec       q    Type
REMARK                         _______ _______ _______ _____ _____    ______ ____
ROOT
ATOM      1  C   UNL     1       6.943   6.602  18.039  0.00  0.00    +0.000 A 
ATOM      2  S   UNL     1       7.049   5.589  19.420  0.00  0.00    +0.000 S 
ATOM      3  C   UNL     1       5.679   4.707  18.963  0.00  0.00    +0.000 A 
ATOM      4  N   UNL     1       5.249   3.704  19.747  0.00  0.00    +0.000 NA
ATOM      5  C   UNL     1       4.143   3.066  19.314  0.00  0.00    +0.000 A 
ATOM      6  C   UNL     1       3.457   3.385  18.137  0.00  0.00    +0.000 A 
ATOM      7  C   UNL     1       3.956   4.443  17.352  0.00  0.00    +0.000 A 
ATOM      8  C   UNL     1       5.110   5.142  17.776  0.00  0.00    +0.000 A 
ATOM      9  C   UNL     1       5.863   6.246  17.246  0.00  0.00    +0.000 A 
ATOM     10  C   UNL     1       2.211   2.655  17.697  0.00  0.00    +0.000 C 
ATOM     11  C   UNL     1       0.912   3.131  18.357  0.00  0.00    +0.000 C 
ATOM     12  C   UNL     1       0.686   2.708  19.815  0.00  0.00    +0.000 C 
ATOM     13  C   UNL     1       1.554   3.446  20.836  0.00  0.00    +0.000 C 
ATOM     14  C   UNL     1       2.747   2.635  21.353  0.00  0.00    +0.000 C 
ATOM     15  C   UNL     1       3.638   2.022  20.276  0.00  0.00    +0.000 C 
ENDROOT
BRANCH   1  17
ATOM     16  N   UNL     1       8.694   7.996  18.911  0.00  0.00    +0.000 N 
ATOM     17  C   UNL     1       7.912   7.666  17.836  0.00  0.00    +0.000 C 
ATOM     18  O   UNL     1       8.059   8.281  16.781  0.00  0.00    +0.000 OA
ATOM     19  H   UNL     1       9.367   8.742  18.806  0.00  0.00    +0.000 HD
ATOM     20  H   UNL     1       8.598   7.529  19.803  0.00  0.00    +0.000 HD
ENDBRANCH   1  17
BRANCH   9  21
ATOM     21  N   UNL     1       5.547   6.882  16.094  0.00  0.00    +0.000 N 
ATOM     22  H   UNL     1       6.215   7.386  15.523  0.00  0.00    +0.000 HD
ATOM     23  H   UNL     1       4.625   6.768  15.667  0.00  0.00    +0.000 HD
ENDBRANCH   9  21
TORSDOF 2
ENDMDL
MODEL 2
REMARK VINA RESULT:      -7.4      4.827      5.238
REMARK  Name = 
REMARK  2 active torsions:
REMARK  status: ('A' for Active; 'I' for Inactive)
REMARK    1  A    between atoms: C_2  and  C_4
REMARK    2  A    between atoms: C_12  and  N_13
REMARK                            x       y       z     vdW  Elec       q    Type
REMARK                         _______ _______ _______ _____ _____    ______ ____
ROOT
ATOM      1  C   UNL     1       0.948   9.842  19.864  0.00  0.00    +0.000 A 
ATOM      2  S   UNL     1       0.832   8.750  21.182  0.00  0.00    +0.000 S 
ATOM      3  C   UNL     1       1.599   7.515  20.317  0.00  0.00    +0.000 A 
ATOM      4  N   UNL     1       1.786   6.320  20.900  0.00  0.00    +0.000 NA
ATOM      5  C   UNL     1       2.392   5.391  20.134  0.00  0.00    +0.000 A 
ATOM      6  C   UNL     1       2.818   5.609  18.819  0.00  0.00    +0.000 A 
ATOM      7  C   UNL     1       2.600   6.883  18.260  0.00  0.00    +0.000 A 
ATOM      8  C   UNL     1       1.961   7.883  19.030  0.00  0.00    +0.000 A 
ATOM      9  C   UNL     1       1.579   9.246  18.782  0.00  0.00    +0.000 A 
ATOM     10  C   UNL     1       3.479   4.535  17.988  0.00  0.00    +0.000 C 
ATOM     11  C   UNL     1       2.516   3.553  17.311  0.00  0.00    +0.000 C 
ATOM     12  C   UNL     1       1.860   2.500  18.215  0.00  0.00    +0.000 C 
ATOM     13  C   UNL     1       0.766   3.040  19.137  0.00  0.00    +0.000 C 
ATOM     14  C   UNL     1       1.206   3.229  20.593  0.00  0.00    +0.000 C 
ATOM     15  C   UNL     1       2.485   4.038  20.791  0.00  0.00    +0.000 C 
ENDROOT
BRANCH   1  17
ATOM     16  N   UNL     1      -0.731  11.333  20.716  0.00  0.00    +0.000 N 
ATOM     17  C   UNL     1       0.414  11.189  19.979  0.00  0.00    +0.000 C 
ATOM     18  O   UNL     1       0.915  12.182  19.454  0.00  0.00    +0.000 OA
ATOM     19  H   UNL     1      -1.136  12.255  20.803  0.00  0.00    +0.000 HD
ATOM     20  H   UNL     1      -1.187  10.542  21.152  0.00  0.00    +0.000 HD
ENDBRANCH   1  17
BRANCH   9  21
ATOM     21  N   UNL     1       1.802   9.884  17.610  0.00  0.00    +0.000 N 
ATOM     22  H   UNL     1       1.256  10.670  17.279  0.00  0.00    +0.000 HD
ATOM     23  H   UNL     1       2.635   9.681  17.052  0.00  0.00    +0.000 HD
ENDBRANCH   9  21
TORSDOF 2
ENDMDL
MODEL 3
REMARK VINA RESULT:      -7.0      2.410      3.291
REMARK  Name = 
REMARK  2 active torsions:
REMARK  status: ('A' for Active; 'I' for Inactive)
REMARK    1  A    between atoms: C_2  and  C_4
REMARK    2  A    between atoms: C_12  and  N_13
REMARK                            x       y       z     vdW  Elec       q    Type
REMARK                         _______ _______ _______ _____ _____    ______ ____
ROOT
ATOM      1  C   UNL     1       5.984   4.918  15.235  0.00  0.00    +0.000 A 
ATOM      2  S   UNL     1       4.954   3.547  15.205  0.00  0.00    +0.000 S 
ATOM      3  C   UNL     1       4.037   4.119  16.507  0.00  0.00    +0.000 A 
ATOM      4  N   UNL     1       3.010   3.384  16.963  0.00  0.00    +0.000 NA
ATOM      5  C   UNL     1       2.345   3.909  18.011  0.00  0.00    +0.000 A 
ATOM      6  C   UNL     1       2.661   5.132  18.614  0.00  0.00    +0.000 A 
ATOM      7  C   UNL     1       3.745   5.862  18.090  0.00  0.00    +0.000 A 
ATOM      8  C   UNL     1       4.473   5.342  16.995  0.00  0.00    +0.000 A 
ATOM      9  C   UNL     1       5.607   5.797  16.240  0.00  0.00    +0.000 A 
ATOM     10  C   UNL     1       1.900   5.677  19.800  0.00  0.00    +0.000 C 
ATOM     11  C   UNL     1       2.326   5.114  21.159  0.00  0.00    +0.000 C 
ATOM     12  C   UNL     1       1.874   3.683  21.483  0.00  0.00    +0.000 C 
ATOM     13  C   UNL     1       2.623   2.588  20.721  0.00  0.00    +0.000 C 
ATOM     14  C   UNL     1       1.840   1.991  19.546  0.00  0.00    +0.000 C 
ATOM     15  C   UNL     1       1.271   3.003  18.556  0.00  0.00    +0.000 C 
ENDROOT
BRANCH   1  17
ATOM     16  N   UNL     1       6.944   4.350  13.108  0.00  0.00    +0.000 N 
ATOM     17  C   UNL     1       7.080   5.032  14.288  0.00  0.00    +0.000 C 
ATOM     18  O   UNL     1       8.105   5.682  14.485  0.00  0.00    +0.000 OA
ATOM     19  H   UNL     1       7.696   4.396  12.435  0.00  0.00    +0.000 HD
ATOM     20  H   UNL     1       6.126   3.788  12.909  0.00  0.00    +0.000 HD
ENDBRANCH   1  17
BRANCH   9  21
ATOM     21  N   UNL     1       6.251   6.962  16.485  0.00  0.00    +0.000 N 
ATOM     22  H   UNL     1       7.047   7.051  17.105  0.00  0.00    +0.000 HD
ATOM     23  H   UNL     1       6.040   7.802  15.941  0.00  0.00    +0.000 HD
ENDBRANCH   9  21
TORSDOF 2
ENDMDL
MODEL 4
REMARK VINA RESULT:      -6.8      1.539      1.661
REMARK  Name = 
REMARK  2 active torsions:
REMARK  status: ('A' for Active; 'I' for Inactive)
REMARK    1  A    between atoms: C_2  and  C_4
REMARK    2  A    between atoms: C_12  and  N_13
REMARK                            x       y       z     vdW  Elec       q    Type
REMARK                         _______ _______ _______ _____ _____    ______ ____
ROOT
ATOM      1  C   UNL     1       6.543   5.226  16.744  0.00  0.00    +0.000 A 
ATOM      2  S   UNL     1       6.625   5.131  18.455  0.00  0.00    +0.000 S 
ATOM      3  C   UNL     1       5.271   4.119  18.533  0.00  0.00    +0.000 A 
ATOM      4  N   UNL     1       4.831   3.699  19.730  0.00  0.00    +0.000 NA
ATOM      5  C   UNL     1       3.739   2.908  19.699  0.00  0.00    +0.000 A 
ATOM      6  C   UNL     1       3.077   2.522  18.528  0.00  0.00    +0.000 A 
ATOM      7  C   UNL     1       3.586   2.990  17.301  0.00  0.00    +0.000 A 
ATOM      8  C   UNL     1       4.726   3.827  17.292  0.00  0.00    +0.000 A 
ATOM      9  C   UNL     1       5.482   4.477  16.257  0.00  0.00    +0.000 A 
ATOM     10  C   UNL     1       1.845   1.649  18.539  0.00  0.00    +0.000 C 
ATOM     11  C   UNL     1       0.530   2.385  18.813  0.00  0.00    +0.000 C 
ATOM     12  C   UNL     1       0.275   2.821  20.263  0.00  0.00    +0.000 C 
ATOM     13  C   UNL     1       1.114   4.011  20.729  0.00  0.00    +0.000 C 
ATOM     14  C   UNL     1       2.301   3.634  21.622  0.00  0.00    +0.000 C 
ATOM     15  C   UNL     1       3.219   2.548  21.067  0.00  0.00    +0.000 C 
ENDROOT
BRANCH   1  17
ATOM     16  N   UNL     1       7.943   7.173  16.614  0.00  0.00    +0.000 N 
ATOM     17  C   UNL     1       7.509   6.024  16.008  0.00  0.00    +0.000 C 
ATOM     18  O   UNL     1       7.940   5.739  14.892  0.00  0.00    +0.000 OA
ATOM     19  H   UNL     1       8.604   7.758  16.121  0.00  0.00    +0.000 HD
ATOM     20  H   UNL     1       7.604   7.457  17.524  0.00  0.00    +0.000 HD
ENDBRANCH   1  17
BRANCH   9  21
ATOM     21  N   UNL     1       5.188   4.376  14.940  0.00  0.00    +0.000 N 
ATOM     22  H   UNL     1       5.834   4.610  14.195  0.00  0.00    +0.000 HD
ATOM     23  H   UNL     1       4.326   3.924  14.628  0.00  0.00    +0.000 HD
ENDBRANCH   9  21
TORSDOF 2
ENDMDL
MODEL 5
REMARK VINA RESULT:      -6.5      4.629      5.605
REMARK  Name = 
REMARK  2 active torsions:
REMARK  status: ('A' for Active; 'I' for Inactive)
REMARK    1  A    between atoms: C_2  and  C_4
REMARK    2  A    between atoms: C_12  and  N_13
REMARK                            x       y       z     vdW  Elec       q    Type
REMARK                         _______ _______ _______ _____ _____    ______ ____
ROOT
ATOM      1  C   UNL     1       0.822   9.037  19.726  0.00  0.00    +0.000 A 
ATOM      2  S   UNL     1       1.268   7.689  20.689  0.00  0.00    +0.000 S 
ATOM      3  C   UNL     1       2.467   7.215  19.594  0.00  0.00    +0.000 A 
ATOM      4  N   UNL     1       3.197   6.117  19.849  0.00  0.00    +0.000 NA
ATOM      5  C   UNL     1       4.119   5.806  18.917  0.00  0.00    +0.000 A 
ATOM      6  C   UNL     1       4.341   6.545  17.750  0.00  0.00    +0.000 A 
ATOM      7  C   UNL     1       3.550   7.690  17.536  0.00  0.00    +0.000 A 
ATOM      8  C   UNL     1       2.566   8.046  18.488  0.00  0.00    +0.000 A 
ATOM      9  C   UNL     1       1.602   9.108  18.582  0.00  0.00    +0.000 A 
ATOM     10  C   UNL     1       5.374   6.151  16.721  0.00  0.00    +0.000 C 
ATOM     11  C   UNL     1       4.924   5.076  15.726  0.00  0.00    +0.000 C 
ATOM     12  C   UNL     1       4.852   3.637  16.255  0.00  0.00    +0.000 C 
ATOM     13  C   UNL     1       3.676   3.358  17.192  0.00  0.00    +0.000 C 
ATOM     14  C   UNL     1       4.051   3.310  18.677  0.00  0.00    +0.000 C 
ATOM     15  C   UNL     1       4.839   4.511  19.192  0.00  0.00    +0.000 C 
ENDROOT
BRANCH   1  17
ATOM     16  N   UNL     1      -0.371  10.134  21.499  0.00  0.00    +0.000 N 
ATOM     17  C   UNL     1      -0.253   9.917  20.152  0.00  0.00    +0.000 C 
ATOM     18  O   UNL     1      -1.053  10.458  19.390  0.00  0.00    +0.000 OA
ATOM     19  H   UNL     1      -1.118  10.730  21.829  0.00  0.00    +0.000 HD
ATOM     20  H   UNL     1       0.253   9.698  22.166  0.00  0.00    +0.000 HD
ENDBRANCH   1  17
BRANCH   9  21
ATOM     21  N   UNL     1       1.462  10.076  17.647  0.00  0.00    +0.000 N 
ATOM     22  H   UNL     1       0.891   9.983  16.816  0.00  0.00    +0.000 HD
ATOM     23  H   UNL     1       1.830  11.016  17.807  0.00  0.00    +0.000 HD
ENDBRANCH   9  21
TORSDOF 2
ENDMDL
MODEL 6
REMARK VINA RESULT:      -6.4      4.890      6.560
REMARK  Name = 
REMARK  2 active torsions:
REMARK  status: ('A' for Active; 'I' for Inactive)
REMARK    1  A    between atoms: C_2  and  C_4
REMARK    2  A    between atoms: C_12  and  N_13
REMARK                            x       y       z     vdW  Elec       q    Type
REMARK                         _______ _______ _______ _____ _____    ______ ____
ROOT
ATOM      1  C   UNL     1       2.790   3.803  19.068  0.00  0.00    +0.000 A 
ATOM      2  S   UNL     1       2.961   4.941  17.796  0.00  0.00    +0.000 S 
ATOM      3  C   UNL     1       2.460   6.222  18.780  0.00  0.00    +0.000 A 
ATOM      4  N   UNL     1       2.384   7.460  18.264  0.00  0.00    +0.000 NA
ATOM      5  C   UNL     1       1.962   8.416  19.115  0.00  0.00    +0.000 A 
ATOM      6  C   UNL     1       1.618   8.187  20.452  0.00  0.00    +0.000 A 
ATOM      7  C   UNL     1       1.721   6.870  20.941  0.00  0.00    +0.000 A 
ATOM      8  C   UNL     1       2.154   5.837  20.077  0.00  0.00    +0.000 A 
ATOM      9  C   UNL     1       2.356   4.423  20.231  0.00  0.00    +0.000 A 
ATOM     10  C   UNL     1       1.132   9.285  21.368  0.00  0.00    +0.000 C 
ATOM     11  C   UNL     1      -0.357   9.624  21.243  0.00  0.00    +0.000 C 
ATOM     12  C   UNL     1      -0.777  10.426  20.003  0.00  0.00    +0.000 C 
ATOM     13  C   UNL     1      -0.780   9.629  18.697  0.00  0.00    +0.000 C 
ATOM     14  C   UNL     1       0.428   9.896  17.793  0.00  0.00    +0.000 C 
ATOM     15  C   UNL     1       1.791   9.765  18.466  0.00  0.00    +0.000 C 
ENDROOT
BRANCH   1  17
ATOM     16  N   UNL     1       2.291   1.747  17.932  0.00  0.00    +0.000 N 
ATOM     17  C   UNL     1       3.084   2.399  18.839  0.00  0.00    +0.000 C 
ATOM     18  O   UNL     1       3.976   1.773  19.408  0.00  0.00    +0.000 OA
ATOM     19  H   UNL     1       2.460   0.765  17.761  0.00  0.00    +0.000 HD
ATOM     20  H   UNL     1       1.534   2.216  17.451  0.00  0.00    +0.000 HD
ENDBRANCH   1  17
BRANCH   9  21
ATOM     21  N   UNL     1       2.139   3.757  21.389  0.00  0.00    +0.000 N 
ATOM     22  H   UNL     1       1.443   3.030  21.503  0.00  0.00    +0.000 HD
ATOM     23  H   UNL     1       2.772   3.868  22.184  0.00  0.00    +0.000 HD
ENDBRANCH   9  21
TORSDOF 2
ENDMDL
MODEL 7
REMARK VINA RESULT:      -6.3      3.059      3.421
REMARK  Name = 
REMARK  2 active torsions:
REMARK  status: ('A' for Active; 'I' for Inactive)
REMARK    1  A    between atoms: C_2  and  C_4
REMARK    2  A    between atoms: C_12  and  N_13
REMARK                            x       y       z     vdW  Elec       q    Type
REMARK                         _______ _______ _______ _____ _____    ______ ____
ROOT
ATOM      1  C   UNL     1       7.083   4.883  14.251  0.00  0.00    +0.000 A 
ATOM      2  S   UNL     1       7.282   5.687  15.754  0.00  0.00    +0.000 S 
ATOM      3  C   UNL     1       6.075   4.758  16.490  0.00  0.00    +0.000 A 
ATOM      4  N   UNL     1       5.767   4.979  17.778  0.00  0.00    +0.000 NA
ATOM      5  C   UNL     1       4.784   4.203  18.278  0.00  0.00    +0.000 A 
ATOM      6  C   UNL     1       4.104   3.222  17.548  0.00  0.00    +0.000 A 
ATOM      7  C   UNL     1       4.473   3.030  16.203  0.00  0.00    +0.000 A 
ATOM      8  C   UNL     1       5.495   3.829  15.639  0.00  0.00    +0.000 A 
ATOM      9  C   UNL     1       6.097   3.911  14.337  0.00  0.00    +0.000 A 
ATOM     10  C   UNL     1       2.996   2.386  18.143  0.00  0.00    +0.000 C 
ATOM     11  C   UNL     1       1.617   3.054  18.163  0.00  0.00    +0.000 C 
ATOM     12  C   UNL     1       1.400   4.152  19.214  0.00  0.00    +0.000 C 
ATOM     13  C   UNL     1       2.110   5.473  18.914  0.00  0.00    +0.000 C 
ATOM     14  C   UNL     1       3.388   5.700  19.729  0.00  0.00    +0.000 C 
ATOM     15  C   UNL     1       4.400   4.558  19.692  0.00  0.00    +0.000 C 
ENDROOT
BRANCH   1  17
ATOM     16  N   UNL     1       8.979   6.056  13.358  0.00  0.00    +0.000 N 
ATOM     17  C   UNL     1       7.892   5.262  13.105  0.00  0.00    +0.000 C 
ATOM     18  O   UNL     1       7.656   4.927  11.946  0.00  0.00    +0.000 OA
ATOM     19  H   UNL     1       9.554   6.349  12.580  0.00  0.00    +0.000 HD
ATOM     20  H   UNL     1       9.204   6.370  14.293  0.00  0.00    +0.000 HD
ENDBRANCH   1  17
BRANCH   9  21
ATOM     21  N   UNL     1       5.737   3.127  13.295  0.00  0.00    +0.000 N 
ATOM     22  H   UNL     1       6.126   3.207  12.363  0.00  0.00    +0.000 HD
ATOM     23  H   UNL     1       5.137   2.311  13.435  0.00  0.00    +0.000 HD
ENDBRANCH   9  21
TORSDOF 2
ENDMDL
MODEL 8
REMARK VINA RESULT:      -6.2      4.582      6.285
REMARK  Name = 
REMARK  2 active torsions:
REMARK  status: ('A' for Active; 'I' for Inactive)
REMARK    1  A    between atoms: C_2  and  C_4
REMARK    2  A    between atoms: C_12  and  N_13
REMARK                            x       y       z     vdW  Elec       q    Type
REMARK                         _______ _______ _______ _____ _____    ______ ____
ROOT
ATOM      1  C   UNL     1       1.062   9.296  19.606  0.00  0.00    +0.000 A 
ATOM      2  S   UNL     1       1.693   9.401  18.015  0.00  0.00    +0.000 S 
ATOM      3  C   UNL     1       2.589   7.978  18.201  0.00  0.00    +0.000 A 
ATOM      4  N   UNL     1       3.353   7.542  17.186  0.00  0.00    +0.000 NA
ATOM      5  C   UNL     1       4.044   6.410  17.428  0.00  0.00    +0.000 A 
ATOM      6  C   UNL     1       3.999   5.700  18.632  0.00  0.00    +0.000 A 
ATOM      7  C   UNL     1       3.177   6.201  19.661  0.00  0.00    +0.000 A 
ATOM      8  C   UNL     1       2.442   7.391  19.449  0.00  0.00    +0.000 A 
ATOM      9  C   UNL     1       1.543   8.169  20.256  0.00  0.00    +0.000 A 
ATOM     10  C   UNL     1       4.803   4.443  18.868  0.00  0.00    +0.000 C 
ATOM     11  C   UNL     1       6.261   4.672  19.278  0.00  0.00    +0.000 C 
ATOM     12  C   UNL     1       7.224   5.122  18.171  0.00  0.00    +0.000 C 
ATOM     13  C   UNL     1       7.052   6.575  17.725  0.00  0.00    +0.000 C 
ATOM     14  C   UNL     1       6.306   6.742  16.396  0.00  0.00    +0.000 C 
ATOM     15  C   UNL     1       4.966   6.018  16.303  0.00  0.00    +0.000 C 
ENDROOT
BRANCH   1  17
ATOM     16  N   UNL     1      -0.912  10.630  19.303  0.00  0.00    +0.000 N 
ATOM     17  C   UNL     1       0.154  10.316  20.103  0.00  0.00    +0.000 C 
ATOM     18  O   UNL     1       0.293  10.909  21.172  0.00  0.00    +0.000 OA
ATOM     19  H   UNL     1      -1.554  11.347  19.614  0.00  0.00    +0.000 HD
ATOM     20  H   UNL     1      -1.058  10.181  18.409  0.00  0.00    +0.000 HD
ENDBRANCH   1  17
BRANCH   9  21
ATOM     21  N   UNL     1       1.204   7.843  21.525  0.00  0.00    +0.000 N 
ATOM     22  H   UNL     1       0.272   7.943  21.906  0.00  0.00    +0.000 HD
ATOM     23  H   UNL     1       1.860   7.345  22.131  0.00  0.00    +0.000 HD
ENDBRANCH   9  21
TORSDOF 2
ENDMDL
MODEL 9
REMARK VINA RESULT:      -6.2      4.337      5.202
REMARK  Name = 
REMARK  2 active torsions:
REMARK  status: ('A' for Active; 'I' for Inactive)
REMARK    1  A    between atoms: C_2  and  C_4
REMARK    2  A    between atoms: C_12  and  N_13
REMARK                            x       y       z     vdW  Elec       q    Type
REMARK                         _______ _______ _______ _____ _____    ______ ____
ROOT
ATOM      1  C   UNL     1       1.609   9.452  19.319  0.00  0.00    +0.000 A 
ATOM      2  S   UNL     1       2.104   8.659  17.881  0.00  0.00    +0.000 S 
ATOM      3  C   UNL     1       2.013   7.134  18.608  0.00  0.00    +0.000 A 
ATOM      4  N   UNL     1       2.330   6.043  17.892  0.00  0.00    +0.000 NA
ATOM      5  C   UNL     1       2.243   4.872  18.554  0.00  0.00    +0.000 A 
ATOM      6  C   UNL     1       1.853   4.749  19.892  0.00  0.00    +0.000 A 
ATOM      7  C   UNL     1       1.527   5.927  20.592  0.00  0.00    +0.000 A 
ATOM      8  C   UNL     1       1.613   7.176  19.935  0.00  0.00    +0.000 A 
ATOM      9  C   UNL     1       1.376   8.536  20.334  0.00  0.00    +0.000 A 
ATOM     10  C   UNL     1       1.785   3.418  20.602  0.00  0.00    +0.000 C 
ATOM     11  C   UNL     1       3.123   2.902  21.144  0.00  0.00    +0.000 C 
ATOM     12  C   UNL     1       4.112   2.341  20.114  0.00  0.00    +0.000 C 
ATOM     13  C   UNL     1       4.796   3.397  19.243  0.00  0.00    +0.000 C 
ATOM     14  C   UNL     1       4.223   3.513  17.826  0.00  0.00    +0.000 C 
ATOM     15  C   UNL     1       2.709   3.688  17.745  0.00  0.00    +0.000 C 
ENDROOT
BRANCH   1  17
ATOM     16  N   UNL     1       1.788  11.567  18.195  0.00  0.00    +0.000 N 
ATOM     17  C   UNL     1       1.491  10.900  19.354  0.00  0.00    +0.000 C 
ATOM     18  O   UNL     1       1.158  11.547  20.345  0.00  0.00    +0.000 OA
ATOM     19  H   UNL     1       1.730  12.575  18.190  0.00  0.00    +0.000 HD
ATOM     20  H   UNL     1       2.082  11.078  17.359  0.00  0.00    +0.000 HD
ENDBRANCH   1  17
BRANCH   9  21
ATOM     21  N   UNL     1       0.973   8.891  21.576  0.00  0.00    +0.000 N 
ATOM     22  H   UNL     1       1.272   9.736  22.049  0.00  0.00    +0.000 HD
ATOM     23  H   UNL     1       0.229   8.378  22.053  0.00  0.00    +0.000 HD
ENDBRANCH   9  21
TORSDOF 2
ENDMDL
