MODEL 1
REMARK VINA RESULT:      -7.0      0.000      0.000
REMARK  Name = 
REMARK  2 active torsions:
REMARK  status: ('A' for Active; 'I' for Inactive)
REMARK    1  A    between atoms: C_6  and  C_7
REMARK    2  A    between atoms: C_8  and  C_9
REMARK                            x       y       z     vdW  Elec       q    Type
REMARK                         _______ _______ _______ _____ _____    ______ ____
ROOT
ATOM      1  C   UNL     1       1.673   5.397  20.814  0.00  0.00    +0.000 C 
ATOM      2  C   UNL     1       1.800   4.284  20.080  0.00  0.00    +0.000 C 
ATOM      3  C   UNL     1       1.508   2.941  20.637  0.00  0.00    +0.000 C 
ATOM      4  O   UNL     1       1.013   2.695  21.719  0.00  0.00    +0.000 OA
ATOM      5  N   UNL     1       1.891   2.024  19.699  0.00  0.00    +0.000 N 
ATOM      6  C   UNL     1       2.228   2.604  18.420  0.00  0.00    +0.000 C 
ATOM      7  C   UNL     1       3.444   1.924  17.809  0.00  0.00    +0.000 C 
ATOM      8  C   UNL     1       2.285   4.139  18.656  0.00  0.00    +0.000 C 
ATOM      9  H   UNL     1       1.642   1.053  19.840  0.00  0.00    +0.000 HD
ENDROOT
BRANCH   8  10
ATOM     10  C   UNL     1       3.597   4.855  18.396  0.00  0.00    +0.000 A 
ATOM     11  C   UNL     1       3.683   5.797  17.357  0.00  0.00    +0.000 A 
ATOM     12  C   UNL     1       4.869   6.496  17.124  0.00  0.00    +0.000 A 
ATOM     13  C   UNL     1       5.982   6.255  17.926  0.00  0.00    +0.000 A 
ATOM     14 BR   UNL     1       7.588   7.201  17.614  0.00  0.00    +0.000 Br
ATOM     15  C   UNL     1       5.919   5.325  18.960  0.00  0.00    +0.000 A 
ATOM     16  C   UNL     1       4.728   4.636  19.199  0.00  0.00    +0.000 A 
ENDBRANCH   8  10
TORSDOF 1
ENDMDL
MODEL 2
REMARK VINA RESULT:      -6.8      0.159      1.257
REMARK  Name = 
REMARK  2 active torsions:
REMARK  status: ('A' for Active; 'I' for Inactive)
REMARK    1  A    between atoms: C_6  and  C_7
REMARK    2  A    between atoms: C_8  and  C_9
REMARK                            x       y       z     vdW  Elec       q    Type
REMARK                         _______ _______ _______ _____ _____    ______ ____
ROOT
ATOM      1  C   UNL     1       1.667   5.371  20.969  0.00  0.00    +0.000 C 
ATOM      2  C   UNL     1       1.805   4.254  20.244  0.00  0.00    +0.000 C 
ATOM      3  C   UNL     1       1.578   2.909  20.826  0.00  0.00    +0.000 C 
ATOM      4  O   UNL     1       1.131   2.660  21.928  0.00  0.00    +0.000 OA
ATOM      5  N   UNL     1       1.958   1.993  19.885  0.00  0.00    +0.000 N 
ATOM      6  C   UNL     1       2.230   2.568  18.588  0.00  0.00    +0.000 C 
ATOM      7  C   UNL     1       3.446   1.921  17.942  0.00  0.00    +0.000 C 
ATOM      8  C   UNL     1       2.244   4.107  18.805  0.00  0.00    +0.000 C 
ATOM      9  H   UNL     1       1.747   1.016  20.046  0.00  0.00    +0.000 HD
ENDROOT
BRANCH   8  10
ATOM     10  C   UNL     1       3.521   4.863  18.490  0.00  0.00    +0.000 A 
ATOM     11  C   UNL     1       4.654   4.688  19.302  0.00  0.00    +0.000 A 
ATOM     12  C   UNL     1       5.851   5.343  19.007  0.00  0.00    +0.000 A 
ATOM     13  C   UNL     1       5.924   6.185  17.900  0.00  0.00    +0.000 A 
ATOM     14 BR   UNL     1       7.544   7.070  17.498  0.00  0.00    +0.000 Br
ATOM     15  C   UNL     1       4.813   6.373  17.083  0.00  0.00    +0.000 A 
ATOM     16  C   UNL     1       3.620   5.707  17.371  0.00  0.00    +0.000 A 
ENDBRANCH   8  10
TORSDOF 1
ENDMDL
MODEL 3
REMARK VINA RESULT:      -6.6      4.064      5.731
REMARK  Name = 
REMARK  2 active torsions:
REMARK  status: ('A' for Active; 'I' for Inactive)
REMARK    1  A    between atoms: C_6  and  C_7
REMARK    2  A    between atoms: C_8  and  C_9
REMARK                            x       y       z     vdW  Elec       q    Type
REMARK                         _______ _______ _______ _____ _____    ______ ____
ROOT
ATOM      1  C   UNL     1       7.784   5.525  19.825  0.00  0.00    +0.000 C 
ATOM      2  C   UNL     1       7.372   5.918  18.613  0.00  0.00    +0.000 C 
ATOM      3  C   UNL     1       7.748   7.237  18.048  0.00  0.00    +0.000 C 
ATOM      4  O   UNL     1       8.542   8.028  18.515  0.00  0.00    +0.000 OA
ATOM      5  N   UNL     1       7.040   7.395  16.889  0.00  0.00    +0.000 N 
ATOM      6  C   UNL     1       6.352   6.200  16.459  0.00  0.00    +0.000 C 
ATOM      7  C   UNL     1       4.970   6.526  15.913  0.00  0.00    +0.000 C 
ATOM      8  C   UNL     1       6.458   5.203  17.646  0.00  0.00    +0.000 C 
ATOM      9  H   UNL     1       7.266   8.175  16.285  0.00  0.00    +0.000 HD
ENDROOT
BRANCH   8  10
ATOM     10  C   UNL     1       5.172   4.715  18.288  0.00  0.00    +0.000 A 
ATOM     11  C   UNL     1       4.536   5.503  19.262  0.00  0.00    +0.000 A 
ATOM     12  C   UNL     1       3.332   5.092  19.837  0.00  0.00    +0.000 A 
ATOM     13  C   UNL     1       2.756   3.886  19.446  0.00  0.00    +0.000 A 
ATOM     14 BR   UNL     1       1.125   3.329  20.221  0.00  0.00    +0.000 Br
ATOM     15  C   UNL     1       3.370   3.089  18.483  0.00  0.00    +0.000 A 
ATOM     16  C   UNL     1       4.567   3.508  17.900  0.00  0.00    +0.000 A 
ENDBRANCH   8  10
TORSDOF 1
ENDMDL
MODEL 4
REMARK VINA RESULT:      -6.6      4.062      5.720
REMARK  Name = 
REMARK  2 active torsions:
REMARK  status: ('A' for Active; 'I' for Inactive)
REMARK    1  A    between atoms: C_6  and  C_7
REMARK    2  A    between atoms: C_8  and  C_9
REMARK                            x       y       z     vdW  Elec       q    Type
REMARK                         _______ _______ _______ _____ _____    ______ ____
ROOT
ATOM      1  C   UNL     1       7.713   5.488  19.825  0.00  0.00    +0.000 C 
ATOM      2  C   UNL     1       7.321   5.892  18.609  0.00  0.00    +0.000 C 
ATOM      3  C   UNL     1       7.737   7.199  18.046  0.00  0.00    +0.000 C 
ATOM      4  O   UNL     1       8.550   7.968  18.519  0.00  0.00    +0.000 OA
ATOM      5  N   UNL     1       7.043   7.375  16.882  0.00  0.00    +0.000 N 
ATOM      6  C   UNL     1       6.326   6.199  16.446  0.00  0.00    +0.000 C 
ATOM      7  C   UNL     1       4.958   6.563  15.890  0.00  0.00    +0.000 C 
ATOM      8  C   UNL     1       6.395   5.201  17.635  0.00  0.00    +0.000 C 
ATOM      9  H   UNL     1       7.295   8.149  16.279  0.00  0.00    +0.000 HD
ENDROOT
BRANCH   8  10
ATOM     10  C   UNL     1       5.091   4.749  18.267  0.00  0.00    +0.000 A 
ATOM     11  C   UNL     1       4.509   3.533  17.871  0.00  0.00    +0.000 A 
ATOM     12  C   UNL     1       3.331   3.079  18.467  0.00  0.00    +0.000 A 
ATOM     13  C   UNL     1       2.721   3.841  19.461  0.00  0.00    +0.000 A 
ATOM     14 BR   UNL     1       1.127   3.228  20.270  0.00  0.00    +0.000 Br
ATOM     15  C   UNL     1       3.280   5.050  19.867  0.00  0.00    +0.000 A 
ATOM     16  C   UNL     1       4.466   5.496  19.279  0.00  0.00    +0.000 A 
ENDBRANCH   8  10
TORSDOF 1
ENDMDL
MODEL 5
REMARK VINA RESULT:      -6.6      2.878      3.887
REMARK  Name = 
REMARK  2 active torsions:
REMARK  status: ('A' for Active; 'I' for Inactive)
REMARK    1  A    between atoms: C_6  and  C_7
REMARK    2  A    between atoms: C_8  and  C_9
REMARK                            x       y       z     vdW  Elec       q    Type
REMARK                         _______ _______ _______ _____ _____    ______ ____
ROOT
ATOM      1  C   UNL     1       1.694   3.332  17.771  0.00  0.00    +0.000 C 
ATOM      2  C   UNL     1       2.989   3.587  17.998  0.00  0.00    +0.000 C 
ATOM      3  C   UNL     1       3.907   2.554  18.537  0.00  0.00    +0.000 C 
ATOM      4  O   UNL     1       3.659   1.376  18.703  0.00  0.00    +0.000 OA
ATOM      5  N   UNL     1       5.096   3.173  18.805  0.00  0.00    +0.000 N 
ATOM      6  C   UNL     1       5.181   4.521  18.293  0.00  0.00    +0.000 C 
ATOM      7  C   UNL     1       5.876   5.444  19.283  0.00  0.00    +0.000 C 
ATOM      8  C   UNL     1       3.742   4.886  17.831  0.00  0.00    +0.000 C 
ATOM      9  H   UNL     1       5.896   2.602  19.050  0.00  0.00    +0.000 HD
ENDROOT
BRANCH   8  10
ATOM     10  C   UNL     1       3.055   6.065  18.496  0.00  0.00    +0.000 A 
ATOM     11  C   UNL     1       2.900   7.270  17.790  0.00  0.00    +0.000 A 
ATOM     12  C   UNL     1       2.236   8.354  18.367  0.00  0.00    +0.000 A 
ATOM     13  C   UNL     1       1.728   8.245  19.659  0.00  0.00    +0.000 A 
ATOM     14 BR   UNL     1       0.828   9.711  20.441  0.00  0.00    +0.000 Br
ATOM     15  C   UNL     1       1.872   7.060  20.376  0.00  0.00    +0.000 A 
ATOM     16  C   UNL     1       2.524   5.973  19.792  0.00  0.00    +0.000 A 
ENDBRANCH   8  10
TORSDOF 1
ENDMDL
MODEL 6
REMARK VINA RESULT:      -6.5      3.672      4.873
REMARK  Name = 
REMARK  2 active torsions:
REMARK  status: ('A' for Active; 'I' for Inactive)
REMARK    1  A    between atoms: C_6  and  C_7
REMARK    2  A    between atoms: C_8  and  C_9
REMARK                            x       y       z     vdW  Elec       q    Type
REMARK                         _______ _______ _______ _____ _____    ______ ____
ROOT
ATOM      1  C   UNL     1       7.132   6.437  18.143  0.00  0.00    +0.000 C 
ATOM      2  C   UNL     1       6.380   5.377  17.818  0.00  0.00    +0.000 C 
ATOM      3  C   UNL     1       6.757   4.457  16.717  0.00  0.00    +0.000 C 
ATOM      4  O   UNL     1       7.800   4.459  16.094  0.00  0.00    +0.000 OA
ATOM      5  N   UNL     1       5.713   3.594  16.539  0.00  0.00    +0.000 N 
ATOM      6  C   UNL     1       4.706   3.675  17.571  0.00  0.00    +0.000 C 
ATOM      7  C   UNL     1       3.306   3.564  16.985  0.00  0.00    +0.000 C 
ATOM      8  C   UNL     1       5.058   4.939  18.403  0.00  0.00    +0.000 C 
ATOM      9  H   UNL     1       5.839   2.800  15.922  0.00  0.00    +0.000 HD
ENDROOT
BRANCH   8  10
ATOM     10  C   UNL     1       4.035   6.059  18.472  0.00  0.00    +0.000 A 
ATOM     11  C   UNL     1       3.170   6.146  19.575  0.00  0.00    +0.000 A 
ATOM     12  C   UNL     1       2.248   7.190  19.678  0.00  0.00    +0.000 A 
ATOM     13  C   UNL     1       2.179   8.152  18.674  0.00  0.00    +0.000 A 
ATOM     14 BR   UNL     1       0.933   9.566  18.812  0.00  0.00    +0.000 Br
ATOM     15  C   UNL     1       3.026   8.083  17.571  0.00  0.00    +0.000 A 
ATOM     16  C   UNL     1       3.956   7.046  17.476  0.00  0.00    +0.000 A 
ENDBRANCH   8  10
TORSDOF 1
ENDMDL
MODEL 7
REMARK VINA RESULT:      -6.5      2.865      4.073
REMARK  Name = 
REMARK  2 active torsions:
REMARK  status: ('A' for Active; 'I' for Inactive)
REMARK    1  A    between atoms: C_6  and  C_7
REMARK    2  A    between atoms: C_8  and  C_9
REMARK                            x       y       z     vdW  Elec       q    Type
REMARK                         _______ _______ _______ _____ _____    ______ ____
ROOT
ATOM      1  C   UNL     1       1.608   3.189  17.828  0.00  0.00    +0.000 C 
ATOM      2  C   UNL     1       2.902   3.475  18.025  0.00  0.00    +0.000 C 
ATOM      3  C   UNL     1       3.868   2.451  18.493  0.00  0.00    +0.000 C 
ATOM      4  O   UNL     1       3.661   1.260  18.618  0.00  0.00    +0.000 OA
ATOM      5  N   UNL     1       5.046   3.095  18.748  0.00  0.00    +0.000 N 
ATOM      6  C   UNL     1       5.073   4.465  18.289  0.00  0.00    +0.000 C 
ATOM      7  C   UNL     1       5.772   5.369  19.293  0.00  0.00    +0.000 C 
ATOM      8  C   UNL     1       3.610   4.803  17.888  0.00  0.00    +0.000 C 
ATOM      9  H   UNL     1       5.870   2.540  18.944  0.00  0.00    +0.000 HD
ENDROOT
BRANCH   8  10
ATOM     10  C   UNL     1       2.910   5.932  18.621  0.00  0.00    +0.000 A 
ATOM     11  C   UNL     1       2.434   5.727  19.927  0.00  0.00    +0.000 A 
ATOM     12  C   UNL     1       1.822   6.764  20.634  0.00  0.00    +0.000 A 
ATOM     13  C   UNL     1       1.675   8.014  20.038  0.00  0.00    +0.000 A 
ATOM     14 BR   UNL     1       0.850   9.419  20.995  0.00  0.00    +0.000 Br
ATOM     15  C   UNL     1       2.139   8.238  18.745  0.00  0.00    +0.000 A 
ATOM     16  C   UNL     1       2.762   7.204  18.044  0.00  0.00    +0.000 A 
ENDBRANCH   8  10
TORSDOF 1
ENDMDL
MODEL 8
REMARK VINA RESULT:      -6.5      4.023      5.613
REMARK  Name = 
REMARK  2 active torsions:
REMARK  status: ('A' for Active; 'I' for Inactive)
REMARK    1  A    between atoms: C_6  and  C_7
REMARK    2  A    between atoms: C_8  and  C_9
REMARK                            x       y       z     vdW  Elec       q    Type
REMARK                         _______ _______ _______ _____ _____    ______ ____
ROOT
ATOM      1  C   UNL     1       4.660   4.659  15.574  0.00  0.00    +0.000 C 
ATOM      2  C   UNL     1       5.610   5.137  16.388  0.00  0.00    +0.000 C 
ATOM      3  C   UNL     1       7.052   5.006  16.069  0.00  0.00    +0.000 C 
ATOM      4  O   UNL     1       7.533   4.602  15.030  0.00  0.00    +0.000 OA
ATOM      5  N   UNL     1       7.747   5.440  17.164  0.00  0.00    +0.000 N 
ATOM      6  C   UNL     1       6.923   6.081  18.162  0.00  0.00    +0.000 C 
ATOM      7  C   UNL     1       7.349   5.684  19.567  0.00  0.00    +0.000 C 
ATOM      8  C   UNL     1       5.454   5.807  17.733  0.00  0.00    +0.000 C 
ATOM      9  H   UNL     1       8.750   5.558  17.087  0.00  0.00    +0.000 HD
ENDROOT
BRANCH   8  10
ATOM     10  C   UNL     1       4.563   5.034  18.688  0.00  0.00    +0.000 A 
ATOM     11  C   UNL     1       3.548   5.704  19.392  0.00  0.00    +0.000 A 
ATOM     12  C   UNL     1       2.691   5.006  20.245  0.00  0.00    +0.000 A 
ATOM     13  C   UNL     1       2.846   3.631  20.406  0.00  0.00    +0.000 A 
ATOM     14 BR   UNL     1       1.686   2.684  21.558  0.00  0.00    +0.000 Br
ATOM     15  C   UNL     1       3.845   2.948  19.718  0.00  0.00    +0.000 A 
ATOM     16  C   UNL     1       4.693   3.645  18.855  0.00  0.00    +0.000 A 
ENDBRANCH   8  10
TORSDOF 1
ENDMDL
MODEL 9
REMARK VINA RESULT:      -6.5      3.683      4.771
REMARK  Name = 
REMARK  2 active torsions:
REMARK  status: ('A' for Active; 'I' for Inactive)
REMARK    1  A    between atoms: C_6  and  C_7
REMARK    2  A    between atoms: C_8  and  C_9
REMARK                            x       y       z     vdW  Elec       q    Type
REMARK                         _______ _______ _______ _____ _____    ______ ____
ROOT
ATOM      1  C   UNL     1       7.207   6.395  18.151  0.00  0.00    +0.000 C 
ATOM      2  C   UNL     1       6.435   5.353  17.814  0.00  0.00    +0.000 C 
ATOM      3  C   UNL     1       6.787   4.449  16.693  0.00  0.00    +0.000 C 
ATOM      4  O   UNL     1       7.824   4.445  16.060  0.00  0.00    +0.000 OA
ATOM      5  N   UNL     1       5.727   3.606  16.508  0.00  0.00    +0.000 N 
ATOM      6  C   UNL     1       4.731   3.683  17.551  0.00  0.00    +0.000 C 
ATOM      7  C   UNL     1       3.324   3.606  16.977  0.00  0.00    +0.000 C 
ATOM      8  C   UNL     1       5.111   4.927  18.403  0.00  0.00    +0.000 C 
ATOM      9  H   UNL     1       5.835   2.822  15.876  0.00  0.00    +0.000 HD
ENDROOT
BRANCH   8  10
ATOM     10  C   UNL     1       4.106   6.060  18.502  0.00  0.00    +0.000 A 
ATOM     11  C   UNL     1       4.041   7.025  17.482  0.00  0.00    +0.000 A 
ATOM     12  C   UNL     1       3.098   8.054  17.533  0.00  0.00    +0.000 A 
ATOM     13  C   UNL     1       2.217   8.130  18.609  0.00  0.00    +0.000 A 
ATOM     14 BR   UNL     1       0.939   9.521  18.679  0.00  0.00    +0.000 Br
ATOM     15  C   UNL     1       2.266   7.185  19.630  0.00  0.00    +0.000 A 
ATOM     16  C   UNL     1       3.200   6.150  19.571  0.00  0.00    +0.000 A 
ENDBRANCH   8  10
TORSDOF 1
ENDMDL
