MODEL 1
REMARK VINA RESULT:      -9.4      0.000      0.000
REMARK  Name = 
REMARK  8 active torsions:
REMARK  status: ('A' for Active; 'I' for Inactive)
REMARK    1  A    between atoms: C_1  and  C_2
REMARK    2  A    between atoms: C_7  and  N_8
REMARK    3  A    between atoms: C_10  and  C_11
REMARK    4  A    between atoms: C_17  and  C_18
REMARK    5  A    between atoms: C_20  and  C_21
REMARK    6  A    between atoms: C_24  and  O_25
REMARK    7  A    between atoms: O_25  and  C_26
REMARK    8  A    between atoms: C_26  and  C_27
REMARK                            x       y       z     vdW  Elec       q    Type
REMARK                         _______ _______ _______ _____ _____    ______ ____
ROOT
ATOM      1  N   UNL     1       2.307   6.447  20.275  0.00  0.00    +0.000 N 
ATOM      2  N   UNL     1       1.265   5.801  20.868  0.00  0.00    +0.000 NA
ATOM      3  C   UNL     1       1.190   4.676  20.107  0.00  0.00    +0.000 A 
ATOM      4  C   UNL     1       0.863   3.450  20.931  0.00  0.00    +0.000 C 
ATOM      5  C   UNL     1       2.071   4.826  18.921  0.00  0.00    +0.000 A 
ATOM      6  C   UNL     1       3.062   5.311  19.762  0.00  0.00    +0.000 A 
ATOM      7  N   UNL     1       4.098   4.446  20.172  0.00  0.00    +0.000 N 
ATOM      8  C   UNL     1       4.452   3.065  19.623  0.00  0.00    +0.000 C 
ATOM      9  O   UNL     1       5.599   2.745  19.965  0.00  0.00    +0.000 OA
ATOM     10  C   UNL     1       3.524   1.988  18.906  0.00  0.00    +0.000 C 
ATOM     11  C   UNL     1       4.163   0.965  17.926  0.00  0.00    +0.000 C 
ATOM     12  S   UNL     1       2.058   2.438  17.943  0.00  0.00    +0.000 S 
ATOM     13  C   UNL     1       2.409   4.159  17.614  0.00  0.00    +0.000 C 
ATOM     14  H   UNL     1       4.778   4.783  20.838  0.00  0.00    +0.000 HD
ENDROOT
BRANCH   1  21
ATOM     15  C   UNL     1       0.861   8.886  21.637  0.00  0.00    +0.000 C 
ATOM     16  C   UNL     1       1.317   8.821  20.201  0.00  0.00    +0.000 A 
ATOM     17  C   UNL     1       0.951   9.950  19.411  0.00  0.00    +0.000 A 
ATOM     18  C   UNL     1       1.281  10.049  18.074  0.00  0.00    +0.000 A 
ATOM     19  C   UNL     1       2.047   9.050  17.503  0.00  0.00    +0.000 A 
ATOM     20  C   UNL     1       2.463   7.950  18.271  0.00  0.00    +0.000 A 
ATOM     21  C   UNL     1       2.052   7.755  19.606  0.00  0.00    +0.000 A 
ENDBRANCH   1  21
BRANCH  13  22
ATOM     22  C   UNL     1       3.889   4.474  17.105  0.00  0.00    +0.000 A 
ATOM     23  C   UNL     1       4.424   5.754  16.921  0.00  0.00    +0.000 A 
ATOM     24  C   UNL     1       5.618   5.966  16.155  0.00  0.00    +0.000 A 
ATOM     25  C   UNL     1       6.337   4.908  15.583  0.00  0.00    +0.000 A 
ATOM     26  C   UNL     1       5.925   3.646  15.914  0.00  0.00    +0.000 A 
ATOM     27  C   UNL     1       4.804   3.481  16.732  0.00  0.00    +0.000 A 
BRANCH  25  28
ATOM     28  O   UNL     1       7.375   5.171  14.734  0.00  0.00    +0.000 OA
BRANCH  28  29
ATOM     29  C   UNL     1       7.090   5.303  13.319  0.00  0.00    +0.000 C 
BRANCH  29  30
ATOM     30  C   UNL     1       6.583   4.057  12.604  0.00  0.00    +0.000 A 
ATOM     31  C   UNL     1       5.210   3.809  12.434  0.00  0.00    +0.000 A 
ATOM     32  C   UNL     1       4.765   2.704  11.698  0.00  0.00    +0.000 A 
ATOM     33  C   UNL     1       5.677   1.823  11.119  0.00  0.00    +0.000 A 
ATOM     34  C   UNL     1       7.043   2.054  11.267  0.00  0.00    +0.000 A 
ATOM     35  C   UNL     1       7.494   3.162  11.991  0.00  0.00    +0.000 A 
ENDBRANCH  29  30
ENDBRANCH  28  29
ENDBRANCH  25  28
ENDBRANCH  13  22
TORSDOF 5
ENDMDL
MODEL 2
REMARK VINA RESULT:      -8.3      3.005      4.930
REMARK  Name = 
REMARK  8 active torsions:
REMARK  status: ('A' for Active; 'I' for Inactive)
REMARK    1  A    between atoms: C_1  and  C_2
REMARK    2  A    between atoms: C_7  and  N_8
REMARK    3  A    between atoms: C_10  and  C_11
REMARK    4  A    between atoms: C_17  and  C_18
REMARK    5  A    between atoms: C_20  and  C_21
REMARK    6  A    between atoms: C_24  and  O_25
REMARK    7  A    between atoms: O_25  and  C_26
REMARK    8  A    between atoms: C_26  and  C_27
REMARK                            x       y       z     vdW  Elec       q    Type
REMARK                         _______ _______ _______ _____ _____    ______ ____
ROOT
ATOM      1  N   UNL     1       1.922   6.937  20.545  0.00  0.00    +0.000 N 
ATOM      2  N   UNL     1       1.045   6.005  21.011  0.00  0.00    +0.000 NA
ATOM      3  C   UNL     1       1.174   5.033  20.069  0.00  0.00    +0.000 A 
ATOM      4  C   UNL     1       1.118   3.645  20.668  0.00  0.00    +0.000 C 
ATOM      5  C   UNL     1       1.975   5.554  18.933  0.00  0.00    +0.000 A 
ATOM      6  C   UNL     1       2.873   6.078  19.851  0.00  0.00    +0.000 A 
ATOM      7  N   UNL     1       4.071   5.381  20.115  0.00  0.00    +0.000 N 
ATOM      8  C   UNL     1       4.676   4.212  19.340  0.00  0.00    +0.000 C 
ATOM      9  O   UNL     1       5.873   4.073  19.632  0.00  0.00    +0.000 OA
ATOM     10  C   UNL     1       3.961   3.107  18.444  0.00  0.00    +0.000 C 
ATOM     11  C   UNL     1       4.763   2.413  17.308  0.00  0.00    +0.000 C 
ATOM     12  S   UNL     1       2.409   3.412  17.561  0.00  0.00    +0.000 S 
ATOM     13  C   UNL     1       2.404   5.199  17.534  0.00  0.00    +0.000 C 
ATOM     14  H   UNL     1       4.688   5.730  20.834  0.00  0.00    +0.000 HD
ENDROOT
BRANCH   1  21
ATOM     15  C   UNL     1       0.279   8.890  22.383  0.00  0.00    +0.000 C 
ATOM     16  C   UNL     1       0.576   9.097  20.920  0.00  0.00    +0.000 A 
ATOM     17  C   UNL     1      -0.046  10.245  20.346  0.00  0.00    +0.000 A 
ATOM     18  C   UNL     1       0.114  10.578  19.015  0.00  0.00    +0.000 A 
ATOM     19  C   UNL     1       0.956   9.810  18.234  0.00  0.00    +0.000 A 
ATOM     20  C   UNL     1       1.620   8.702  18.786  0.00  0.00    +0.000 A 
ATOM     21  C   UNL     1       1.396   8.262  20.107  0.00  0.00    +0.000 A 
ENDBRANCH   1  21
BRANCH  13  22
ATOM     22  C   UNL     1       3.777   5.884  17.097  0.00  0.00    +0.000 A 
ATOM     23  C   UNL     1       4.829   5.237  16.440  0.00  0.00    +0.000 A 
ATOM     24  C   UNL     1       6.143   5.809  16.379  0.00  0.00    +0.000 A 
ATOM     25  C   UNL     1       6.440   7.061  16.936  0.00  0.00    +0.000 A 
ATOM     26  C   UNL     1       5.378   7.779  17.413  0.00  0.00    +0.000 A 
ATOM     27  C   UNL     1       4.098   7.219  17.380  0.00  0.00    +0.000 A 
BRANCH  25  28
ATOM     28  O   UNL     1       7.736   7.491  16.990  0.00  0.00    +0.000 OA
BRANCH  28  29
ATOM     29  C   UNL     1       8.254   7.954  18.263  0.00  0.00    +0.000 C 
BRANCH  29  30
ATOM     30  C   UNL     1       8.619   9.431  18.356  0.00  0.00    +0.000 A 
ATOM     31  C   UNL     1       8.063  10.386  17.488  0.00  0.00    +0.000 A 
ATOM     32  C   UNL     1       8.342  11.749  17.646  0.00  0.00    +0.000 A 
ATOM     33  C   UNL     1       9.181  12.188  18.668  0.00  0.00    +0.000 A 
ATOM     34  C   UNL     1       9.736  11.259  19.546  0.00  0.00    +0.000 A 
ATOM     35  C   UNL     1       9.453   9.898  19.401  0.00  0.00    +0.000 A 
ENDBRANCH  29  30
ENDBRANCH  28  29
ENDBRANCH  25  28
ENDBRANCH  13  22
TORSDOF 5
ENDMDL
MODEL 3
REMARK VINA RESULT:      -8.1      6.504     10.027
REMARK  Name = 
REMARK  8 active torsions:
REMARK  status: ('A' for Active; 'I' for Inactive)
REMARK    1  A    between atoms: C_1  and  C_2
REMARK    2  A    between atoms: C_7  and  N_8
REMARK    3  A    between atoms: C_10  and  C_11
REMARK    4  A    between atoms: C_17  and  C_18
REMARK    5  A    between atoms: C_20  and  C_21
REMARK    6  A    between atoms: C_24  and  O_25
REMARK    7  A    between atoms: O_25  and  C_26
REMARK    8  A    between atoms: C_26  and  C_27
REMARK                            x       y       z     vdW  Elec       q    Type
REMARK                         _______ _______ _______ _____ _____    ______ ____
ROOT
ATOM      1  N   UNL     1      -4.801  13.603  20.389  0.00  0.00    +0.000 N 
ATOM      2  N   UNL     1      -5.129  14.441  21.412  0.00  0.00    +0.000 NA
ATOM      3  C   UNL     1      -4.009  14.365  22.180  0.00  0.00    +0.000 A 
ATOM      4  C   UNL     1      -3.643  15.700  22.790  0.00  0.00    +0.000 C 
ATOM      5  C   UNL     1      -3.141  13.272  21.674  0.00  0.00    +0.000 A 
ATOM      6  C   UNL     1      -3.351  13.747  20.388  0.00  0.00    +0.000 A 
ATOM      7  N   UNL     1      -2.360  14.546  19.780  0.00  0.00    +0.000 N 
ATOM      8  C   UNL     1      -0.922  14.783  20.241  0.00  0.00    +0.000 C 
ATOM      9  O   UNL     1      -0.242  15.245  19.313  0.00  0.00    +0.000 OA
ATOM     10  C   UNL     1      -0.299  14.719  21.705  0.00  0.00    +0.000 C 
ATOM     11  C   UNL     1       1.212  14.404  21.875  0.00  0.00    +0.000 C 
ATOM     12  S   UNL     1      -0.967  13.657  23.011  0.00  0.00    +0.000 S 
ATOM     13  C   UNL     1      -1.902  12.493  22.029  0.00  0.00    +0.000 C 
ATOM     14  H   UNL     1      -2.546  14.946  18.873  0.00  0.00    +0.000 HD
ENDROOT
BRANCH   1  21
ATOM     15  C   UNL     1      -4.682  11.794  17.820  0.00  0.00    +0.000 C 
ATOM     16  C   UNL     1      -5.603  11.595  18.996  0.00  0.00    +0.000 A 
ATOM     17  C   UNL     1      -6.548  10.538  18.837  0.00  0.00    +0.000 A 
ATOM     18  C   UNL     1      -7.472  10.226  19.814  0.00  0.00    +0.000 A 
ATOM     19  C   UNL     1      -7.434  10.917  21.010  0.00  0.00    +0.000 A 
ATOM     20  C   UNL     1      -6.482  11.930  21.213  0.00  0.00    +0.000 A 
ATOM     21  C   UNL     1      -5.598  12.356  20.200  0.00  0.00    +0.000 A 
ENDBRANCH   1  21
BRANCH  13  22
ATOM     22  C   UNL     1      -1.140  11.898  20.759  0.00  0.00    +0.000 A 
ATOM     23  C   UNL     1      -1.742  11.561  19.542  0.00  0.00    +0.000 A 
ATOM     24  C   UNL     1      -1.077  10.732  18.578  0.00  0.00    +0.000 A 
ATOM     25  C   UNL     1       0.223  10.247  18.780  0.00  0.00    +0.000 A 
ATOM     26  C   UNL     1       0.884  10.725  19.878  0.00  0.00    +0.000 A 
ATOM     27  C   UNL     1       0.229  11.597  20.751  0.00  0.00    +0.000 A 
BRANCH  25  28
ATOM     28  O   UNL     1       0.752   9.337  17.909  0.00  0.00    +0.000 OA
BRANCH  28  29
ATOM     29  C   UNL     1       2.192   9.172  17.877  0.00  0.00    +0.000 C 
BRANCH  29  30
ATOM     30  C   UNL     1       2.716   7.741  17.865  0.00  0.00    +0.000 A 
ATOM     31  C   UNL     1       1.914   6.656  18.261  0.00  0.00    +0.000 A 
ATOM     32  C   UNL     1       2.384   5.341  18.160  0.00  0.00    +0.000 A 
ATOM     33  C   UNL     1       3.660   5.080  17.667  0.00  0.00    +0.000 A 
ATOM     34  C   UNL     1       4.470   6.139  17.261  0.00  0.00    +0.000 A 
ATOM     35  C   UNL     1       4.003   7.453  17.348  0.00  0.00    +0.000 A 
ENDBRANCH  29  30
ENDBRANCH  28  29
ENDBRANCH  25  28
ENDBRANCH  13  22
TORSDOF 5
ENDMDL
MODEL 4
REMARK VINA RESULT:      -7.9      8.455     10.388
REMARK  Name = 
REMARK  8 active torsions:
REMARK  status: ('A' for Active; 'I' for Inactive)
REMARK    1  A    between atoms: C_1  and  C_2
REMARK    2  A    between atoms: C_7  and  N_8
REMARK    3  A    between atoms: C_10  and  C_11
REMARK    4  A    between atoms: C_17  and  C_18
REMARK    5  A    between atoms: C_20  and  C_21
REMARK    6  A    between atoms: C_24  and  O_25
REMARK    7  A    between atoms: O_25  and  C_26
REMARK    8  A    between atoms: C_26  and  C_27
REMARK                            x       y       z     vdW  Elec       q    Type
REMARK                         _______ _______ _______ _____ _____    ______ ____
ROOT
ATOM      1  N   UNL     1       7.808  14.602  21.996  0.00  0.00    +0.000 N 
ATOM      2  N   UNL     1       8.121  15.926  22.070  0.00  0.00    +0.000 NA
ATOM      3  C   UNL     1       9.271  15.962  21.344  0.00  0.00    +0.000 A 
ATOM      4  C   UNL     1       9.371  17.212  20.497  0.00  0.00    +0.000 C 
ATOM      5  C   UNL     1       9.716  14.575  21.062  0.00  0.00    +0.000 A 
ATOM      6  C   UNL     1       8.411  14.262  20.714  0.00  0.00    +0.000 A 
ATOM      7  N   UNL     1       8.057  14.213  19.349  0.00  0.00    +0.000 N 
ATOM      8  C   UNL     1       8.980  14.213  18.131  0.00  0.00    +0.000 C 
ATOM      9  O   UNL     1       8.370  13.821  17.126  0.00  0.00    +0.000 OA
ATOM     10  C   UNL     1      10.447  14.812  17.967  0.00  0.00    +0.000 C 
ATOM     11  C   UNL     1      11.402  14.203  16.903  0.00  0.00    +0.000 C 
ATOM     12  S   UNL     1      11.607  14.962  19.349  0.00  0.00    +0.000 S 
ATOM     13  C   UNL     1      10.882  13.804  20.501  0.00  0.00    +0.000 C 
ATOM     14  H   UNL     1       7.092  14.053  19.101  0.00  0.00    +0.000 HD
ENDROOT
BRANCH   1  21
ATOM     15  C   UNL     1       8.688  15.691  24.812  0.00  0.00    +0.000 C 
ATOM     16  C   UNL     1       8.291  14.271  24.501  0.00  0.00    +0.000 A 
ATOM     17  C   UNL     1       8.437  13.363  25.591  0.00  0.00    +0.000 A 
ATOM     18  C   UNL     1       8.127  12.022  25.476  0.00  0.00    +0.000 A 
ATOM     19  C   UNL     1       7.596  11.562  24.286  0.00  0.00    +0.000 A 
ATOM     20  C   UNL     1       7.396  12.445  23.211  0.00  0.00    +0.000 A 
ATOM     21  C   UNL     1       7.805  13.794  23.249  0.00  0.00    +0.000 A 
ENDBRANCH   1  21
BRANCH  13  22
ATOM     22  C   UNL     1      10.472  12.389  19.888  0.00  0.00    +0.000 A 
ATOM     23  C   UNL     1      10.819  11.931  18.612  0.00  0.00    +0.000 A 
ATOM     24  C   UNL     1      10.150  10.817  18.005  0.00  0.00    +0.000 A 
ATOM     25  C   UNL     1       9.142  10.100  18.666  0.00  0.00    +0.000 A 
ATOM     26  C   UNL     1       8.930  10.423  19.978  0.00  0.00    +0.000 A 
ATOM     27  C   UNL     1       9.661  11.463  20.558  0.00  0.00    +0.000 A 
BRANCH  25  28
ATOM     28  O   UNL     1       8.429   9.150  17.991  0.00  0.00    +0.000 OA
BRANCH  28  29
ATOM     29  C   UNL     1       8.330   7.824  18.569  0.00  0.00    +0.000 C 
BRANCH  29  30
ATOM     30  C   UNL     1       7.435   6.827  17.843  0.00  0.00    +0.000 A 
ATOM     31  C   UNL     1       7.622   5.439  17.965  0.00  0.00    +0.000 A 
ATOM     32  C   UNL     1       6.736   4.538  17.362  0.00  0.00    +0.000 A 
ATOM     33  C   UNL     1       5.649   5.000  16.624  0.00  0.00    +0.000 A 
ATOM     34  C   UNL     1       5.439   6.372  16.496  0.00  0.00    +0.000 A 
ATOM     35  C   UNL     1       6.313   7.276  17.106  0.00  0.00    +0.000 A 
ENDBRANCH  29  30
ENDBRANCH  28  29
ENDBRANCH  25  28
ENDBRANCH  13  22
TORSDOF 5
ENDMDL
MODEL 5
REMARK VINA RESULT:      -7.9      3.703      7.676
REMARK  Name = 
REMARK  8 active torsions:
REMARK  status: ('A' for Active; 'I' for Inactive)
REMARK    1  A    between atoms: C_1  and  C_2
REMARK    2  A    between atoms: C_7  and  N_8
REMARK    3  A    between atoms: C_10  and  C_11
REMARK    4  A    between atoms: C_17  and  C_18
REMARK    5  A    between atoms: C_20  and  C_21
REMARK    6  A    between atoms: C_24  and  O_25
REMARK    7  A    between atoms: O_25  and  C_26
REMARK    8  A    between atoms: C_26  and  C_27
REMARK                            x       y       z     vdW  Elec       q    Type
REMARK                         _______ _______ _______ _____ _____    ______ ____
ROOT
ATOM      1  N   UNL     1       5.796   5.117  17.643  0.00  0.00    +0.000 N 
ATOM      2  N   UNL     1       6.175   3.898  18.117  0.00  0.00    +0.000 NA
ATOM      3  C   UNL     1       5.263   3.709  19.108  0.00  0.00    +0.000 A 
ATOM      4  C   UNL     1       4.804   2.270  19.195  0.00  0.00    +0.000 C 
ATOM      5  C   UNL     1       4.510   4.970  19.328  0.00  0.00    +0.000 A 
ATOM      6  C   UNL     1       4.372   5.088  17.953  0.00  0.00    +0.000 A 
ATOM      7  N   UNL     1       3.157   4.703  17.349  0.00  0.00    +0.000 N 
ATOM      8  C   UNL     1       1.823   4.388  18.024  0.00  0.00    +0.000 C 
ATOM      9  O   UNL     1       0.901   4.424  17.196  0.00  0.00    +0.000 OA
ATOM     10  C   UNL     1       1.528   3.851  19.494  0.00  0.00    +0.000 C 
ATOM     11  C   UNL     1       0.158   4.164  20.157  0.00  0.00    +0.000 C 
ATOM     12  S   UNL     1       2.617   4.191  20.900  0.00  0.00    +0.000 S 
ATOM     13  C   UNL     1       3.520   5.600  20.272  0.00  0.00    +0.000 C 
ATOM     14  H   UNL     1       3.085   4.726  16.343  0.00  0.00    +0.000 HD
ENDROOT
BRANCH   1  21
ATOM     15  C   UNL     1       8.246   5.177  19.613  0.00  0.00    +0.000 C 
ATOM     16  C   UNL     1       7.791   6.317  18.737  0.00  0.00    +0.000 A 
ATOM     17  C   UNL     1       8.509   7.534  18.929  0.00  0.00    +0.000 A 
ATOM     18  C   UNL     1       8.216   8.679  18.215  0.00  0.00    +0.000 A 
ATOM     19  C   UNL     1       7.240   8.622  17.238  0.00  0.00    +0.000 A 
ATOM     20  C   UNL     1       6.550   7.422  16.995  0.00  0.00    +0.000 A 
ATOM     21  C   UNL     1       6.739   6.264  17.778  0.00  0.00    +0.000 A 
ENDBRANCH   1  21
BRANCH  13  22
ATOM     22  C   UNL     1       2.631   6.738  19.592  0.00  0.00    +0.000 A 
ATOM     23  C   UNL     1       2.824   7.253  18.306  0.00  0.00    +0.000 A 
ATOM     24  C   UNL     1       2.218   8.485  17.890  0.00  0.00    +0.000 A 
ATOM     25  C   UNL     1       1.370   9.221  18.729  0.00  0.00    +0.000 A 
ATOM     26  C   UNL     1       1.030   8.631  19.915  0.00  0.00    +0.000 A 
ATOM     27  C   UNL     1       1.578   7.390  20.249  0.00  0.00    +0.000 A 
BRANCH  25  28
ATOM     28  O   UNL     1       0.944  10.462  18.346  0.00  0.00    +0.000 OA
BRANCH  28  29
ATOM     29  C   UNL     1      -0.214  11.027  19.010  0.00  0.00    +0.000 C 
BRANCH  29  30
ATOM     30  C   UNL     1      -1.540  10.939  18.263  0.00  0.00    +0.000 A 
ATOM     31  C   UNL     1      -1.742  10.019  17.219  0.00  0.00    +0.000 A 
ATOM     32  C   UNL     1      -2.994   9.893  16.605  0.00  0.00    +0.000 A 
ATOM     33  C   UNL     1      -4.068  10.680  17.015  0.00  0.00    +0.000 A 
ATOM     34  C   UNL     1      -3.893  11.592  18.053  0.00  0.00    +0.000 A 
ATOM     35  C   UNL     1      -2.649  11.715  18.679  0.00  0.00    +0.000 A 
ENDBRANCH  29  30
ENDBRANCH  28  29
ENDBRANCH  25  28
ENDBRANCH  13  22
TORSDOF 5
ENDMDL
MODEL 6
REMARK VINA RESULT:      -7.9      9.135     11.082
REMARK  Name = 
REMARK  8 active torsions:
REMARK  status: ('A' for Active; 'I' for Inactive)
REMARK    1  A    between atoms: C_1  and  C_2
REMARK    2  A    between atoms: C_7  and  N_8
REMARK    3  A    between atoms: C_10  and  C_11
REMARK    4  A    between atoms: C_17  and  C_18
REMARK    5  A    between atoms: C_20  and  C_21
REMARK    6  A    between atoms: C_24  and  O_25
REMARK    7  A    between atoms: O_25  and  C_26
REMARK    8  A    between atoms: C_26  and  C_27
REMARK                            x       y       z     vdW  Elec       q    Type
REMARK                         _______ _______ _______ _____ _____    ______ ____
ROOT
ATOM      1  N   UNL     1       8.603  15.811  22.366  0.00  0.00    +0.000 N 
ATOM      2  N   UNL     1       9.250  17.009  22.356  0.00  0.00    +0.000 NA
ATOM      3  C   UNL     1      10.256  16.756  21.477  0.00  0.00    +0.000 A 
ATOM      4  C   UNL     1      10.548  17.943  20.586  0.00  0.00    +0.000 C 
ATOM      5  C   UNL     1      10.290  15.302  21.177  0.00  0.00    +0.000 A 
ATOM      6  C   UNL     1       8.912  15.336  21.024  0.00  0.00    +0.000 A 
ATOM      7  N   UNL     1       8.367  15.387  19.723  0.00  0.00    +0.000 N 
ATOM      8  C   UNL     1       9.077  15.158  18.390  0.00  0.00    +0.000 C 
ATOM      9  O   UNL     1       8.251  14.941  17.492  0.00  0.00    +0.000 OA
ATOM     10  C   UNL     1      10.609  15.363  18.005  0.00  0.00    +0.000 C 
ATOM     11  C   UNL     1      11.217  14.537  16.838  0.00  0.00    +0.000 C 
ATOM     12  S   UNL     1      11.954  15.203  19.207  0.00  0.00    +0.000 S 
ATOM     13  C   UNL     1      11.130  14.263  20.484  0.00  0.00    +0.000 C 
ATOM     14  H   UNL     1       7.368  15.480  19.618  0.00  0.00    +0.000 HD
ENDROOT
BRANCH   1  21
ATOM     15  C   UNL     1       6.749  13.320  22.864  0.00  0.00    +0.000 C 
ATOM     16  C   UNL     1       7.666  13.953  23.879  0.00  0.00    +0.000 A 
ATOM     17  C   UNL     1       7.576  13.395  25.188  0.00  0.00    +0.000 A 
ATOM     18  C   UNL     1       8.339  13.862  26.240  0.00  0.00    +0.000 A 
ATOM     19  C   UNL     1       9.267  14.857  25.997  0.00  0.00    +0.000 A 
ATOM     20  C   UNL     1       9.412  15.391  24.705  0.00  0.00    +0.000 A 
ATOM     21  C   UNL     1       8.574  15.022  23.632  0.00  0.00    +0.000 A 
ENDBRANCH   1  21
BRANCH  13  22
ATOM     22  C   UNL     1      10.292  13.003  19.977  0.00  0.00    +0.000 A 
ATOM     23  C   UNL     1       9.386  12.271  20.752  0.00  0.00    +0.000 A 
ATOM     24  C   UNL     1       8.929  10.972  20.349  0.00  0.00    +0.000 A 
ATOM     25  C   UNL     1       9.329  10.380  19.143  0.00  0.00    +0.000 A 
ATOM     26  C   UNL     1      10.063  11.165  18.297  0.00  0.00    +0.000 A 
ATOM     27  C   UNL     1      10.420  12.457  18.692  0.00  0.00    +0.000 A 
BRANCH  25  28
ATOM     28  O   UNL     1       8.993   9.083  18.878  0.00  0.00    +0.000 OA
BRANCH  28  29
ATOM     29  C   UNL     1       8.032   8.822  17.824  0.00  0.00    +0.000 C 
BRANCH  29  30
ATOM     30  C   UNL     1       7.454   7.413  17.759  0.00  0.00    +0.000 A 
ATOM     31  C   UNL     1       6.528   7.039  16.770  0.00  0.00    +0.000 A 
ATOM     32  C   UNL     1       6.075   5.717  16.672  0.00  0.00    +0.000 A 
ATOM     33  C   UNL     1       6.533   4.744  17.558  0.00  0.00    +0.000 A 
ATOM     34  C   UNL     1       7.457   5.091  18.541  0.00  0.00    +0.000 A 
ATOM     35  C   UNL     1       7.922   6.405  18.637  0.00  0.00    +0.000 A 
ENDBRANCH  29  30
ENDBRANCH  28  29
ENDBRANCH  25  28
ENDBRANCH  13  22
TORSDOF 5
ENDMDL
MODEL 7
REMARK VINA RESULT:      -7.8      9.125     12.972
REMARK  Name = 
REMARK  8 active torsions:
REMARK  status: ('A' for Active; 'I' for Inactive)
REMARK    1  A    between atoms: C_1  and  C_2
REMARK    2  A    between atoms: C_7  and  N_8
REMARK    3  A    between atoms: C_10  and  C_11
REMARK    4  A    between atoms: C_17  and  C_18
REMARK    5  A    between atoms: C_20  and  C_21
REMARK    6  A    between atoms: C_24  and  O_25
REMARK    7  A    between atoms: O_25  and  C_26
REMARK    8  A    between atoms: C_26  and  C_27
REMARK                            x       y       z     vdW  Elec       q    Type
REMARK                         _______ _______ _______ _____ _____    ______ ____
ROOT
ATOM      1  N   UNL     1      -6.210  13.517  20.061  0.00  0.00    +0.000 N 
ATOM      2  N   UNL     1      -7.208  14.443  20.074  0.00  0.00    +0.000 NA
ATOM      3  C   UNL     1      -6.922  15.120  21.218  0.00  0.00    +0.000 A 
ATOM      4  C   UNL     1      -7.169  16.606  21.080  0.00  0.00    +0.000 C 
ATOM      5  C   UNL     1      -5.869  14.390  21.969  0.00  0.00    +0.000 A 
ATOM      6  C   UNL     1      -5.170  14.244  20.780  0.00  0.00    +0.000 A 
ATOM      7  N   UNL     1      -4.092  15.111  20.506  0.00  0.00    +0.000 N 
ATOM      8  C   UNL     1      -3.386  16.074  21.460  0.00  0.00    +0.000 C 
ATOM      9  O   UNL     1      -2.289  16.416  20.995  0.00  0.00    +0.000 OA
ATOM     10  C   UNL     1      -3.938  16.800  22.765  0.00  0.00    +0.000 C 
ATOM     11  C   UNL     1      -2.940  17.229  23.876  0.00  0.00    +0.000 C 
ATOM     12  S   UNL     1      -5.244  16.095  23.802  0.00  0.00    +0.000 S 
ATOM     13  C   UNL     1      -5.163  14.383  23.299  0.00  0.00    +0.000 C 
ATOM     14  H   UNL     1      -3.630  15.046  19.611  0.00  0.00    +0.000 HD
ENDROOT
BRANCH   1  21
ATOM     15  C   UNL     1      -5.374  11.304  17.989  0.00  0.00    +0.000 C 
ATOM     16  C   UNL     1      -6.261  11.097  19.190  0.00  0.00    +0.000 A 
ATOM     17  C   UNL     1      -6.820   9.789  19.296  0.00  0.00    +0.000 A 
ATOM     18  C   UNL     1      -7.662   9.432  20.331  0.00  0.00    +0.000 A 
ATOM     19  C   UNL     1      -7.915  10.353  21.329  0.00  0.00    +0.000 A 
ATOM     20  C   UNL     1      -7.339  11.633  21.276  0.00  0.00    +0.000 A 
ATOM     21  C   UNL     1      -6.568  12.074  20.180  0.00  0.00    +0.000 A 
ENDBRANCH   1  21
BRANCH  13  22
ATOM     22  C   UNL     1      -3.698  13.753  23.236  0.00  0.00    +0.000 A 
ATOM     23  C   UNL     1      -2.556  14.305  23.827  0.00  0.00    +0.000 A 
ATOM     24  C   UNL     1      -1.237  13.880  23.457  0.00  0.00    +0.000 A 
ATOM     25  C   UNL     1      -1.016  12.865  22.515  0.00  0.00    +0.000 A 
ATOM     26  C   UNL     1      -2.124  12.196  22.074  0.00  0.00    +0.000 A 
ATOM     27  C   UNL     1      -3.389  12.587  22.522  0.00  0.00    +0.000 A 
BRANCH  25  28
ATOM     28  O   UNL     1       0.253  12.605  22.081  0.00  0.00    +0.000 OA
BRANCH  28  29
ATOM     29  C   UNL     1       0.592  12.930  20.710  0.00  0.00    +0.000 C 
BRANCH  29  30
ATOM     30  C   UNL     1      -0.069  12.089  19.624  0.00  0.00    +0.000 A 
ATOM     31  C   UNL     1       0.144  10.703  19.530  0.00  0.00    +0.000 A 
ATOM     32  C   UNL     1      -0.541   9.933  18.581  0.00  0.00    +0.000 A 
ATOM     33  C   UNL     1      -1.447  10.529  17.706  0.00  0.00    +0.000 A 
ATOM     34  C   UNL     1      -1.679  11.900  17.786  0.00  0.00    +0.000 A 
ATOM     35  C   UNL     1      -1.008  12.672  18.739  0.00  0.00    +0.000 A 
ENDBRANCH  29  30
ENDBRANCH  28  29
ENDBRANCH  25  28
ENDBRANCH  13  22
TORSDOF 5
ENDMDL
MODEL 8
REMARK VINA RESULT:      -7.8      8.631     10.731
REMARK  Name = 
REMARK  8 active torsions:
REMARK  status: ('A' for Active; 'I' for Inactive)
REMARK    1  A    between atoms: C_1  and  C_2
REMARK    2  A    between atoms: C_7  and  N_8
REMARK    3  A    between atoms: C_10  and  C_11
REMARK    4  A    between atoms: C_17  and  C_18
REMARK    5  A    between atoms: C_20  and  C_21
REMARK    6  A    between atoms: C_24  and  O_25
REMARK    7  A    between atoms: O_25  and  C_26
REMARK    8  A    between atoms: C_26  and  C_27
REMARK                            x       y       z     vdW  Elec       q    Type
REMARK                         _______ _______ _______ _____ _____    ______ ____
ROOT
ATOM      1  N   UNL     1       7.101  15.020  22.487  0.00  0.00    +0.000 N 
ATOM      2  N   UNL     1       6.966  16.367  22.332  0.00  0.00    +0.000 NA
ATOM      3  C   UNL     1       8.025  16.644  21.526  0.00  0.00    +0.000 A 
ATOM      4  C   UNL     1       7.695  17.696  20.491  0.00  0.00    +0.000 C 
ATOM      5  C   UNL     1       8.895  15.445  21.430  0.00  0.00    +0.000 A 
ATOM      6  C   UNL     1       7.757  14.677  21.232  0.00  0.00    +0.000 A 
ATOM      7  N   UNL     1       7.412  14.286  19.921  0.00  0.00    +0.000 N 
ATOM      8  C   UNL     1       8.261  14.373  18.653  0.00  0.00    +0.000 C 
ATOM      9  O   UNL     1       7.793  13.641  17.769  0.00  0.00    +0.000 OA
ATOM     10  C   UNL     1       9.447  15.371  18.290  0.00  0.00    +0.000 C 
ATOM     11  C   UNL     1      10.527  14.928  17.265  0.00  0.00    +0.000 C 
ATOM     12  S   UNL     1      10.521  16.118  19.542  0.00  0.00    +0.000 S 
ATOM     13  C   UNL     1      10.238  15.004  20.910  0.00  0.00    +0.000 C 
ATOM     14  H   UNL     1       6.548  13.786  19.774  0.00  0.00    +0.000 HD
ENDROOT
BRANCH   1  21
ATOM     15  C   UNL     1       6.612  12.036  23.351  0.00  0.00    +0.000 C 
ATOM     16  C   UNL     1       7.078  13.150  24.254  0.00  0.00    +0.000 A 
ATOM     17  C   UNL     1       7.200  12.788  25.628  0.00  0.00    +0.000 A 
ATOM     18  C   UNL     1       7.607  13.690  26.591  0.00  0.00    +0.000 A 
ATOM     19  C   UNL     1       7.969  14.964  26.198  0.00  0.00    +0.000 A 
ATOM     20  C   UNL     1       7.905  15.333  24.844  0.00  0.00    +0.000 A 
ATOM     21  C   UNL     1       7.388  14.480  23.847  0.00  0.00    +0.000 A 
ENDBRANCH   1  21
BRANCH  13  22
ATOM     22  C   UNL     1      10.302  13.449  20.556  0.00  0.00    +0.000 A 
ATOM     23  C   UNL     1      10.836  12.911  19.380  0.00  0.00    +0.000 A 
ATOM     24  C   UNL     1      10.563  11.561  18.979  0.00  0.00    +0.000 A 
ATOM     25  C   UNL     1       9.782  10.694  19.757  0.00  0.00    +0.000 A 
ATOM     26  C   UNL     1       9.414  11.152  20.991  0.00  0.00    +0.000 A 
ATOM     27  C   UNL     1       9.770  12.447  21.379  0.00  0.00    +0.000 A 
BRANCH  25  28
ATOM     28  O   UNL     1       9.421   9.473  19.260  0.00  0.00    +0.000 OA
BRANCH  28  29
ATOM     29  C   UNL     1       8.445   9.427  18.189  0.00  0.00    +0.000 C 
BRANCH  29  30
ATOM     30  C   UNL     1       7.704   8.110  17.994  0.00  0.00    +0.000 A 
ATOM     31  C   UNL     1       6.595   8.005  17.137  0.00  0.00    +0.000 A 
ATOM     32  C   UNL     1       5.982   6.768  16.904  0.00  0.00    +0.000 A 
ATOM     33  C   UNL     1       6.459   5.613  17.520  0.00  0.00    +0.000 A 
ATOM     34  C   UNL     1       7.562   5.692  18.367  0.00  0.00    +0.000 A 
ATOM     35  C   UNL     1       8.186   6.922  18.595  0.00  0.00    +0.000 A 
ENDBRANCH  29  30
ENDBRANCH  28  29
ENDBRANCH  25  28
ENDBRANCH  13  22
TORSDOF 5
ENDMDL
MODEL 9
REMARK VINA RESULT:      -7.7      6.582     10.259
REMARK  Name = 
REMARK  8 active torsions:
REMARK  status: ('A' for Active; 'I' for Inactive)
REMARK    1  A    between atoms: C_1  and  C_2
REMARK    2  A    between atoms: C_7  and  N_8
REMARK    3  A    between atoms: C_10  and  C_11
REMARK    4  A    between atoms: C_17  and  C_18
REMARK    5  A    between atoms: C_20  and  C_21
REMARK    6  A    between atoms: C_24  and  O_25
REMARK    7  A    between atoms: O_25  and  C_26
REMARK    8  A    between atoms: C_26  and  C_27
REMARK                            x       y       z     vdW  Elec       q    Type
REMARK                         _______ _______ _______ _____ _____    ______ ____
ROOT
ATOM      1  N   UNL     1      -4.915  13.664  20.215  0.00  0.00    +0.000 N 
ATOM      2  N   UNL     1      -5.282  14.424  21.284  0.00  0.00    +0.000 NA
ATOM      3  C   UNL     1      -4.198  14.278  22.092  0.00  0.00    +0.000 A 
ATOM      4  C   UNL     1      -3.849  15.558  22.818  0.00  0.00    +0.000 C 
ATOM      5  C   UNL     1      -3.316  13.218  21.541  0.00  0.00    +0.000 A 
ATOM      6  C   UNL     1      -3.465  13.792  20.288  0.00  0.00    +0.000 A 
ATOM      7  N   UNL     1      -2.442  14.624  19.787  0.00  0.00    +0.000 N 
ATOM      8  C   UNL     1      -1.025  14.810  20.327  0.00  0.00    +0.000 C 
ATOM      9  O   UNL     1      -0.300  15.334  19.468  0.00  0.00    +0.000 OA
ATOM     10  C   UNL     1      -0.468  14.628  21.808  0.00  0.00    +0.000 C 
ATOM     11  C   UNL     1       1.032  14.284  22.019  0.00  0.00    +0.000 C 
ATOM     12  S   UNL     1      -1.201  13.476  22.997  0.00  0.00    +0.000 S 
ATOM     13  C   UNL     1      -2.100  12.401  21.889  0.00  0.00    +0.000 C 
ATOM     14  H   UNL     1      -2.585  15.094  18.906  0.00  0.00    +0.000 HD
ENDROOT
BRANCH   1  21
ATOM     15  C   UNL     1      -7.277  12.573  21.981  0.00  0.00    +0.000 C 
ATOM     16  C   UNL     1      -6.719  11.909  20.749  0.00  0.00    +0.000 A 
ATOM     17  C   UNL     1      -7.282  10.632  20.458  0.00  0.00    +0.000 A 
ATOM     18  C   UNL     1      -6.878   9.882  19.370  0.00  0.00    +0.000 A 
ATOM     19  C   UNL     1      -5.947  10.419  18.501  0.00  0.00    +0.000 A 
ATOM     20  C   UNL     1      -5.412  11.697  18.737  0.00  0.00    +0.000 A 
ATOM     21  C   UNL     1      -5.712  12.444  19.895  0.00  0.00    +0.000 A 
ENDBRANCH   1  21
BRANCH  13  22
ATOM     22  C   UNL     1      -1.287  11.897  20.611  0.00  0.00    +0.000 A 
ATOM     23  C   UNL     1      -1.855  11.533  19.385  0.00  0.00    +0.000 A 
ATOM     24  C   UNL     1      -1.119  10.782  18.409  0.00  0.00    +0.000 A 
ATOM     25  C   UNL     1       0.217  10.405  18.607  0.00  0.00    +0.000 A 
ATOM     26  C   UNL     1       0.832  10.916  19.717  0.00  0.00    +0.000 A 
ATOM     27  C   UNL     1       0.103  11.712  20.604  0.00  0.00    +0.000 A 
BRANCH  25  28
ATOM     28  O   UNL     1       0.823   9.560  17.722  0.00  0.00    +0.000 OA
BRANCH  28  29
ATOM     29  C   UNL     1       2.136   9.042  18.054  0.00  0.00    +0.000 C 
BRANCH  29  30
ATOM     30  C   UNL     1       2.185   7.657  18.690  0.00  0.00    +0.000 A 
ATOM     31  C   UNL     1       1.939   7.464  20.061  0.00  0.00    +0.000 A 
ATOM     32  C   UNL     1       1.901   6.177  20.609  0.00  0.00    +0.000 A 
ATOM     33  C   UNL     1       2.109   5.057  19.806  0.00  0.00    +0.000 A 
ATOM     34  C   UNL     1       2.346   5.225  18.443  0.00  0.00    +0.000 A 
ATOM     35  C   UNL     1       2.373   6.507  17.887  0.00  0.00    +0.000 A 
ENDBRANCH  29  30
ENDBRANCH  28  29
ENDBRANCH  25  28
ENDBRANCH  13  22
TORSDOF 5
ENDMDL
