MODEL 1
REMARK VINA RESULT:      -8.0      0.000      0.000
REMARK  Name = 
REMARK  7 active torsions:
REMARK  status: ('A' for Active; 'I' for Inactive)
REMARK    1  A    between atoms: C_1  and  C_2
REMARK    2  A    between atoms: C_2  and  C_3
REMARK    3  A    between atoms: C_9  and  C_10
REMARK    4  A    between atoms: C_10  and  S_11
REMARK    5  A    between atoms: S_11  and  C_12
REMARK    6  A    between atoms: C_14  and  C_15
REMARK    7  A    between atoms: N_22  and  C_23
REMARK                            x       y       z     vdW  Elec       q    Type
REMARK                         _______ _______ _______ _____ _____    ______ ____
ROOT
ATOM      1  S   UNL     1       1.841   2.264  18.744  0.00  0.00    +0.000 S 
ENDROOT
BRANCH   1   2
ATOM      2  C   UNL     1       1.905   3.889  19.347  0.00  0.00    +0.000 A 
ATOM      3  N   UNL     1       1.821   5.005  18.656  0.00  0.00    +0.000 NA
ATOM      4  C   UNL     1       1.912   6.025  19.591  0.00  0.00    +0.000 A 
ATOM      5  C   UNL     1       2.091   5.498  20.852  0.00  0.00    +0.000 A 
ATOM      6  N   UNL     1       2.055   4.140  20.686  0.00  0.00    +0.000 N 
ATOM      7  C   UNL     1       2.148   3.179  21.759  0.00  0.00    +0.000 C 
BRANCH   4   8
ATOM      8  C   UNL     1       1.838   7.447  19.282  0.00  0.00    +0.000 A 
ATOM      9  C   UNL     1       1.336   8.375  20.210  0.00  0.00    +0.000 A 
ATOM     10  C   UNL     1       1.264   9.736  19.900  0.00  0.00    +0.000 A 
ATOM     11  C   UNL     1       1.696  10.189  18.656  0.00  0.00    +0.000 A 
ATOM     12  C   UNL     1       2.199   9.280  17.725  0.00  0.00    +0.000 A 
ATOM     13  C   UNL     1       2.267   7.918  18.034  0.00  0.00    +0.000 A 
ENDBRANCH   4   8
ENDBRANCH   1   2
BRANCH   1  14
ATOM     14  C   UNL     1       3.591   1.775  18.684  0.00  0.00    +0.000 C 
BRANCH  14  21
ATOM     15  C   UNL     1       6.031   5.392  16.408  0.00  0.00    +0.000 A 
ATOM     16  C   UNL     1       6.941   6.301  16.825  0.00  0.00    +0.000 A 
ATOM     17  C   UNL     1       7.299   6.365  18.230  0.00  0.00    +0.000 A 
ATOM     18  C   UNL     1       6.762   5.522  19.132  0.00  0.00    +0.000 A 
ATOM     19  C   UNL     1       5.827   4.538  18.709  0.00  0.00    +0.000 A 
ATOM     20  N   UNL     1       5.190   3.594  19.368  0.00  0.00    +0.000 NA
ATOM     21  C   UNL     1       4.452   2.970  18.392  0.00  0.00    +0.000 A 
ATOM     22  N   UNL     1       4.573   3.503  17.167  0.00  0.00    +0.000 NA
ATOM     23  N   UNL     1       5.479   4.503  17.354  0.00  0.00    +0.000 N 
BRANCH  15  25
ATOM     24  C   UNL     1       6.391   4.231  14.226  0.00  0.00    +0.000 C 
ATOM     25  C   UNL     1       5.598   5.294  14.972  0.00  0.00    +0.000 C 
ENDBRANCH  15  25
ENDBRANCH  14  21
ENDBRANCH   1  14
TORSDOF 5
ENDMDL
MODEL 2
REMARK VINA RESULT:      -7.7      1.605      6.866
REMARK  Name = 
REMARK  7 active torsions:
REMARK  status: ('A' for Active; 'I' for Inactive)
REMARK    1  A    between atoms: C_1  and  C_2
REMARK    2  A    between atoms: C_2  and  C_3
REMARK    3  A    between atoms: C_9  and  C_10
REMARK    4  A    between atoms: C_10  and  S_11
REMARK    5  A    between atoms: S_11  and  C_12
REMARK    6  A    between atoms: C_14  and  C_15
REMARK    7  A    between atoms: N_22  and  C_23
REMARK                            x       y       z     vdW  Elec       q    Type
REMARK                         _______ _______ _______ _____ _____    ______ ____
ROOT
ATOM      1  S   UNL     1       4.715   3.920  19.417  0.00  0.00    +0.000 S 
ENDROOT
BRANCH   1   2
ATOM      2  C   UNL     1       5.660   4.334  18.023  0.00  0.00    +0.000 A 
ATOM      3  N   UNL     1       5.458   3.960  16.777  0.00  0.00    +0.000 NA
ATOM      4  C   UNL     1       6.471   4.561  16.045  0.00  0.00    +0.000 A 
ATOM      5  C   UNL     1       7.306   5.270  16.882  0.00  0.00    +0.000 A 
ATOM      6  N   UNL     1       6.762   5.141  18.130  0.00  0.00    +0.000 N 
ATOM      7  C   UNL     1       7.279   5.773  19.321  0.00  0.00    +0.000 C 
BRANCH   4   8
ATOM      8  C   UNL     1       6.632   4.449  14.601  0.00  0.00    +0.000 A 
ATOM      9  C   UNL     1       5.849   3.564  13.841  0.00  0.00    +0.000 A 
ATOM     10  C   UNL     1       6.016   3.461  12.457  0.00  0.00    +0.000 A 
ATOM     11  C   UNL     1       6.971   4.243  11.813  0.00  0.00    +0.000 A 
ATOM     12  C   UNL     1       7.755   5.128  12.553  0.00  0.00    +0.000 A 
ATOM     13  C   UNL     1       7.589   5.228  13.938  0.00  0.00    +0.000 A 
ENDBRANCH   4   8
ENDBRANCH   1   2
BRANCH   1  14
ATOM     14  C   UNL     1       3.006   4.166  18.847  0.00  0.00    +0.000 C 
BRANCH  14  21
ATOM     15  C   UNL     1       1.378   8.550  20.378  0.00  0.00    +0.000 A 
ATOM     16  C   UNL     1       1.196   9.738  19.759  0.00  0.00    +0.000 A 
ATOM     17  C   UNL     1       1.594   9.893  18.372  0.00  0.00    +0.000 A 
ATOM     18  C   UNL     1       2.122   8.871  17.673  0.00  0.00    +0.000 A 
ATOM     19  C   UNL     1       2.293   7.604  18.296  0.00  0.00    +0.000 A 
ATOM     20  N   UNL     1       2.749   6.457  17.840  0.00  0.00    +0.000 NA
ATOM     21  C   UNL     1       2.640   5.620  18.923  0.00  0.00    +0.000 A 
ATOM     22  N   UNL     1       2.173   6.200  20.039  0.00  0.00    +0.000 NA
ATOM     23  N   UNL     1       1.921   7.478  19.640  0.00  0.00    +0.000 N 
BRANCH  15  25
ATOM     24  C   UNL     1       0.234   9.518  22.376  0.00  0.00    +0.000 C 
ATOM     25  C   UNL     1       1.012   8.335  21.820  0.00  0.00    +0.000 C 
ENDBRANCH  15  25
ENDBRANCH  14  21
ENDBRANCH   1  14
TORSDOF 5
ENDMDL
MODEL 3
REMARK VINA RESULT:      -7.6      3.485      6.367
REMARK  Name = 
REMARK  7 active torsions:
REMARK  status: ('A' for Active; 'I' for Inactive)
REMARK    1  A    between atoms: C_1  and  C_2
REMARK    2  A    between atoms: C_2  and  C_3
REMARK    3  A    between atoms: C_9  and  C_10
REMARK    4  A    between atoms: C_10  and  S_11
REMARK    5  A    between atoms: S_11  and  C_12
REMARK    6  A    between atoms: C_14  and  C_15
REMARK    7  A    between atoms: N_22  and  C_23
REMARK                            x       y       z     vdW  Elec       q    Type
REMARK                         _______ _______ _______ _____ _____    ______ ____
ROOT
ATOM      1  S   UNL     1       5.957   6.327  16.468  0.00  0.00    +0.000 S 
ENDROOT
BRANCH   1   2
ATOM      2  C   UNL     1       7.067   7.268  17.410  0.00  0.00    +0.000 A 
ATOM      3  N   UNL     1       7.352   8.545  17.276  0.00  0.00    +0.000 NA
ATOM      4  C   UNL     1       8.280   8.822  18.269  0.00  0.00    +0.000 A 
ATOM      5  C   UNL     1       8.574   7.676  18.976  0.00  0.00    +0.000 A 
ATOM      6  N   UNL     1       7.775   6.704  18.440  0.00  0.00    +0.000 N 
ATOM      7  C   UNL     1       7.709   5.342  18.913  0.00  0.00    +0.000 C 
BRANCH   4   8
ATOM      8  C   UNL     1       8.864  10.133  18.520  0.00  0.00    +0.000 A 
ATOM      9  C   UNL     1       9.698  10.365  19.627  0.00  0.00    +0.000 A 
ATOM     10  C   UNL     1      10.249  11.629  19.861  0.00  0.00    +0.000 A 
ATOM     11  C   UNL     1       9.973  12.679  18.990  0.00  0.00    +0.000 A 
ATOM     12  C   UNL     1       9.149  12.463  17.885  0.00  0.00    +0.000 A 
ATOM     13  C   UNL     1       8.595  11.200  17.654  0.00  0.00    +0.000 A 
ENDBRANCH   4   8
ENDBRANCH   1   2
BRANCH   1  14
ATOM     14  C   UNL     1       4.340   7.031  16.908  0.00  0.00    +0.000 C 
BRANCH  14  21
ATOM     15  C   UNL     1       2.176   3.051  18.831  0.00  0.00    +0.000 A 
ATOM     16  C   UNL     1       1.394   2.855  19.916  0.00  0.00    +0.000 A 
ATOM     17  C   UNL     1       1.124   3.962  20.815  0.00  0.00    +0.000 A 
ATOM     18  C   UNL     1       1.617   5.193  20.583  0.00  0.00    +0.000 A 
ATOM     19  C   UNL     1       2.417   5.427  19.431  0.00  0.00    +0.000 A 
ATOM     20  N   UNL     1       2.985   6.519  18.966  0.00  0.00    +0.000 NA
ATOM     21  C   UNL     1       3.596   6.091  17.813  0.00  0.00    +0.000 A 
ATOM     22  N   UNL     1       3.465   4.781  17.558  0.00  0.00    +0.000 NA
ATOM     23  N   UNL     1       2.682   4.344  18.585  0.00  0.00    +0.000 N 
BRANCH  15  25
ATOM     24  C   UNL     1       3.817   1.255  18.267  0.00  0.00    +0.000 C 
ATOM     25  C   UNL     1       2.516   1.939  17.878  0.00  0.00    +0.000 C 
ENDBRANCH  15  25
ENDBRANCH  14  21
ENDBRANCH   1  14
TORSDOF 5
ENDMDL
MODEL 4
REMARK VINA RESULT:      -7.6      1.536      6.748
REMARK  Name = 
REMARK  7 active torsions:
REMARK  status: ('A' for Active; 'I' for Inactive)
REMARK    1  A    between atoms: C_1  and  C_2
REMARK    2  A    between atoms: C_2  and  C_3
REMARK    3  A    between atoms: C_9  and  C_10
REMARK    4  A    between atoms: C_10  and  S_11
REMARK    5  A    between atoms: S_11  and  C_12
REMARK    6  A    between atoms: C_14  and  C_15
REMARK    7  A    between atoms: N_22  and  C_23
REMARK                            x       y       z     vdW  Elec       q    Type
REMARK                         _______ _______ _______ _____ _____    ______ ____
ROOT
ATOM      1  S   UNL     1       4.559   3.642  19.356  0.00  0.00    +0.000 S 
ENDROOT
BRANCH   1   2
ATOM      2  C   UNL     1       5.501   4.131  17.985  0.00  0.00    +0.000 A 
ATOM      3  N   UNL     1       5.345   3.765  16.731  0.00  0.00    +0.000 NA
ATOM      4  C   UNL     1       6.333   4.435  16.026  0.00  0.00    +0.000 A 
ATOM      5  C   UNL     1       7.108   5.181  16.888  0.00  0.00    +0.000 A 
ATOM      6  N   UNL     1       6.551   5.001  18.124  0.00  0.00    +0.000 N 
ATOM      7  C   UNL     1       7.009   5.645  19.332  0.00  0.00    +0.000 C 
BRANCH   4   8
ATOM      8  C   UNL     1       6.526   4.354  14.584  0.00  0.00    +0.000 A 
ATOM      9  C   UNL     1       7.510   5.116  13.931  0.00  0.00    +0.000 A 
ATOM     10  C   UNL     1       7.683   5.034  12.546  0.00  0.00    +0.000 A 
ATOM     11  C   UNL     1       6.873   4.189  11.794  0.00  0.00    +0.000 A 
ATOM     12  C   UNL     1       5.893   3.424  12.428  0.00  0.00    +0.000 A 
ATOM     13  C   UNL     1       5.718   3.510  13.813  0.00  0.00    +0.000 A 
ENDBRANCH   4   8
ENDBRANCH   1   2
BRANCH   1  14
ATOM     14  C   UNL     1       2.853   3.985  18.830  0.00  0.00    +0.000 C 
BRANCH  14  21
ATOM     15  C   UNL     1       1.484   8.509  20.200  0.00  0.00    +0.000 A 
ATOM     16  C   UNL     1       1.415   9.693  19.551  0.00  0.00    +0.000 A 
ATOM     17  C   UNL     1       1.881   9.787  18.180  0.00  0.00    +0.000 A 
ATOM     18  C   UNL     1       2.363   8.713  17.525  0.00  0.00    +0.000 A 
ATOM     19  C   UNL     1       2.414   7.452  18.180  0.00  0.00    +0.000 A 
ATOM     20  N   UNL     1       2.805   6.266  17.766  0.00  0.00    +0.000 NA
ATOM     21  C   UNL     1       2.590   5.463  18.861  0.00  0.00    +0.000 A 
ATOM     22  N   UNL     1       2.120   6.100  19.943  0.00  0.00    +0.000 NA
ATOM     23  N   UNL     1       1.978   7.384  19.508  0.00  0.00    +0.000 N 
BRANCH  15  25
ATOM     24  C   UNL     1      -0.411   8.763  21.807  0.00  0.00    +0.000 C 
ATOM     25  C   UNL     1       1.043   8.353  21.629  0.00  0.00    +0.000 C 
ENDBRANCH  15  25
ENDBRANCH  14  21
ENDBRANCH   1  14
TORSDOF 5
ENDMDL
MODEL 5
REMARK VINA RESULT:      -7.4      2.089      7.339
REMARK  Name = 
REMARK  7 active torsions:
REMARK  status: ('A' for Active; 'I' for Inactive)
REMARK    1  A    between atoms: C_1  and  C_2
REMARK    2  A    between atoms: C_2  and  C_3
REMARK    3  A    between atoms: C_9  and  C_10
REMARK    4  A    between atoms: C_10  and  S_11
REMARK    5  A    between atoms: S_11  and  C_12
REMARK    6  A    between atoms: C_14  and  C_15
REMARK    7  A    between atoms: N_22  and  C_23
REMARK                            x       y       z     vdW  Elec       q    Type
REMARK                         _______ _______ _______ _____ _____    ______ ____
ROOT
ATOM      1  S   UNL     1       4.274   5.254  19.274  0.00  0.00    +0.000 S 
ENDROOT
BRANCH   1   2
ATOM      2  C   UNL     1       5.411   5.098  17.975  0.00  0.00    +0.000 A 
ATOM      3  N   UNL     1       5.156   4.819  16.715  0.00  0.00    +0.000 NA
ATOM      4  C   UNL     1       6.390   4.820  16.081  0.00  0.00    +0.000 A 
ATOM      5  C   UNL     1       7.392   5.067  16.994  0.00  0.00    +0.000 A 
ATOM      6  N   UNL     1       6.754   5.271  18.187  0.00  0.00    +0.000 N 
ATOM      7  C   UNL     1       7.414   5.619  19.422  0.00  0.00    +0.000 C 
BRANCH   4   8
ATOM      8  C   UNL     1       6.594   4.585  14.658  0.00  0.00    +0.000 A 
ATOM      9  C   UNL     1       7.581   5.275  13.934  0.00  0.00    +0.000 A 
ATOM     10  C   UNL     1       7.764   5.045  12.567  0.00  0.00    +0.000 A 
ATOM     11  C   UNL     1       6.962   4.120  11.905  0.00  0.00    +0.000 A 
ATOM     12  C   UNL     1       5.980   3.425  12.610  0.00  0.00    +0.000 A 
ATOM     13  C   UNL     1       5.794   3.658  13.977  0.00  0.00    +0.000 A 
ENDBRANCH   4   8
ENDBRANCH   1   2
BRANCH   1  14
ATOM     14  C   UNL     1       2.729   5.695  18.423  0.00  0.00    +0.000 C 
BRANCH  14  21
ATOM     15  C   UNL     1       1.106   9.618  20.912  0.00  0.00    +0.000 A 
ATOM     16  C   UNL     1       0.787  10.879  20.546  0.00  0.00    +0.000 A 
ATOM     17  C   UNL     1       0.991  11.302  19.173  0.00  0.00    +0.000 A 
ATOM     18  C   UNL     1       1.472  10.457  18.240  0.00  0.00    +0.000 A 
ATOM     19  C   UNL     1       1.784   9.117  18.597  0.00  0.00    +0.000 A 
ATOM     20  N   UNL     1       2.231   8.103  17.888  0.00  0.00    +0.000 NA
ATOM     21  C   UNL     1       2.306   7.083  18.806  0.00  0.00    +0.000 A 
ATOM     22  N   UNL     1       1.963   7.425  20.057  0.00  0.00    +0.000 NA
ATOM     23  N   UNL     1       1.598   8.732  19.930  0.00  0.00    +0.000 N 
BRANCH  15  25
ATOM     24  C   UNL     1      -0.517   9.143  22.750  0.00  0.00    +0.000 C 
ATOM     25  C   UNL     1       0.944   9.128  22.324  0.00  0.00    +0.000 C 
ENDBRANCH  15  25
ENDBRANCH  14  21
ENDBRANCH   1  14
TORSDOF 5
ENDMDL
MODEL 6
REMARK VINA RESULT:      -7.4      3.493      6.416
REMARK  Name = 
REMARK  7 active torsions:
REMARK  status: ('A' for Active; 'I' for Inactive)
REMARK    1  A    between atoms: C_1  and  C_2
REMARK    2  A    between atoms: C_2  and  C_3
REMARK    3  A    between atoms: C_9  and  C_10
REMARK    4  A    between atoms: C_10  and  S_11
REMARK    5  A    between atoms: S_11  and  C_12
REMARK    6  A    between atoms: C_14  and  C_15
REMARK    7  A    between atoms: N_22  and  C_23
REMARK                            x       y       z     vdW  Elec       q    Type
REMARK                         _______ _______ _______ _____ _____    ______ ____
ROOT
ATOM      1  S   UNL     1       5.761   6.537  16.474  0.00  0.00    +0.000 S 
ENDROOT
BRANCH   1   2
ATOM      2  C   UNL     1       6.953   7.393  17.396  0.00  0.00    +0.000 A 
ATOM      3  N   UNL     1       7.249   8.674  17.333  0.00  0.00    +0.000 NA
ATOM      4  C   UNL     1       8.251   8.867  18.272  0.00  0.00    +0.000 A 
ATOM      5  C   UNL     1       8.578   7.669  18.870  0.00  0.00    +0.000 A 
ATOM      6  N   UNL     1       7.726   6.748  18.326  0.00  0.00    +0.000 N 
ATOM      7  C   UNL     1       7.672   5.356  18.704  0.00  0.00    +0.000 C 
BRANCH   4   8
ATOM      8  C   UNL     1       8.875  10.150  18.572  0.00  0.00    +0.000 A 
ATOM      9  C   UNL     1       8.856  11.209  17.648  0.00  0.00    +0.000 A 
ATOM     10  C   UNL     1       9.462  12.433  17.945  0.00  0.00    +0.000 A 
ATOM     11  C   UNL     1      10.096  12.616  19.170  0.00  0.00    +0.000 A 
ATOM     12  C   UNL     1      10.121  11.574  20.099  0.00  0.00    +0.000 A 
ATOM     13  C   UNL     1       9.518  10.348  19.800  0.00  0.00    +0.000 A 
ENDBRANCH   4   8
ENDBRANCH   1   2
BRANCH   1  14
ATOM     14  C   UNL     1       4.191   7.150  17.155  0.00  0.00    +0.000 C 
BRANCH  14  21
ATOM     15  C   UNL     1       3.280   3.084  19.773  0.00  0.00    +0.000 A 
ATOM     16  C   UNL     1       2.369   2.779  20.725  0.00  0.00    +0.000 A 
ATOM     17  C   UNL     1       1.463   3.806  21.205  0.00  0.00    +0.000 A 
ATOM     18  C   UNL     1       1.491   5.058  20.709  0.00  0.00    +0.000 A 
ATOM     19  C   UNL     1       2.420   5.390  19.686  0.00  0.00    +0.000 A 
ATOM     20  N   UNL     1       2.631   6.507  19.023  0.00  0.00    +0.000 NA
ATOM     21  C   UNL     1       3.648   6.175  18.160  0.00  0.00    +0.000 A 
ATOM     22  N   UNL     1       4.102   4.919  18.281  0.00  0.00    +0.000 NA
ATOM     23  N   UNL     1       3.299   4.392  19.248  0.00  0.00    +0.000 N 
BRANCH  15  25
ATOM     24  C   UNL     1       3.739   1.383  18.003  0.00  0.00    +0.000 C 
ATOM     25  C   UNL     1       4.263   2.072  19.254  0.00  0.00    +0.000 C 
ENDBRANCH  15  25
ENDBRANCH  14  21
ENDBRANCH   1  14
TORSDOF 5
ENDMDL
MODEL 7
REMARK VINA RESULT:      -7.3      2.059      3.294
REMARK  Name = 
REMARK  7 active torsions:
REMARK  status: ('A' for Active; 'I' for Inactive)
REMARK    1  A    between atoms: C_1  and  C_2
REMARK    2  A    between atoms: C_2  and  C_3
REMARK    3  A    between atoms: C_9  and  C_10
REMARK    4  A    between atoms: C_10  and  S_11
REMARK    5  A    between atoms: S_11  and  C_12
REMARK    6  A    between atoms: C_14  and  C_15
REMARK    7  A    between atoms: N_22  and  C_23
REMARK                            x       y       z     vdW  Elec       q    Type
REMARK                         _______ _______ _______ _____ _____    ______ ____
ROOT
ATOM      1  S   UNL     1       3.962   3.634  17.294  0.00  0.00    +0.000 S 
ENDROOT
BRANCH   1   2
ATOM      2  C   UNL     1       3.256   4.815  18.350  0.00  0.00    +0.000 A 
ATOM      3  N   UNL     1       2.936   6.058  18.063  0.00  0.00    +0.000 NA
ATOM      4  C   UNL     1       2.398   6.578  19.231  0.00  0.00    +0.000 A 
ATOM      5  C   UNL     1       2.439   5.633  20.234  0.00  0.00    +0.000 A 
ATOM      6  N   UNL     1       2.959   4.510  19.652  0.00  0.00    +0.000 N 
ATOM      7  C   UNL     1       3.133   3.243  20.323  0.00  0.00    +0.000 C 
BRANCH   4   8
ATOM      8  C   UNL     1       1.875   7.930  19.377  0.00  0.00    +0.000 A 
ATOM      9  C   UNL     1       1.361   8.391  20.601  0.00  0.00    +0.000 A 
ATOM     10  C   UNL     1       0.857   9.689  20.727  0.00  0.00    +0.000 A 
ATOM     11  C   UNL     1       0.860  10.545  19.630  0.00  0.00    +0.000 A 
ATOM     12  C   UNL     1       1.369  10.103  18.408  0.00  0.00    +0.000 A 
ATOM     13  C   UNL     1       1.870   8.803  18.282  0.00  0.00    +0.000 A 
ENDBRANCH   4   8
ENDBRANCH   1   2
BRANCH   1  14
ATOM     14  C   UNL     1       5.720   4.096  17.272  0.00  0.00    +0.000 C 
BRANCH  14  21
ATOM     15  C   UNL     1       6.393   3.724  12.411  0.00  0.00    +0.000 A 
ATOM     16  C   UNL     1       7.229   4.336  11.542  0.00  0.00    +0.000 A 
ATOM     17  C   UNL     1       8.108   5.389  12.014  0.00  0.00    +0.000 A 
ATOM     18  C   UNL     1       8.130   5.762  13.308  0.00  0.00    +0.000 A 
ATOM     19  C   UNL     1       7.282   5.109  14.244  0.00  0.00    +0.000 A 
ATOM     20  N   UNL     1       7.132   5.257  15.542  0.00  0.00    +0.000 NA
ATOM     21  C   UNL     1       6.178   4.322  15.860  0.00  0.00    +0.000 A 
ATOM     22  N   UNL     1       5.703   3.625  14.817  0.00  0.00    +0.000 NA
ATOM     23  N   UNL     1       6.427   4.108  13.768  0.00  0.00    +0.000 N 
BRANCH  15  25
ATOM     24  C   UNL     1       4.183   3.235  11.356  0.00  0.00    +0.000 C 
ATOM     25  C   UNL     1       5.440   2.645  11.980  0.00  0.00    +0.000 C 
ENDBRANCH  15  25
ENDBRANCH  14  21
ENDBRANCH   1  14
TORSDOF 5
ENDMDL
MODEL 8
REMARK VINA RESULT:      -7.3      4.479      6.622
REMARK  Name = 
REMARK  7 active torsions:
REMARK  status: ('A' for Active; 'I' for Inactive)
REMARK    1  A    between atoms: C_1  and  C_2
REMARK    2  A    between atoms: C_2  and  C_3
REMARK    3  A    between atoms: C_9  and  C_10
REMARK    4  A    between atoms: C_10  and  S_11
REMARK    5  A    between atoms: S_11  and  C_12
REMARK    6  A    between atoms: C_14  and  C_15
REMARK    7  A    between atoms: N_22  and  C_23
REMARK                            x       y       z     vdW  Elec       q    Type
REMARK                         _______ _______ _______ _____ _____    ______ ____
ROOT
ATOM      1  S   UNL     1       7.869   6.361  18.715  0.00  0.00    +0.000 S 
ENDROOT
BRANCH   1   2
ATOM      2  C   UNL     1       6.441   5.401  18.502  0.00  0.00    +0.000 A 
ATOM      3  N   UNL     1       5.426   5.277  19.331  0.00  0.00    +0.000 NA
ATOM      4  C   UNL     1       4.541   4.415  18.702  0.00  0.00    +0.000 A 
ATOM      5  C   UNL     1       5.062   3.994  17.498  0.00  0.00    +0.000 A 
ATOM      6  N   UNL     1       6.256   4.651  17.370  0.00  0.00    +0.000 N 
ATOM      7  C   UNL     1       7.128   4.554  16.224  0.00  0.00    +0.000 C 
BRANCH   4   8
ATOM      8  C   UNL     1       3.250   4.008  19.243  0.00  0.00    +0.000 A 
ATOM      9  C   UNL     1       2.485   4.872  20.045  0.00  0.00    +0.000 A 
ATOM     10  C   UNL     1       1.251   4.468  20.563  0.00  0.00    +0.000 A 
ATOM     11  C   UNL     1       0.764   3.194  20.285  0.00  0.00    +0.000 A 
ATOM     12  C   UNL     1       1.511   2.326  19.488  0.00  0.00    +0.000 A 
ATOM     13  C   UNL     1       2.748   2.729  18.974  0.00  0.00    +0.000 A 
ENDBRANCH   4   8
ENDBRANCH   1   2
BRANCH   1  14
ATOM     14  C   UNL     1       7.654   7.699  17.504  0.00  0.00    +0.000 C 
BRANCH  14  21
ATOM     15  C   UNL     1       8.746  12.447  18.196  0.00  0.00    +0.000 A 
ATOM     16  C   UNL     1       9.568  13.093  19.053  0.00  0.00    +0.000 A 
ATOM     17  C   UNL     1      10.275  12.341  20.073  0.00  0.00    +0.000 A 
ATOM     18  C   UNL     1      10.151  11.004  20.175  0.00  0.00    +0.000 A 
ATOM     19  C   UNL     1       9.316  10.302  19.264  0.00  0.00    +0.000 A 
ATOM     20  N   UNL     1       9.048   9.021  19.130  0.00  0.00    +0.000 NA
ATOM     21  C   UNL     1       8.190   8.987  18.057  0.00  0.00    +0.000 A 
ATOM     22  N   UNL     1       7.886  10.188  17.541  0.00  0.00    +0.000 NA
ATOM     23  N   UNL     1       8.627  11.045  18.298  0.00  0.00    +0.000 N 
BRANCH  15  25
ATOM     24  C   UNL     1       7.195  14.345  17.722  0.00  0.00    +0.000 C 
ATOM     25  C   UNL     1       7.966  13.172  17.136  0.00  0.00    +0.000 C 
ENDBRANCH  15  25
ENDBRANCH  14  21
ENDBRANCH   1  14
TORSDOF 5
ENDMDL
MODEL 9
REMARK VINA RESULT:      -7.1      0.638      2.207
REMARK  Name = 
REMARK  7 active torsions:
REMARK  status: ('A' for Active; 'I' for Inactive)
REMARK    1  A    between atoms: C_1  and  C_2
REMARK    2  A    between atoms: C_2  and  C_3
REMARK    3  A    between atoms: C_9  and  C_10
REMARK    4  A    between atoms: C_10  and  S_11
REMARK    5  A    between atoms: S_11  and  C_12
REMARK    6  A    between atoms: C_14  and  C_15
REMARK    7  A    between atoms: N_22  and  C_23
REMARK                            x       y       z     vdW  Elec       q    Type
REMARK                         _______ _______ _______ _____ _____    ______ ____
ROOT
ATOM      1  S   UNL     1       1.800   2.372  18.906  0.00  0.00    +0.000 S 
ENDROOT
BRANCH   1   2
ATOM      2  C   UNL     1       1.841   4.005  19.485  0.00  0.00    +0.000 A 
ATOM      3  N   UNL     1       1.745   5.110  18.777  0.00  0.00    +0.000 NA
ATOM      4  C   UNL     1       1.820   6.145  19.698  0.00  0.00    +0.000 A 
ATOM      5  C   UNL     1       2.001   5.638  20.967  0.00  0.00    +0.000 A 
ATOM      6  N   UNL     1       1.983   4.278  20.820  0.00  0.00    +0.000 N 
ATOM      7  C   UNL     1       2.084   3.334  21.907  0.00  0.00    +0.000 C 
BRANCH   4   8
ATOM      8  C   UNL     1       1.729   7.561  19.367  0.00  0.00    +0.000 A 
ATOM      9  C   UNL     1       2.138   8.050  18.115  0.00  0.00    +0.000 A 
ATOM     10  C   UNL     1       2.051   9.412  17.811  0.00  0.00    +0.000 A 
ATOM     11  C   UNL     1       1.554  10.305  18.756  0.00  0.00    +0.000 A 
ATOM     12  C   UNL     1       1.141   9.834  20.003  0.00  0.00    +0.000 A 
ATOM     13  C   UNL     1       1.232   8.472  20.308  0.00  0.00    +0.000 A 
ENDBRANCH   4   8
ENDBRANCH   1   2
BRANCH   1  14
ATOM     14  C   UNL     1       3.546   1.871  18.952  0.00  0.00    +0.000 C 
BRANCH  14  21
ATOM     15  C   UNL     1       6.720   5.387  17.614  0.00  0.00    +0.000 A 
ATOM     16  C   UNL     1       6.995   5.985  16.434  0.00  0.00    +0.000 A 
ATOM     17  C   UNL     1       6.328   5.533  15.226  0.00  0.00    +0.000 A 
ATOM     18  C   UNL     1       5.419   4.539  15.255  0.00  0.00    +0.000 A 
ATOM     19  C   UNL     1       5.092   3.918  16.491  0.00  0.00    +0.000 A 
ATOM     20  N   UNL     1       4.237   2.965  16.794  0.00  0.00    +0.000 NA
ATOM     21  C   UNL     1       4.380   2.831  18.153  0.00  0.00    +0.000 A 
ATOM     22  N   UNL     1       5.308   3.628  18.703  0.00  0.00    +0.000 NA
ATOM     23  N   UNL     1       5.759   4.355  17.642  0.00  0.00    +0.000 N 
BRANCH  15  25
ATOM     24  C   UNL     1       8.201   7.070  18.713  0.00  0.00    +0.000 C 
ATOM     25  C   UNL     1       7.397   5.791  18.893  0.00  0.00    +0.000 C 
ENDBRANCH  15  25
ENDBRANCH  14  21
ENDBRANCH   1  14
TORSDOF 5
ENDMDL
