MODEL 1
REMARK VINA RESULT:      -9.0      0.000      0.000
REMARK  Name = 
REMARK  9 active torsions:
REMARK  status: ('A' for Active; 'I' for Inactive)
REMARK    1  A    between atoms: C_1  and  C_2
REMARK    2  A    between atoms: C_2  and  C_3
REMARK    3  A    between atoms: C_3  and  C_4
REMARK    4  A    between atoms: C_3  and  C_5
REMARK    5  A    between atoms: C_3  and  N_6
REMARK    6  A    between atoms: C_10  and  C_11
REMARK    7  A    between atoms: C_11  and  C_12
REMARK    8  A    between atoms: C_11  and  N_17
REMARK    9  A    between atoms: C_20  and  C_21
REMARK                            x       y       z     vdW  Elec       q    Type
REMARK                         _______ _______ _______ _____ _____    ______ ____
ROOT
ATOM      1  C   UNL     1       3.113   5.465  18.041  0.00  0.00    +0.000 C 
ENDROOT
BRANCH   1   2
ATOM      2  N   UNL     1       2.605   6.767  18.515  0.00  0.00    +0.000 NA
ATOM      3  C   UNL     1       2.923   7.974  17.777  0.00  0.00    +0.000 C 
ATOM      4  C   UNL     1       1.895   9.039  18.018  0.00  0.00    +0.000 C 
ATOM      5  C   UNL     1       1.203   9.144  19.167  0.00  0.00    +0.000 C 
ATOM      6  C   UNL     1       1.618   8.270  20.328  0.00  0.00    +0.000 C 
ATOM      7  C   UNL     1       2.268   6.914  19.920  0.00  0.00    +0.000 C 
BRANCH   5   8
ATOM      8  C   UNL     1       0.070  10.095  19.292  0.00  0.00    +0.000 A 
ATOM      9  C   UNL     1      -0.828  10.254  18.214  0.00  0.00    +0.000 A 
ATOM     10  C   UNL     1      -1.920  11.131  18.295  0.00  0.00    +0.000 A 
ATOM     11  C   UNL     1      -2.132  11.851  19.459  0.00  0.00    +0.000 A 
ATOM     12  F   UNL     1      -3.180  12.684  19.538  0.00  0.00    +0.000 F 
ATOM     13  C   UNL     1      -1.284  11.695  20.547  0.00  0.00    +0.000 A 
ATOM     14  C   UNL     1      -0.187  10.819  20.467  0.00  0.00    +0.000 A 
ENDBRANCH   5   8
ENDBRANCH   1   2
BRANCH   1  19
ATOM     15  N   UNL     1       5.693   5.235  17.583  0.00  0.00    +0.000 N 
ATOM     16  N   UNL     1       6.790   5.101  18.365  0.00  0.00    +0.000 NA
ATOM     17  N   UNL     1       6.371   5.135  19.612  0.00  0.00    +0.000 NA
ATOM     18  N   UNL     1       5.022   5.259  19.659  0.00  0.00    +0.000 NA
ATOM     19  C   UNL     1       4.582   5.320  18.409  0.00  0.00    +0.000 A 
BRANCH  15  20
ATOM     20  C   UNL     1       5.899   5.292  16.125  0.00  0.00    +0.000 C 
ATOM     21  C   UNL     1       7.419   5.348  15.767  0.00  0.00    +0.000 C 
ATOM     22  C   UNL     1       5.309   6.599  15.549  0.00  0.00    +0.000 C 
BRANCH  20  24
ATOM     23  C   UNL     1       5.781   3.830  13.971  0.00  0.00    +0.000 C 
ATOM     24  C   UNL     1       5.274   4.075  15.390  0.00  0.00    +0.000 C 
ENDBRANCH  20  24
ENDBRANCH  15  20
ENDBRANCH   1  19
BRANCH   1  25
ATOM     25  C   UNL     1       2.281   4.284  18.541  0.00  0.00    +0.000 A 
ATOM     26  C   UNL     1       1.349   4.235  19.568  0.00  0.00    +0.000 A 
ATOM     27  C   UNL     1       0.749   2.952  19.716  0.00  0.00    +0.000 A 
ATOM     28  C   UNL     1       1.263   2.039  18.826  0.00  0.00    +0.000 A 
ATOM     29  S   UNL     1       2.440   2.737  17.800  0.00  0.00    +0.000 S 
ENDBRANCH   1  25
TORSDOF 6
ENDMDL
MODEL 2
REMARK VINA RESULT:      -8.9      0.526      1.048
REMARK  Name = 
REMARK  9 active torsions:
REMARK  status: ('A' for Active; 'I' for Inactive)
REMARK    1  A    between atoms: C_1  and  C_2
REMARK    2  A    between atoms: C_2  and  C_3
REMARK    3  A    between atoms: C_3  and  C_4
REMARK    4  A    between atoms: C_3  and  C_5
REMARK    5  A    between atoms: C_3  and  N_6
REMARK    6  A    between atoms: C_10  and  C_11
REMARK    7  A    between atoms: C_11  and  C_12
REMARK    8  A    between atoms: C_11  and  N_17
REMARK    9  A    between atoms: C_20  and  C_21
REMARK                            x       y       z     vdW  Elec       q    Type
REMARK                         _______ _______ _______ _____ _____    ______ ____
ROOT
ATOM      1  C   UNL     1       3.305   5.415  18.006  0.00  0.00    +0.000 C 
ENDROOT
BRANCH   1   2
ATOM      2  N   UNL     1       2.754   6.696  18.489  0.00  0.00    +0.000 NA
ATOM      3  C   UNL     1       3.099   7.929  17.809  0.00  0.00    +0.000 C 
ATOM      4  C   UNL     1       2.044   8.975  18.021  0.00  0.00    +0.000 C 
ATOM      5  C   UNL     1       1.285   9.036  19.130  0.00  0.00    +0.000 C 
ATOM      6  C   UNL     1       1.643   8.131  20.286  0.00  0.00    +0.000 C 
ATOM      7  C   UNL     1       2.332   6.795  19.876  0.00  0.00    +0.000 C 
BRANCH   5   8
ATOM      8  C   UNL     1       0.134   9.970  19.217  0.00  0.00    +0.000 A 
ATOM      9  C   UNL     1      -0.057  10.730  20.391  0.00  0.00    +0.000 A 
ATOM     10  C   UNL     1      -1.123  11.634  20.512  0.00  0.00    +0.000 A 
ATOM     11  C   UNL     1      -2.003  11.796  19.455  0.00  0.00    +0.000 A 
ATOM     12  F   UNL     1      -3.018  12.666  19.567  0.00  0.00    +0.000 F 
ATOM     13  C   UNL     1      -1.825  11.085  18.276  0.00  0.00    +0.000 A 
ATOM     14  C   UNL     1      -0.759  10.175  18.155  0.00  0.00    +0.000 A 
ENDBRANCH   5   8
ENDBRANCH   1   2
BRANCH   1  19
ATOM     15  N   UNL     1       5.880   5.244  17.502  0.00  0.00    +0.000 N 
ATOM     16  N   UNL     1       6.997   5.176  18.264  0.00  0.00    +0.000 NA
ATOM     17  N   UNL     1       6.603   5.249  19.517  0.00  0.00    +0.000 NA
ATOM     18  N   UNL     1       5.253   5.335  19.589  0.00  0.00    +0.000 NA
ATOM     19  C   UNL     1       4.784   5.330  18.347  0.00  0.00    +0.000 A 
BRANCH  15  20
ATOM     20  C   UNL     1       6.054   5.247  16.038  0.00  0.00    +0.000 C 
ATOM     21  C   UNL     1       7.566   5.288  15.645  0.00  0.00    +0.000 C 
ATOM     22  C   UNL     1       5.451   6.531  15.427  0.00  0.00    +0.000 C 
BRANCH  20  24
ATOM     23  C   UNL     1       5.795   3.776  13.902  0.00  0.00    +0.000 C 
ATOM     24  C   UNL     1       5.414   4.003  15.363  0.00  0.00    +0.000 C 
ENDBRANCH  20  24
ENDBRANCH  15  20
ENDBRANCH   1  19
BRANCH   1  25
ATOM     25  C   UNL     1       2.530   4.202  18.522  0.00  0.00    +0.000 A 
ATOM     26  C   UNL     1       1.221   3.819  18.266  0.00  0.00    +0.000 A 
ATOM     27  C   UNL     1       0.863   2.598  18.905  0.00  0.00    +0.000 A 
ATOM     28  C   UNL     1       1.890   2.095  19.667  0.00  0.00    +0.000 A 
ATOM     29  S   UNL     1       3.288   3.077  19.584  0.00  0.00    +0.000 S 
ENDBRANCH   1  25
TORSDOF 6
ENDMDL
MODEL 3
REMARK VINA RESULT:      -8.7      0.401      1.254
REMARK  Name = 
REMARK  9 active torsions:
REMARK  status: ('A' for Active; 'I' for Inactive)
REMARK    1  A    between atoms: C_1  and  C_2
REMARK    2  A    between atoms: C_2  and  C_3
REMARK    3  A    between atoms: C_3  and  C_4
REMARK    4  A    between atoms: C_3  and  C_5
REMARK    5  A    between atoms: C_3  and  N_6
REMARK    6  A    between atoms: C_10  and  C_11
REMARK    7  A    between atoms: C_11  and  C_12
REMARK    8  A    between atoms: C_11  and  N_17
REMARK    9  A    between atoms: C_20  and  C_21
REMARK                            x       y       z     vdW  Elec       q    Type
REMARK                         _______ _______ _______ _____ _____    ______ ____
ROOT
ATOM      1  C   UNL     1       3.043   5.472  18.156  0.00  0.00    +0.000 C 
ENDROOT
BRANCH   1   2
ATOM      2  N   UNL     1       2.544   6.786  18.605  0.00  0.00    +0.000 NA
ATOM      3  C   UNL     1       2.850   7.975  17.833  0.00  0.00    +0.000 C 
ATOM      4  C   UNL     1       1.826   9.046  18.063  0.00  0.00    +0.000 C 
ATOM      5  C   UNL     1       1.153   9.180  19.220  0.00  0.00    +0.000 C 
ATOM      6  C   UNL     1       1.587   8.335  20.396  0.00  0.00    +0.000 C 
ATOM      7  C   UNL     1       2.229   6.969  20.012  0.00  0.00    +0.000 C 
BRANCH   5   8
ATOM      8  C   UNL     1       0.022  10.135  19.340  0.00  0.00    +0.000 A 
ATOM      9  C   UNL     1      -0.129  10.888  20.524  0.00  0.00    +0.000 A 
ATOM     10  C   UNL     1      -1.175  11.811  20.675  0.00  0.00    +0.000 A 
ATOM     11  C   UNL     1      -2.075  11.998  19.638  0.00  0.00    +0.000 A 
ATOM     12  F   UNL     1      -3.070  12.886  19.780  0.00  0.00    +0.000 F 
ATOM     13  C   UNL     1      -1.935  11.294  18.450  0.00  0.00    +0.000 A 
ATOM     14  C   UNL     1      -0.890  10.365  18.299  0.00  0.00    +0.000 A 
ENDBRANCH   5   8
ENDBRANCH   1   2
BRANCH   1  19
ATOM     15  N   UNL     1       5.597   5.232  17.575  0.00  0.00    +0.000 N 
ATOM     16  N   UNL     1       6.735   5.150  18.303  0.00  0.00    +0.000 NA
ATOM     17  N   UNL     1       6.383   5.254  19.567  0.00  0.00    +0.000 NA
ATOM     18  N   UNL     1       5.038   5.372  19.678  0.00  0.00    +0.000 NA
ATOM     19  C   UNL     1       4.530   5.358  18.453  0.00  0.00    +0.000 A 
BRANCH  15  20
ATOM     20  C   UNL     1       5.724   5.206  16.106  0.00  0.00    +0.000 C 
ATOM     21  C   UNL     1       5.191   6.528  15.466  0.00  0.00    +0.000 C 
ATOM     22  C   UNL     1       4.837   4.091  15.509  0.00  0.00    +0.000 C 
BRANCH  20  24
ATOM     23  C   UNL     1       7.406   4.957  14.132  0.00  0.00    +0.000 C 
ATOM     24  C   UNL     1       7.193   5.004  15.643  0.00  0.00    +0.000 C 
ENDBRANCH  20  24
ENDBRANCH  15  20
ENDBRANCH   1  19
BRANCH   1  25
ATOM     25  C   UNL     1       2.253   4.303  18.744  0.00  0.00    +0.000 A 
ATOM     26  C   UNL     1       1.455   4.260  19.879  0.00  0.00    +0.000 A 
ATOM     27  C   UNL     1       0.849   2.989  20.087  0.00  0.00    +0.000 A 
ATOM     28  C   UNL     1       1.228   2.076  19.131  0.00  0.00    +0.000 A 
ATOM     29  S   UNL     1       2.284   2.762  17.974  0.00  0.00    +0.000 S 
ENDBRANCH   1  25
TORSDOF 6
ENDMDL
MODEL 4
REMARK VINA RESULT:      -8.3      0.738      1.185
REMARK  Name = 
REMARK  9 active torsions:
REMARK  status: ('A' for Active; 'I' for Inactive)
REMARK    1  A    between atoms: C_1  and  C_2
REMARK    2  A    between atoms: C_2  and  C_3
REMARK    3  A    between atoms: C_3  and  C_4
REMARK    4  A    between atoms: C_3  and  C_5
REMARK    5  A    between atoms: C_3  and  N_6
REMARK    6  A    between atoms: C_10  and  C_11
REMARK    7  A    between atoms: C_11  and  C_12
REMARK    8  A    between atoms: C_11  and  N_17
REMARK    9  A    between atoms: C_20  and  C_21
REMARK                            x       y       z     vdW  Elec       q    Type
REMARK                         _______ _______ _______ _____ _____    ______ ____
ROOT
ATOM      1  C   UNL     1       3.266   5.348  18.058  0.00  0.00    +0.000 C 
ENDROOT
BRANCH   1   2
ATOM      2  N   UNL     1       2.738   6.639  18.537  0.00  0.00    +0.000 NA
ATOM      3  C   UNL     1       3.103   7.865  17.853  0.00  0.00    +0.000 C 
ATOM      4  C   UNL     1       2.067   8.929  18.063  0.00  0.00    +0.000 C 
ATOM      5  C   UNL     1       1.311   9.007  19.172  0.00  0.00    +0.000 C 
ATOM      6  C   UNL     1       1.655   8.099  20.331  0.00  0.00    +0.000 C 
ATOM      7  C   UNL     1       2.320   6.751  19.924  0.00  0.00    +0.000 C 
BRANCH   5   8
ATOM      8  C   UNL     1       0.176   9.961  19.258  0.00  0.00    +0.000 A 
ATOM      9  C   UNL     1      -0.682  10.122  18.150  0.00  0.00    +0.000 A 
ATOM     10  C   UNL     1      -1.774  11.003  18.192  0.00  0.00    +0.000 A 
ATOM     11  C   UNL     1      -2.025  11.723  19.349  0.00  0.00    +0.000 A 
ATOM     12  F   UNL     1      -3.073  12.559  19.392  0.00  0.00    +0.000 F 
ATOM     13  C   UNL     1      -1.215  11.564  20.466  0.00  0.00    +0.000 A 
ATOM     14  C   UNL     1      -0.119  10.686  20.423  0.00  0.00    +0.000 A 
ENDBRANCH   5   8
ENDBRANCH   1   2
BRANCH   1  19
ATOM     15  N   UNL     1       5.816   4.866  17.629  0.00  0.00    +0.000 N 
ATOM     16  N   UNL     1       6.930   4.883  18.398  0.00  0.00    +0.000 NA
ATOM     17  N   UNL     1       6.554   5.267  19.599  0.00  0.00    +0.000 NA
ATOM     18  N   UNL     1       5.215   5.472  19.636  0.00  0.00    +0.000 NA
ATOM     19  C   UNL     1       4.737   5.226  18.423  0.00  0.00    +0.000 A 
BRANCH  15  20
ATOM     20  C   UNL     1       5.977   4.526  16.204  0.00  0.00    +0.000 C 
ATOM     21  C   UNL     1       5.591   3.037  15.927  0.00  0.00    +0.000 C 
ATOM     22  C   UNL     1       7.461   4.633  15.789  0.00  0.00    +0.000 C 
BRANCH  20  24
ATOM     23  C   UNL     1       5.368   6.927  15.396  0.00  0.00    +0.000 C 
ATOM     24  C   UNL     1       5.114   5.427  15.278  0.00  0.00    +0.000 C 
ENDBRANCH  20  24
ENDBRANCH  15  20
ENDBRANCH   1  19
BRANCH   1  25
ATOM     25  C   UNL     1       2.454   4.152  18.554  0.00  0.00    +0.000 A 
ATOM     26  C   UNL     1       1.169   3.755  18.210  0.00  0.00    +0.000 A 
ATOM     27  C   UNL     1       0.762   2.557  18.863  0.00  0.00    +0.000 A 
ATOM     28  C   UNL     1       1.727   2.085  19.721  0.00  0.00    +0.000 A 
ATOM     29  S   UNL     1       3.126   3.069  19.713  0.00  0.00    +0.000 S 
ENDBRANCH   1  25
TORSDOF 6
ENDMDL
MODEL 5
REMARK VINA RESULT:      -8.3      4.439      8.997
REMARK  Name = 
REMARK  9 active torsions:
REMARK  status: ('A' for Active; 'I' for Inactive)
REMARK    1  A    between atoms: C_1  and  C_2
REMARK    2  A    between atoms: C_2  and  C_3
REMARK    3  A    between atoms: C_3  and  C_4
REMARK    4  A    between atoms: C_3  and  C_5
REMARK    5  A    between atoms: C_3  and  N_6
REMARK    6  A    between atoms: C_10  and  C_11
REMARK    7  A    between atoms: C_11  and  C_12
REMARK    8  A    between atoms: C_11  and  N_17
REMARK    9  A    between atoms: C_20  and  C_21
REMARK                            x       y       z     vdW  Elec       q    Type
REMARK                         _______ _______ _______ _____ _____    ______ ____
ROOT
ATOM      1  C   UNL     1      -0.317  10.252  19.905  0.00  0.00    +0.000 C 
ENDROOT
BRANCH   1   2
ATOM      2  N   UNL     1       0.748   9.269  19.633  0.00  0.00    +0.000 NA
ATOM      3  C   UNL     1       1.453   8.647  20.737  0.00  0.00    +0.000 C 
ATOM      4  C   UNL     1       2.023   7.319  20.334  0.00  0.00    +0.000 C 
ATOM      5  C   UNL     1       2.411   7.039  19.077  0.00  0.00    +0.000 C 
ATOM      6  C   UNL     1       2.452   8.172  18.078  0.00  0.00    +0.000 C 
ATOM      7  C   UNL     1       1.430   9.315  18.350  0.00  0.00    +0.000 C 
BRANCH   5   8
ATOM      8  C   UNL     1       2.795   5.659  18.685  0.00  0.00    +0.000 A 
ATOM      9  C   UNL     1       1.879   4.859  17.970  0.00  0.00    +0.000 A 
ATOM     10  C   UNL     1       2.205   3.555  17.568  0.00  0.00    +0.000 A 
ATOM     11  C   UNL     1       3.456   3.041  17.868  0.00  0.00    +0.000 A 
ATOM     12  F   UNL     1       3.770   1.797  17.477  0.00  0.00    +0.000 F 
ATOM     13  C   UNL     1       4.390   3.814  18.545  0.00  0.00    +0.000 A 
ATOM     14  C   UNL     1       4.063   5.120  18.952  0.00  0.00    +0.000 A 
ENDBRANCH   5   8
ENDBRANCH   1   2
BRANCH   1  19
ATOM     15  N   UNL     1      -0.177  12.397  21.421  0.00  0.00    +0.000 N 
ATOM     16  N   UNL     1       0.702  13.420  21.543  0.00  0.00    +0.000 NA
ATOM     17  N   UNL     1       1.680  13.181  20.697  0.00  0.00    +0.000 NA
ATOM     18  N   UNL     1       1.444  12.039  20.005  0.00  0.00    +0.000 NA
ATOM     19  C   UNL     1       0.294  11.539  20.438  0.00  0.00    +0.000 A 
BRANCH  15  20
ATOM     20  C   UNL     1      -1.347  12.393  22.317  0.00  0.00    +0.000 C 
ATOM     21  C   UNL     1      -1.258  13.540  23.374  0.00  0.00    +0.000 C 
ATOM     22  C   UNL     1      -1.384  11.091  23.148  0.00  0.00    +0.000 C 
BRANCH  20  24
ATOM     23  C   UNL     1      -3.912  12.843  22.405  0.00  0.00    +0.000 C 
ATOM     24  C   UNL     1      -2.686  12.552  21.545  0.00  0.00    +0.000 C 
ENDBRANCH  20  24
ENDBRANCH  15  20
ENDBRANCH   1  19
BRANCH   1  25
ATOM     25  C   UNL     1      -1.216  10.506  18.695  0.00  0.00    +0.000 A 
ATOM     26  C   UNL     1      -2.024   9.620  17.996  0.00  0.00    +0.000 A 
ATOM     27  C   UNL     1      -2.746  10.241  16.937  0.00  0.00    +0.000 A 
ATOM     28  C   UNL     1      -2.445  11.577  16.824  0.00  0.00    +0.000 A 
ATOM     29  S   UNL     1      -1.321  12.083  18.009  0.00  0.00    +0.000 S 
ENDBRANCH   1  25
TORSDOF 6
ENDMDL
MODEL 6
REMARK VINA RESULT:      -8.2      0.764      1.459
REMARK  Name = 
REMARK  9 active torsions:
REMARK  status: ('A' for Active; 'I' for Inactive)
REMARK    1  A    between atoms: C_1  and  C_2
REMARK    2  A    between atoms: C_2  and  C_3
REMARK    3  A    between atoms: C_3  and  C_4
REMARK    4  A    between atoms: C_3  and  C_5
REMARK    5  A    between atoms: C_3  and  N_6
REMARK    6  A    between atoms: C_10  and  C_11
REMARK    7  A    between atoms: C_11  and  C_12
REMARK    8  A    between atoms: C_11  and  N_17
REMARK    9  A    between atoms: C_20  and  C_21
REMARK                            x       y       z     vdW  Elec       q    Type
REMARK                         _______ _______ _______ _____ _____    ______ ____
ROOT
ATOM      1  C   UNL     1       3.343   5.392  18.055  0.00  0.00    +0.000 C 
ENDROOT
BRANCH   1   2
ATOM      2  N   UNL     1       2.787   6.690  18.484  0.00  0.00    +0.000 NA
ATOM      3  C   UNL     1       3.100   7.890  17.733  0.00  0.00    +0.000 C 
ATOM      4  C   UNL     1       2.037   8.933  17.916  0.00  0.00    +0.000 C 
ATOM      5  C   UNL     1       1.303   9.043  19.038  0.00  0.00    +0.000 C 
ATOM      6  C   UNL     1       1.700   8.203  20.231  0.00  0.00    +0.000 C 
ATOM      7  C   UNL     1       2.397   6.856  19.874  0.00  0.00    +0.000 C 
BRANCH   5   8
ATOM      8  C   UNL     1       0.143   9.967  19.105  0.00  0.00    +0.000 A 
ATOM      9  C   UNL     1      -0.755  10.035  18.017  0.00  0.00    +0.000 A 
ATOM     10  C   UNL     1      -1.872  10.884  18.043  0.00  0.00    +0.000 A 
ATOM     11  C   UNL     1      -2.109  11.665  19.163  0.00  0.00    +0.000 A 
ATOM     12  F   UNL     1      -3.181  12.471  19.191  0.00  0.00    +0.000 F 
ATOM     13  C   UNL     1      -1.261  11.598  20.260  0.00  0.00    +0.000 A 
ATOM     14  C   UNL     1      -0.139  10.751  20.234  0.00  0.00    +0.000 A 
ENDBRANCH   5   8
ENDBRANCH   1   2
BRANCH   1  19
ATOM     15  N   UNL     1       5.971   5.373  17.961  0.00  0.00    +0.000 N 
ATOM     16  N   UNL     1       6.954   5.114  18.855  0.00  0.00    +0.000 NA
ATOM     17  N   UNL     1       6.363   4.855  20.001  0.00  0.00    +0.000 NA
ATOM     18  N   UNL     1       5.015   4.912  19.866  0.00  0.00    +0.000 NA
ATOM     19  C   UNL     1       4.752   5.229  18.605  0.00  0.00    +0.000 A 
BRANCH  15  20
ATOM     20  C   UNL     1       6.376   5.760  16.597  0.00  0.00    +0.000 C 
ATOM     21  C   UNL     1       5.189   6.407  15.813  0.00  0.00    +0.000 C 
ATOM     22  C   UNL     1       6.757   4.509  15.774  0.00  0.00    +0.000 C 
BRANCH  20  24
ATOM     23  C   UNL     1       7.366   8.018  17.439  0.00  0.00    +0.000 C 
ATOM     24  C   UNL     1       7.561   6.764  16.592  0.00  0.00    +0.000 C 
ENDBRANCH  20  24
ENDBRANCH  15  20
ENDBRANCH   1  19
BRANCH   1  25
ATOM     25  C   UNL     1       2.447   4.210  18.423  0.00  0.00    +0.000 A 
ATOM     26  C   UNL     1       1.338   4.170  19.257  0.00  0.00    +0.000 A 
ATOM     27  C   UNL     1       0.738   2.881  19.325  0.00  0.00    +0.000 A 
ATOM     28  C   UNL     1       1.423   1.954  18.576  0.00  0.00    +0.000 A 
ATOM     29  S   UNL     1       2.764   2.647  17.771  0.00  0.00    +0.000 S 
ENDBRANCH   1  25
TORSDOF 6
ENDMDL
MODEL 7
REMARK VINA RESULT:      -8.2      4.314      9.077
REMARK  Name = 
REMARK  9 active torsions:
REMARK  status: ('A' for Active; 'I' for Inactive)
REMARK    1  A    between atoms: C_1  and  C_2
REMARK    2  A    between atoms: C_2  and  C_3
REMARK    3  A    between atoms: C_3  and  C_4
REMARK    4  A    between atoms: C_3  and  C_5
REMARK    5  A    between atoms: C_3  and  N_6
REMARK    6  A    between atoms: C_10  and  C_11
REMARK    7  A    between atoms: C_11  and  C_12
REMARK    8  A    between atoms: C_11  and  N_17
REMARK    9  A    between atoms: C_20  and  C_21
REMARK                            x       y       z     vdW  Elec       q    Type
REMARK                         _______ _______ _______ _____ _____    ______ ____
ROOT
ATOM      1  C   UNL     1      -0.321  10.272  20.031  0.00  0.00    +0.000 C 
ENDROOT
BRANCH   1   2
ATOM      2  N   UNL     1       0.709   9.255  19.742  0.00  0.00    +0.000 NA
ATOM      3  C   UNL     1       1.366   8.565  20.835  0.00  0.00    +0.000 C 
ATOM      4  C   UNL     1       1.888   7.230  20.394  0.00  0.00    +0.000 C 
ATOM      5  C   UNL     1       2.289   6.980  19.135  0.00  0.00    +0.000 C 
ATOM      6  C   UNL     1       2.396   8.146  18.179  0.00  0.00    +0.000 C 
ATOM      7  C   UNL     1       1.416   9.320  18.474  0.00  0.00    +0.000 C 
BRANCH   5   8
ATOM      8  C   UNL     1       2.624   5.600  18.699  0.00  0.00    +0.000 A 
ATOM      9  C   UNL     1       1.920   4.508  19.249  0.00  0.00    +0.000 A 
ATOM     10  C   UNL     1       2.194   3.189  18.856  0.00  0.00    +0.000 A 
ATOM     11  C   UNL     1       3.169   2.950  17.901  0.00  0.00    +0.000 A 
ATOM     12  F   UNL     1       3.425   1.690  17.521  0.00  0.00    +0.000 F 
ATOM     13  C   UNL     1       3.858   4.006  17.321  0.00  0.00    +0.000 A 
ATOM     14  C   UNL     1       3.587   5.327  17.716  0.00  0.00    +0.000 A 
ENDBRANCH   5   8
ENDBRANCH   1   2
BRANCH   1  19
ATOM     15  N   UNL     1      -0.114  12.424  21.528  0.00  0.00    +0.000 N 
ATOM     16  N   UNL     1       0.809  13.406  21.661  0.00  0.00    +0.000 NA
ATOM     17  N   UNL     1       1.794  13.112  20.840  0.00  0.00    +0.000 NA
ATOM     18  N   UNL     1       1.520  11.975  20.155  0.00  0.00    +0.000 NA
ATOM     19  C   UNL     1       0.338  11.534  20.565  0.00  0.00    +0.000 A 
BRANCH  15  20
ATOM     20  C   UNL     1      -1.304  12.485  22.396  0.00  0.00    +0.000 C 
ATOM     21  C   UNL     1      -1.496  11.155  23.192  0.00  0.00    +0.000 C 
ATOM     22  C   UNL     1      -2.585  12.625  21.544  0.00  0.00    +0.000 C 
BRANCH  20  24
ATOM     23  C   UNL     1      -2.565  14.075  24.031  0.00  0.00    +0.000 C 
ATOM     24  C   UNL     1      -1.232  13.653  23.418  0.00  0.00    +0.000 C 
ENDBRANCH  20  24
ENDBRANCH  15  20
ENDBRANCH   1  19
BRANCH   1  25
ATOM     25  C   UNL     1      -1.222  10.564  18.831  0.00  0.00    +0.000 A 
ATOM     26  C   UNL     1      -2.126   9.732  18.185  0.00  0.00    +0.000 A 
ATOM     27  C   UNL     1      -2.814  10.377  17.119  0.00  0.00    +0.000 A 
ATOM     28  C   UNL     1      -2.393  11.674  16.945  0.00  0.00    +0.000 A 
ATOM     29  S   UNL     1      -1.198  12.117  18.086  0.00  0.00    +0.000 S 
ENDBRANCH   1  25
TORSDOF 6
ENDMDL
MODEL 8
REMARK VINA RESULT:      -8.1      2.133      4.134
REMARK  Name = 
REMARK  9 active torsions:
REMARK  status: ('A' for Active; 'I' for Inactive)
REMARK    1  A    between atoms: C_1  and  C_2
REMARK    2  A    between atoms: C_2  and  C_3
REMARK    3  A    between atoms: C_3  and  C_4
REMARK    4  A    between atoms: C_3  and  C_5
REMARK    5  A    between atoms: C_3  and  N_6
REMARK    6  A    between atoms: C_10  and  C_11
REMARK    7  A    between atoms: C_11  and  C_12
REMARK    8  A    between atoms: C_11  and  N_17
REMARK    9  A    between atoms: C_20  and  C_21
REMARK                            x       y       z     vdW  Elec       q    Type
REMARK                         _______ _______ _______ _____ _____    ______ ____
ROOT
ATOM      1  C   UNL     1       3.442   5.840  18.713  0.00  0.00    +0.000 C 
ENDROOT
BRANCH   1   2
ATOM      2  N   UNL     1       2.704   7.114  18.805  0.00  0.00    +0.000 NA
ATOM      3  C   UNL     1       2.972   8.172  17.850  0.00  0.00    +0.000 C 
ATOM      4  C   UNL     1       1.790   9.085  17.710  0.00  0.00    +0.000 C 
ATOM      5  C   UNL     1       0.922   9.319  18.710  0.00  0.00    +0.000 C 
ATOM      6  C   UNL     1       1.264   8.791  20.085  0.00  0.00    +0.000 C 
ATOM      7  C   UNL     1       2.138   7.501  20.086  0.00  0.00    +0.000 C 
BRANCH   5   8
ATOM      8  C   UNL     1      -0.330  10.080  18.473  0.00  0.00    +0.000 A 
ATOM      9  C   UNL     1      -1.154   9.739  17.379  0.00  0.00    +0.000 A 
ATOM     10  C   UNL     1      -2.353  10.423  17.125  0.00  0.00    +0.000 A 
ATOM     11  C   UNL     1      -2.745  11.448  17.970  0.00  0.00    +0.000 A 
ATOM     12  F   UNL     1      -3.895  12.096  17.731  0.00  0.00    +0.000 F 
ATOM     13  C   UNL     1      -1.971  11.787  19.071  0.00  0.00    +0.000 A 
ATOM     14  C   UNL     1      -0.768  11.106  19.324  0.00  0.00    +0.000 A 
ENDBRANCH   5   8
ENDBRANCH   1   2
BRANCH   1  19
ATOM     15  N   UNL     1       2.532   3.373  18.741  0.00  0.00    +0.000 N 
ATOM     16  N   UNL     1       1.462   2.747  18.196  0.00  0.00    +0.000 NA
ATOM     17  N   UNL     1       0.772   3.666  17.557  0.00  0.00    +0.000 NA
ATOM     18  N   UNL     1       1.384   4.872  17.650  0.00  0.00    +0.000 NA
ATOM     19  C   UNL     1       2.481   4.711  18.379  0.00  0.00    +0.000 A 
BRANCH  15  20
ATOM     20  C   UNL     1       3.443   2.566  19.573  0.00  0.00    +0.000 C 
ATOM     21  C   UNL     1       4.876   3.187  19.615  0.00  0.00    +0.000 C 
ATOM     22  C   UNL     1       3.637   1.164  18.954  0.00  0.00    +0.000 C 
BRANCH  20  24
ATOM     23  C   UNL     1       2.102   3.584  21.562  0.00  0.00    +0.000 C 
ATOM     24  C   UNL     1       2.938   2.421  21.035  0.00  0.00    +0.000 C 
ENDBRANCH  20  24
ENDBRANCH  15  20
ENDBRANCH   1  19
BRANCH   1  25
ATOM     25  C   UNL     1       4.614   5.901  17.732  0.00  0.00    +0.000 A 
ATOM     26  C   UNL     1       4.648   5.589  16.381  0.00  0.00    +0.000 A 
ATOM     27  C   UNL     1       5.925   5.806  15.790  0.00  0.00    +0.000 A 
ATOM     28  C   UNL     1       6.850   6.241  16.711  0.00  0.00    +0.000 A 
ATOM     29  S   UNL     1       6.168   6.414  18.270  0.00  0.00    +0.000 S 
ENDBRANCH   1  25
TORSDOF 6
ENDMDL
MODEL 9
REMARK VINA RESULT:      -8.1      4.626      9.119
REMARK  Name = 
REMARK  9 active torsions:
REMARK  status: ('A' for Active; 'I' for Inactive)
REMARK    1  A    between atoms: C_1  and  C_2
REMARK    2  A    between atoms: C_2  and  C_3
REMARK    3  A    between atoms: C_3  and  C_4
REMARK    4  A    between atoms: C_3  and  C_5
REMARK    5  A    between atoms: C_3  and  N_6
REMARK    6  A    between atoms: C_10  and  C_11
REMARK    7  A    between atoms: C_11  and  C_12
REMARK    8  A    between atoms: C_11  and  N_17
REMARK    9  A    between atoms: C_20  and  C_21
REMARK                            x       y       z     vdW  Elec       q    Type
REMARK                         _______ _______ _______ _____ _____    ______ ____
ROOT
ATOM      1  C   UNL     1      -0.755  10.560  19.558  0.00  0.00    +0.000 C 
ENDROOT
BRANCH   1   2
ATOM      2  N   UNL     1       0.379   9.628  19.415  0.00  0.00    +0.000 NA
ATOM      3  C   UNL     1       1.028   9.096  20.598  0.00  0.00    +0.000 C 
ATOM      4  C   UNL     1       1.697   7.786  20.303  0.00  0.00    +0.000 C 
ATOM      5  C   UNL     1       2.197   7.474  19.094  0.00  0.00    +0.000 C 
ATOM      6  C   UNL     1       2.256   8.564  18.048  0.00  0.00    +0.000 C 
ATOM      7  C   UNL     1       1.156   9.657  18.187  0.00  0.00    +0.000 C 
BRANCH   5   8
ATOM      8  C   UNL     1       2.684   6.103  18.799  0.00  0.00    +0.000 A 
ATOM      9  C   UNL     1       3.837   5.618  19.453  0.00  0.00    +0.000 A 
ATOM     10  C   UNL     1       4.324   4.324  19.214  0.00  0.00    +0.000 A 
ATOM     11  C   UNL     1       3.655   3.497  18.326  0.00  0.00    +0.000 A 
ATOM     12  F   UNL     1       4.116   2.257  18.104  0.00  0.00    +0.000 F 
ATOM     13  C   UNL     1       2.501   3.934  17.690  0.00  0.00    +0.000 A 
ATOM     14  C   UNL     1       2.015   5.232  17.925  0.00  0.00    +0.000 A 
ENDBRANCH   5   8
ENDBRANCH   1   2
BRANCH   1  19
ATOM     15  N   UNL     1      -0.521  12.753  20.991  0.00  0.00    +0.000 N 
ATOM     16  N   UNL     1       0.162  13.914  20.850  0.00  0.00    +0.000 NA
ATOM     17  N   UNL     1       0.854  13.812  19.736  0.00  0.00    +0.000 NA
ATOM     18  N   UNL     1       0.614  12.622  19.133  0.00  0.00    +0.000 NA
ATOM     19  C   UNL     1      -0.240  11.951  19.896  0.00  0.00    +0.000 A 
BRANCH  15  20
ATOM     20  C   UNL     1      -1.335  12.585  22.209  0.00  0.00    +0.000 C 
ATOM     21  C   UNL     1      -1.022  13.698  23.260  0.00  0.00    +0.000 C 
ATOM     22  C   UNL     1      -0.977  11.260  22.917  0.00  0.00    +0.000 C 
BRANCH  20  24
ATOM     23  C   UNL     1      -3.771  12.570  23.135  0.00  0.00    +0.000 C 
ATOM     24  C   UNL     1      -2.859  12.618  21.912  0.00  0.00    +0.000 C 
ENDBRANCH  20  24
ENDBRANCH  15  20
ENDBRANCH   1  19
BRANCH   1  25
ATOM     25  C   UNL     1      -1.673  10.573  18.336  0.00  0.00    +0.000 A 
ATOM     26  C   UNL     1      -1.631   9.785  17.194  0.00  0.00    +0.000 A 
ATOM     27  C   UNL     1      -2.686  10.070  16.281  0.00  0.00    +0.000 A 
ATOM     28  C   UNL     1      -3.485  11.097  16.723  0.00  0.00    +0.000 A 
ATOM     29  S   UNL     1      -2.983  11.689  18.247  0.00  0.00    +0.000 S 
ENDBRANCH   1  25
TORSDOF 6
ENDMDL
