MODEL 1
REMARK VINA RESULT:      -6.0      0.000      0.000
REMARK  Name = 
REMARK  5 active torsions:
REMARK  status: ('A' for Active; 'I' for Inactive)
REMARK    1  A    between atoms: C_1  and  C_2
REMARK    2  A    between atoms: C_4  and  C_5
REMARK    3  A    between atoms: C_7  and  N_8
REMARK    4  A    between atoms: C_9  and  S_10
REMARK    5  A    between atoms: N_11  and  N_12
REMARK                            x       y       z     vdW  Elec       q    Type
REMARK                         _______ _______ _______ _____ _____    ______ ____
ROOT
ATOM      1  N   UNL     1       2.821   5.164  20.688  0.00  0.00    +0.000 N 
ATOM      2  C   UNL     1       2.119   4.000  20.847  0.00  0.00    +0.000 C 
ATOM      3  N   UNL     1       2.225   3.394  22.009  0.00  0.00    +0.000 NA
ATOM      4  H   UNL     1       3.253   5.457  21.557  0.00  0.00    +0.000 HD
ENDROOT
BRANCH   1  11
ATOM      5  C   UNL     1       5.437   6.080  16.553  0.00  0.00    +0.000 C 
ATOM      6  C   UNL     1       4.371   6.474  17.530  0.00  0.00    +0.000 A 
ATOM      7  C   UNL     1       3.545   7.580  17.296  0.00  0.00    +0.000 A 
ATOM      8  C   UNL     1       2.536   7.911  18.202  0.00  0.00    +0.000 A 
ATOM      9  C   UNL     1       1.665   9.113  17.973  0.00  0.00    +0.000 C 
ATOM     10  C   UNL     1       2.338   7.100  19.330  0.00  0.00    +0.000 A 
ATOM     11  C   UNL     1       3.145   5.977  19.588  0.00  0.00    +0.000 A 
ATOM     12  C   UNL     1       4.174   5.702  18.686  0.00  0.00    +0.000 A 
ENDBRANCH   1  11
BRANCH   3  13
ATOM     13  N   UNL     1       1.465   2.295  22.239  0.00  0.00    +0.000 N 
ATOM     14  H   UNL     1       0.578   2.351  21.739  0.00  0.00    +0.000 HD
ATOM     15  H   UNL     1       1.274   2.147  23.233  0.00  0.00    +0.000 HD
ENDBRANCH   3  13
BRANCH   2  16
ATOM     16  S   UNL     1       1.050   3.383  19.584  0.00  0.00    +0.000 S 
ATOM     17  H   UNL     1       1.417   2.103  19.705  0.00  0.00    +0.000 HD
ENDBRANCH   2  16
TORSDOF 3
ENDMDL
MODEL 2
REMARK VINA RESULT:      -5.9      0.173      2.390
REMARK  Name = 
REMARK  5 active torsions:
REMARK  status: ('A' for Active; 'I' for Inactive)
REMARK    1  A    between atoms: C_1  and  C_2
REMARK    2  A    between atoms: C_4  and  C_5
REMARK    3  A    between atoms: C_7  and  N_8
REMARK    4  A    between atoms: C_9  and  S_10
REMARK    5  A    between atoms: N_11  and  N_12
REMARK                            x       y       z     vdW  Elec       q    Type
REMARK                         _______ _______ _______ _____ _____    ______ ____
ROOT
ATOM      1  N   UNL     1       2.755   5.172  20.607  0.00  0.00    +0.000 N 
ATOM      2  C   UNL     1       2.092   3.996  20.835  0.00  0.00    +0.000 C 
ATOM      3  N   UNL     1       2.279   3.424  22.004  0.00  0.00    +0.000 NA
ATOM      4  H   UNL     1       3.228   5.497  21.442  0.00  0.00    +0.000 HD
ENDROOT
BRANCH   1  11
ATOM      5  C   UNL     1       1.974   9.271  17.892  0.00  0.00    +0.000 C 
ATOM      6  C   UNL     1       2.685   7.968  18.104  0.00  0.00    +0.000 A 
ATOM      7  C   UNL     1       3.734   7.570  17.267  0.00  0.00    +0.000 A 
ATOM      8  C   UNL     1       4.406   6.370  17.501  0.00  0.00    +0.000 A 
ATOM      9  C   UNL     1       5.513   5.920  16.591  0.00  0.00    +0.000 C 
ATOM     10  C   UNL     1       4.039   5.586  18.606  0.00  0.00    +0.000 A 
ATOM     11  C   UNL     1       2.996   5.963  19.471  0.00  0.00    +0.000 A 
ATOM     12  C   UNL     1       2.315   7.147  19.181  0.00  0.00    +0.000 A 
ENDBRANCH   1  11
BRANCH   3  13
ATOM     13  N   UNL     1       1.561   2.314  22.304  0.00  0.00    +0.000 N 
ATOM     14  H   UNL     1       2.169   1.550  22.595  0.00  0.00    +0.000 HD
ATOM     15  H   UNL     1       0.981   1.995  21.524  0.00  0.00    +0.000 HD
ENDBRANCH   3  13
BRANCH   2  16
ATOM     16  S   UNL     1       0.968   3.322  19.652  0.00  0.00    +0.000 S 
ATOM     17  H   UNL     1      -0.111   3.974  20.098  0.00  0.00    +0.000 HD
ENDBRANCH   2  16
TORSDOF 3
ENDMDL
MODEL 3
REMARK VINA RESULT:      -5.9      2.890      3.666
REMARK  Name = 
REMARK  5 active torsions:
REMARK  status: ('A' for Active; 'I' for Inactive)
REMARK    1  A    between atoms: C_1  and  C_2
REMARK    2  A    between atoms: C_4  and  C_5
REMARK    3  A    between atoms: C_7  and  N_8
REMARK    4  A    between atoms: C_9  and  S_10
REMARK    5  A    between atoms: N_11  and  N_12
REMARK                            x       y       z     vdW  Elec       q    Type
REMARK                         _______ _______ _______ _____ _____    ______ ____
ROOT
ATOM      1  N   UNL     1       3.174   4.584  18.336  0.00  0.00    +0.000 N 
ATOM      2  C   UNL     1       2.400   3.647  18.966  0.00  0.00    +0.000 C 
ATOM      3  N   UNL     1       1.306   4.077  19.556  0.00  0.00    +0.000 NA
ATOM      4  H   UNL     1       2.719   5.491  18.324  0.00  0.00    +0.000 HD
ENDROOT
BRANCH   1  11
ATOM      5  C   UNL     1       6.319   3.994  14.524  0.00  0.00    +0.000 C 
ATOM      6  C   UNL     1       6.069   4.350  15.958  0.00  0.00    +0.000 A 
ATOM      7  C   UNL     1       7.089   4.860  16.768  0.00  0.00    +0.000 A 
ATOM      8  C   UNL     1       6.827   5.216  18.092  0.00  0.00    +0.000 A 
ATOM      9  C   UNL     1       7.923   5.737  18.978  0.00  0.00    +0.000 C 
ATOM     10  C   UNL     1       5.520   5.091  18.587  0.00  0.00    +0.000 A 
ATOM     11  C   UNL     1       4.471   4.590  17.795  0.00  0.00    +0.000 A 
ATOM     12  C   UNL     1       4.778   4.200  16.490  0.00  0.00    +0.000 A 
ENDBRANCH   1  11
BRANCH   3  13
ATOM     13  N   UNL     1       0.463   3.165  20.101  0.00  0.00    +0.000 N 
ATOM     14  H   UNL     1       0.430   3.255  21.116  0.00  0.00    +0.000 HD
ATOM     15  H   UNL     1       0.716   2.202  19.864  0.00  0.00    +0.000 HD
ENDBRANCH   3  13
BRANCH   2  16
ATOM     16  S   UNL     1       2.803   1.929  18.918  0.00  0.00    +0.000 S 
ATOM     17  H   UNL     1       2.709   1.802  17.591  0.00  0.00    +0.000 HD
ENDBRANCH   2  16
TORSDOF 3
ENDMDL
MODEL 4
REMARK VINA RESULT:      -5.9      3.108      4.837
REMARK  Name = 
REMARK  5 active torsions:
REMARK  status: ('A' for Active; 'I' for Inactive)
REMARK    1  A    between atoms: C_1  and  C_2
REMARK    2  A    between atoms: C_4  and  C_5
REMARK    3  A    between atoms: C_7  and  N_8
REMARK    4  A    between atoms: C_9  and  S_10
REMARK    5  A    between atoms: N_11  and  N_12
REMARK                            x       y       z     vdW  Elec       q    Type
REMARK                         _______ _______ _______ _____ _____    ______ ____
ROOT
ATOM      1  N   UNL     1       5.393   4.430  19.011  0.00  0.00    +0.000 N 
ATOM      2  C   UNL     1       5.977   4.486  17.774  0.00  0.00    +0.000 C 
ATOM      3  N   UNL     1       7.291   4.475  17.735  0.00  0.00    +0.000 NA
ATOM      4  H   UNL     1       6.082   4.275  19.738  0.00  0.00    +0.000 HD
ENDROOT
BRANCH   1  11
ATOM      5  C   UNL     1       1.253   2.765  21.218  0.00  0.00    +0.000 C 
ATOM      6  C   UNL     1       2.038   3.885  20.603  0.00  0.00    +0.000 A 
ATOM      7  C   UNL     1       1.569   5.203  20.638  0.00  0.00    +0.000 A 
ATOM      8  C   UNL     1       2.330   6.237  20.089  0.00  0.00    +0.000 A 
ATOM      9  C   UNL     1       1.822   7.650  20.095  0.00  0.00    +0.000 C 
ATOM     10  C   UNL     1       3.586   5.940  19.537  0.00  0.00    +0.000 A 
ATOM     11  C   UNL     1       4.088   4.627  19.495  0.00  0.00    +0.000 A 
ATOM     12  C   UNL     1       3.281   3.612  20.011  0.00  0.00    +0.000 A 
ENDBRANCH   1  11
BRANCH   3  13
ATOM     13  N   UNL     1       7.902   4.425  16.525  0.00  0.00    +0.000 N 
ATOM     14  H   UNL     1       8.853   4.790  16.578  0.00  0.00    +0.000 HD
ATOM     15  H   UNL     1       7.392   4.940  15.803  0.00  0.00    +0.000 HD
ENDBRANCH   3  13
BRANCH   2  16
ATOM     16  S   UNL     1       5.013   4.486  16.294  0.00  0.00    +0.000 S 
ATOM     17  H   UNL     1       5.987   4.933  15.495  0.00  0.00    +0.000 HD
ENDBRANCH   2  16
TORSDOF 3
ENDMDL
MODEL 5
REMARK VINA RESULT:      -5.8      2.708      3.768
REMARK  Name = 
REMARK  5 active torsions:
REMARK  status: ('A' for Active; 'I' for Inactive)
REMARK    1  A    between atoms: C_1  and  C_2
REMARK    2  A    between atoms: C_4  and  C_5
REMARK    3  A    between atoms: C_7  and  N_8
REMARK    4  A    between atoms: C_9  and  S_10
REMARK    5  A    between atoms: N_11  and  N_12
REMARK                            x       y       z     vdW  Elec       q    Type
REMARK                         _______ _______ _______ _____ _____    ______ ____
ROOT
ATOM      1  N   UNL     1       3.105   4.587  18.260  0.00  0.00    +0.000 N 
ATOM      2  C   UNL     1       2.557   3.854  19.278  0.00  0.00    +0.000 C 
ATOM      3  N   UNL     1       1.299   4.094  19.573  0.00  0.00    +0.000 NA
ATOM      4  H   UNL     1       2.405   5.153  17.794  0.00  0.00    +0.000 HD
ENDROOT
BRANCH   1  11
ATOM      5  C   UNL     1       7.842   5.946  18.965  0.00  0.00    +0.000 C 
ATOM      6  C   UNL     1       6.762   5.414  18.071  0.00  0.00    +0.000 A 
ATOM      7  C   UNL     1       7.050   4.946  16.784  0.00  0.00    +0.000 A 
ATOM      8  C   UNL     1       6.035   4.424  15.980  0.00  0.00    +0.000 A 
ATOM      9  C   UNL     1       6.330   3.948  14.586  0.00  0.00    +0.000 C 
ATOM     10  C   UNL     1       4.732   4.341  16.494  0.00  0.00    +0.000 A 
ATOM     11  C   UNL     1       4.413   4.793  17.787  0.00  0.00    +0.000 A 
ATOM     12  C   UNL     1       5.442   5.352  18.546  0.00  0.00    +0.000 A 
ENDBRANCH   1  11
BRANCH   3  13
ATOM     13  N   UNL     1       0.693   3.317  20.505  0.00  0.00    +0.000 N 
ATOM     14  H   UNL     1      -0.296   3.191  20.293  0.00  0.00    +0.000 HD
ATOM     15  H   UNL     1       0.782   3.693  21.452  0.00  0.00    +0.000 HD
ENDBRANCH   3  13
BRANCH   2  16
ATOM     16  S   UNL     1       3.468   2.585  20.100  0.00  0.00    +0.000 S 
ATOM     17  H   UNL     1       3.472   3.172  21.301  0.00  0.00    +0.000 HD
ENDBRANCH   2  16
TORSDOF 3
ENDMDL
MODEL 6
REMARK VINA RESULT:      -5.8      3.853      5.616
REMARK  Name = 
REMARK  5 active torsions:
REMARK  status: ('A' for Active; 'I' for Inactive)
REMARK    1  A    between atoms: C_1  and  C_2
REMARK    2  A    between atoms: C_4  and  C_5
REMARK    3  A    between atoms: C_7  and  N_8
REMARK    4  A    between atoms: C_9  and  S_10
REMARK    5  A    between atoms: N_11  and  N_12
REMARK                            x       y       z     vdW  Elec       q    Type
REMARK                         _______ _______ _______ _____ _____    ______ ____
ROOT
ATOM      1  N   UNL     1       4.626   5.621  16.508  0.00  0.00    +0.000 N 
ATOM      2  C   UNL     1       5.944   5.340  16.263  0.00  0.00    +0.000 C 
ATOM      3  N   UNL     1       6.386   5.574  15.047  0.00  0.00    +0.000 NA
ATOM      4  H   UNL     1       4.194   6.085  15.717  0.00  0.00    +0.000 HD
ENDROOT
BRANCH   1  11
ATOM      5  C   UNL     1       1.943   6.999  20.467  0.00  0.00    +0.000 C 
ATOM      6  C   UNL     1       2.366   5.947  19.487  0.00  0.00    +0.000 A 
ATOM      7  C   UNL     1       1.765   4.683  19.475  0.00  0.00    +0.000 A 
ATOM      8  C   UNL     1       2.151   3.729  18.532  0.00  0.00    +0.000 A 
ATOM      9  C   UNL     1       1.533   2.359  18.530  0.00  0.00    +0.000 C 
ATOM     10  C   UNL     1       3.120   4.066  17.575  0.00  0.00    +0.000 A 
ATOM     11  C   UNL     1       3.736   5.331  17.556  0.00  0.00    +0.000 A 
ATOM     12  C   UNL     1       3.360   6.246  18.541  0.00  0.00    +0.000 A 
ENDBRANCH   1  11
BRANCH   3  13
ATOM     13  N   UNL     1       7.708   5.406  14.795  0.00  0.00    +0.000 N 
ATOM     14  H   UNL     1       8.218   6.281  14.908  0.00  0.00    +0.000 HD
ATOM     15  H   UNL     1       7.888   5.038  13.857  0.00  0.00    +0.000 HD
ENDBRANCH   3  13
BRANCH   2  16
ATOM     16  S   UNL     1       7.023   4.772  17.540  0.00  0.00    +0.000 S 
ATOM     17  H   UNL     1       6.073   4.184  18.273  0.00  0.00    +0.000 HD
ENDBRANCH   2  16
TORSDOF 3
ENDMDL
MODEL 7
REMARK VINA RESULT:      -5.8      3.492      4.239
REMARK  Name = 
REMARK  5 active torsions:
REMARK  status: ('A' for Active; 'I' for Inactive)
REMARK    1  A    between atoms: C_1  and  C_2
REMARK    2  A    between atoms: C_4  and  C_5
REMARK    3  A    between atoms: C_7  and  N_8
REMARK    4  A    between atoms: C_9  and  S_10
REMARK    5  A    between atoms: N_11  and  N_12
REMARK                            x       y       z     vdW  Elec       q    Type
REMARK                         _______ _______ _______ _____ _____    ______ ____
ROOT
ATOM      1  N   UNL     1       4.486   3.105  18.045  0.00  0.00    +0.000 N 
ATOM      2  C   UNL     1       3.138   2.928  18.208  0.00  0.00    +0.000 C 
ATOM      3  N   UNL     1       2.748   1.810  18.779  0.00  0.00    +0.000 NA
ATOM      4  H   UNL     1       5.012   2.368  18.502  0.00  0.00    +0.000 HD
ENDROOT
BRANCH   1  11
ATOM      5  C   UNL     1       7.578   7.000  17.836  0.00  0.00    +0.000 C 
ATOM      6  C   UNL     1       6.830   5.896  17.151  0.00  0.00    +0.000 A 
ATOM      7  C   UNL     1       7.026   5.622  15.792  0.00  0.00    +0.000 A 
ATOM      8  C   UNL     1       6.345   4.568  15.180  0.00  0.00    +0.000 A 
ATOM      9  C   UNL     1       6.526   4.285  13.716  0.00  0.00    +0.000 C 
ATOM     10  C   UNL     1       5.491   3.766  15.954  0.00  0.00    +0.000 A 
ATOM     11  C   UNL     1       5.281   4.010  17.323  0.00  0.00    +0.000 A 
ATOM     12  C   UNL     1       5.942   5.100  17.892  0.00  0.00    +0.000 A 
ENDBRANCH   1  11
BRANCH   3  13
ATOM     13  N   UNL     1       1.430   1.646  19.049  0.00  0.00    +0.000 N 
ATOM     14  H   UNL     1       1.174   0.659  19.050  0.00  0.00    +0.000 HD
ATOM     15  H   UNL     1       0.826   2.142  18.389  0.00  0.00    +0.000 HD
ENDBRANCH   3  13
BRANCH   2  16
ATOM     16  S   UNL     1       1.978   4.179  17.752  0.00  0.00    +0.000 S 
ATOM     17  H   UNL     1       2.624   5.189  18.343  0.00  0.00    +0.000 HD
ENDBRANCH   2  16
TORSDOF 3
ENDMDL
MODEL 8
REMARK VINA RESULT:      -5.8      4.619      5.929
REMARK  Name = 
REMARK  5 active torsions:
REMARK  status: ('A' for Active; 'I' for Inactive)
REMARK    1  A    between atoms: C_1  and  C_2
REMARK    2  A    between atoms: C_4  and  C_5
REMARK    3  A    between atoms: C_7  and  N_8
REMARK    4  A    between atoms: C_9  and  S_10
REMARK    5  A    between atoms: N_11  and  N_12
REMARK                            x       y       z     vdW  Elec       q    Type
REMARK                         _______ _______ _______ _____ _____    ______ ____
ROOT
ATOM      1  N   UNL     1       6.155   5.175  16.101  0.00  0.00    +0.000 N 
ATOM      2  C   UNL     1       6.628   5.034  14.823  0.00  0.00    +0.000 C 
ATOM      3  N   UNL     1       7.815   5.539  14.569  0.00  0.00    +0.000 NA
ATOM      4  H   UNL     1       6.860   5.569  16.714  0.00  0.00    +0.000 HD
ENDROOT
BRANCH   1  11
ATOM      5  C   UNL     1       2.551   2.217  17.842  0.00  0.00    +0.000 C 
ATOM      6  C   UNL     1       3.113   3.589  17.623  0.00  0.00    +0.000 A 
ATOM      7  C   UNL     1       2.496   4.721  18.168  0.00  0.00    +0.000 A 
ATOM      8  C   UNL     1       3.054   5.987  17.979  0.00  0.00    +0.000 A 
ATOM      9  C   UNL     1       2.384   7.211  18.536  0.00  0.00    +0.000 C 
ATOM     10  C   UNL     1       4.259   6.103  17.268  0.00  0.00    +0.000 A 
ATOM     11  C   UNL     1       4.906   4.984  16.716  0.00  0.00    +0.000 A 
ATOM     12  C   UNL     1       4.297   3.739  16.884  0.00  0.00    +0.000 A 
ENDBRANCH   1  11
BRANCH   3  13
ATOM     13  N   UNL     1       8.359   5.329  13.344  0.00  0.00    +0.000 N 
ATOM     14  H   UNL     1       9.060   4.590  13.375  0.00  0.00    +0.000 HD
ATOM     15  H   UNL     1       8.785   6.172  12.951  0.00  0.00    +0.000 HD
ENDBRANCH   3  13
BRANCH   2  16
ATOM     16  S   UNL     1       5.727   4.140  13.595  0.00  0.00    +0.000 S 
ATOM     17  H   UNL     1       5.238   3.216  14.428  0.00  0.00    +0.000 HD
ENDBRANCH   2  16
TORSDOF 3
ENDMDL
MODEL 9
REMARK VINA RESULT:      -5.7      2.993      3.552
REMARK  Name = 
REMARK  5 active torsions:
REMARK  status: ('A' for Active; 'I' for Inactive)
REMARK    1  A    between atoms: C_1  and  C_2
REMARK    2  A    between atoms: C_4  and  C_5
REMARK    3  A    between atoms: C_7  and  N_8
REMARK    4  A    between atoms: C_9  and  S_10
REMARK    5  A    between atoms: N_11  and  N_12
REMARK                            x       y       z     vdW  Elec       q    Type
REMARK                         _______ _______ _______ _____ _____    ______ ____
ROOT
ATOM      1  N   UNL     1       3.977   3.424  19.245  0.00  0.00    +0.000 N 
ATOM      2  C   UNL     1       2.777   3.729  19.830  0.00  0.00    +0.000 C 
ATOM      3  N   UNL     1       2.077   2.725  20.309  0.00  0.00    +0.000 NA
ATOM      4  H   UNL     1       4.208   2.444  19.366  0.00  0.00    +0.000 HD
ENDROOT
BRANCH   1  11
ATOM      5  C   UNL     1       7.930   6.408  18.749  0.00  0.00    +0.000 C 
ATOM      6  C   UNL     1       6.851   5.568  18.135  0.00  0.00    +0.000 A 
ATOM      7  C   UNL     1       6.818   5.323  16.757  0.00  0.00    +0.000 A 
ATOM      8  C   UNL     1       5.824   4.511  16.209  0.00  0.00    +0.000 A 
ATOM      9  C   UNL     1       5.762   4.267  14.728  0.00  0.00    +0.000 C 
ATOM     10  C   UNL     1       4.882   3.914  17.063  0.00  0.00    +0.000 A 
ATOM     11  C   UNL     1       4.895   4.133  18.452  0.00  0.00    +0.000 A 
ATOM     12  C   UNL     1       5.875   4.988  18.961  0.00  0.00    +0.000 A 
ENDBRANCH   1  11
BRANCH   3  13
ATOM     13  N   UNL     1       0.934   2.998  20.986  0.00  0.00    +0.000 N 
ATOM     14  H   UNL     1       0.192   2.346  20.733  0.00  0.00    +0.000 HD
ATOM     15  H   UNL     1       0.600   3.953  20.831  0.00  0.00    +0.000 HD
ENDBRANCH   3  13
BRANCH   2  16
ATOM     16  S   UNL     1       2.234   5.399  20.012  0.00  0.00    +0.000 S 
ATOM     17  H   UNL     1       3.029   5.908  19.066  0.00  0.00    +0.000 HD
ENDBRANCH   2  16
TORSDOF 3
ENDMDL
