MODEL 1
REMARK VINA RESULT:      -7.6      0.000      0.000
REMARK  Name = 
REMARK  8 active torsions:
REMARK  status: ('A' for Active; 'I' for Inactive)
REMARK    1  A    between atoms: C_7  and  C_8
REMARK    2  A    between atoms: C_8  and  N_9
REMARK    3  A    between atoms: N_9  and  C_10
REMARK    4  A    between atoms: C_10  and  C_11
REMARK    5  A    between atoms: C_11  and  C_12
REMARK    6  A    between atoms: C_12  and  C_13
REMARK    7  A    between atoms: C_12  and  C_20
REMARK    8  A    between atoms: C_13  and  C_14
REMARK                            x       y       z     vdW  Elec       q    Type
REMARK                         _______ _______ _______ _____ _____    ______ ____
ROOT
ATOM      1  C   UNL     1       2.700   7.344  18.317  0.00  0.00    +0.000 C 
ENDROOT
BRANCH   1   2
ATOM      2  C   UNL     1       3.920   6.456  17.948  0.00  0.00    +0.000 A 
ATOM      3  C   UNL     1       4.689   5.725  18.912  0.00  0.00    +0.000 A 
ATOM      4  C   UNL     1       5.852   5.011  18.537  0.00  0.00    +0.000 A 
ATOM      5  C   UNL     1       6.231   5.052  17.198  0.00  0.00    +0.000 A 
ATOM      6  C   UNL     1       5.516   5.716  16.284  0.00  0.00    +0.000 A 
ATOM      7  C   UNL     1       4.377   6.419  16.599  0.00  0.00    +0.000 A 
ATOM      8  O   UNL     1       6.106   5.631  15.094  0.00  0.00    +0.000 OA
ATOM      9  C   UNL     1       7.288   4.930  15.270  0.00  0.00    +0.000 C 
ATOM     10  O   UNL     1       7.313   4.535  16.609  0.00  0.00    +0.000 OA
ENDBRANCH   1   2
BRANCH   1  11
ATOM     11  C   UNL     1       2.535   7.425  19.862  0.00  0.00    +0.000 C 
BRANCH  11  12
ATOM     12  C   UNL     1       1.329   6.724  20.503  0.00  0.00    +0.000 C 
BRANCH  12  13
ATOM     13  N   UNL     1       1.804   5.419  20.996  0.00  0.00    +0.000 NA
ATOM     14  H   UNL     1       2.817   5.311  20.751  0.00  0.00    +0.000 HD
BRANCH  13  15
ATOM     15  C   UNL     1       1.101   4.269  20.432  0.00  0.00    +0.000 C 
BRANCH  15  22
ATOM     16  F   UNL     1       0.936   4.552  17.582  0.00  0.00    +0.000 F 
ATOM     17  C   UNL     1       1.839   3.674  18.088  0.00  0.00    +0.000 A 
ATOM     18  C   UNL     1       2.655   2.951  17.217  0.00  0.00    +0.000 A 
ATOM     19  C   UNL     1       3.596   2.055  17.711  0.00  0.00    +0.000 A 
ATOM     20  C   UNL     1       3.734   1.869  19.090  0.00  0.00    +0.000 A 
ATOM     21  C   UNL     1       2.924   2.591  19.971  0.00  0.00    +0.000 A 
ATOM     22  C   UNL     1       1.971   3.499  19.480  0.00  0.00    +0.000 A 
ENDBRANCH  15  22
ENDBRANCH  13  15
ENDBRANCH  12  13
ENDBRANCH  11  12
ENDBRANCH   1  11
BRANCH   1  23
ATOM     23  C   UNL     1       2.663   8.738  17.589  0.00  0.00    +0.000 C 
BRANCH  23  24
ATOM     24  C   UNL     1       1.489   9.605  18.005  0.00  0.00    +0.000 A 
ATOM     25  C   UNL     1       1.697  10.797  18.737  0.00  0.00    +0.000 A 
ATOM     26  C   UNL     1       0.606  11.552  19.182  0.00  0.00    +0.000 A 
ATOM     27  C   UNL     1      -0.696  11.150  18.876  0.00  0.00    +0.000 A 
ATOM     28  C   UNL     1      -0.910  10.012  18.104  0.00  0.00    +0.000 A 
ATOM     29  C   UNL     1       0.172   9.261  17.659  0.00  0.00    +0.000 A 
ENDBRANCH  23  24
ENDBRANCH   1  23
TORSDOF 8
ENDMDL
MODEL 2
REMARK VINA RESULT:      -7.6      0.964      1.609
REMARK  Name = 
REMARK  8 active torsions:
REMARK  status: ('A' for Active; 'I' for Inactive)
REMARK    1  A    between atoms: C_7  and  C_8
REMARK    2  A    between atoms: C_8  and  N_9
REMARK    3  A    between atoms: N_9  and  C_10
REMARK    4  A    between atoms: C_10  and  C_11
REMARK    5  A    between atoms: C_11  and  C_12
REMARK    6  A    between atoms: C_12  and  C_13
REMARK    7  A    between atoms: C_12  and  C_20
REMARK    8  A    between atoms: C_13  and  C_14
REMARK                            x       y       z     vdW  Elec       q    Type
REMARK                         _______ _______ _______ _____ _____    ______ ____
ROOT
ATOM      1  C   UNL     1       2.600   7.314  18.400  0.00  0.00    +0.000 C 
ENDROOT
BRANCH   1   2
ATOM      2  C   UNL     1       3.822   6.399  18.113  0.00  0.00    +0.000 A 
ATOM      3  C   UNL     1       4.614   5.790  19.142  0.00  0.00    +0.000 A 
ATOM      4  C   UNL     1       5.777   5.047  18.831  0.00  0.00    +0.000 A 
ATOM      5  C   UNL     1       6.133   4.935  17.490  0.00  0.00    +0.000 A 
ATOM      6  C   UNL     1       5.396   5.483  16.518  0.00  0.00    +0.000 A 
ATOM      7  C   UNL     1       4.256   6.209  16.770  0.00  0.00    +0.000 A 
ATOM      8  O   UNL     1       5.966   5.264  15.335  0.00  0.00    +0.000 OA
ATOM      9  C   UNL     1       7.158   4.598  15.570  0.00  0.00    +0.000 C 
ATOM     10  O   UNL     1       7.210   4.361  16.945  0.00  0.00    +0.000 OA
ENDBRANCH   1   2
BRANCH   1  11
ATOM     11  C   UNL     1       2.375   7.459  19.933  0.00  0.00    +0.000 C 
BRANCH  11  12
ATOM     12  C   UNL     1       1.226   6.672  20.577  0.00  0.00    +0.000 C 
BRANCH  12  13
ATOM     13  N   UNL     1       1.806   5.428  21.115  0.00  0.00    +0.000 NA
ATOM     14  H   UNL     1       2.806   5.361  20.812  0.00  0.00    +0.000 HD
BRANCH  13  15
ATOM     15  C   UNL     1       1.138   4.208  20.667  0.00  0.00    +0.000 C 
BRANCH  15  22
ATOM     16  F   UNL     1       3.281   2.430  21.359  0.00  0.00    +0.000 F 
ATOM     17  C   UNL     1       3.002   2.617  20.043  0.00  0.00    +0.000 A 
ATOM     18  C   UNL     1       3.751   1.941  19.081  0.00  0.00    +0.000 A 
ATOM     19  C   UNL     1       3.478   2.107  17.728  0.00  0.00    +0.000 A 
ATOM     20  C   UNL     1       2.445   2.956  17.318  0.00  0.00    +0.000 A 
ATOM     21  C   UNL     1       1.686   3.635  18.275  0.00  0.00    +0.000 A 
ATOM     22  C   UNL     1       1.956   3.472  19.644  0.00  0.00    +0.000 A 
ENDBRANCH  15  22
ENDBRANCH  13  15
ENDBRANCH  12  13
ENDBRANCH  11  12
ENDBRANCH   1  11
BRANCH   1  23
ATOM     23  C   UNL     1       2.609   8.678  17.617  0.00  0.00    +0.000 C 
BRANCH  23  24
ATOM     24  C   UNL     1       1.487   9.616  18.023  0.00  0.00    +0.000 A 
ATOM     25  C   UNL     1       0.135   9.253  17.821  0.00  0.00    +0.000 A 
ATOM     26  C   UNL     1      -0.891  10.154  18.128  0.00  0.00    +0.000 A 
ATOM     27  C   UNL     1      -0.588  11.405  18.667  0.00  0.00    +0.000 A 
ATOM     28  C   UNL     1       0.736  11.749  18.927  0.00  0.00    +0.000 A 
ATOM     29  C   UNL     1       1.758  10.856  18.625  0.00  0.00    +0.000 A 
ENDBRANCH  23  24
ENDBRANCH   1  23
TORSDOF 8
ENDMDL
MODEL 3
REMARK VINA RESULT:      -7.6      3.287      7.059
REMARK  Name = 
REMARK  8 active torsions:
REMARK  status: ('A' for Active; 'I' for Inactive)
REMARK    1  A    between atoms: C_7  and  C_8
REMARK    2  A    between atoms: C_8  and  N_9
REMARK    3  A    between atoms: N_9  and  C_10
REMARK    4  A    between atoms: C_10  and  C_11
REMARK    5  A    between atoms: C_11  and  C_12
REMARK    6  A    between atoms: C_12  and  C_13
REMARK    7  A    between atoms: C_12  and  C_20
REMARK    8  A    between atoms: C_13  and  C_14
REMARK                            x       y       z     vdW  Elec       q    Type
REMARK                         _______ _______ _______ _____ _____    ______ ____
ROOT
ATOM      1  C   UNL     1       3.113   7.057  17.849  0.00  0.00    +0.000 C 
ENDROOT
BRANCH   1   2
ATOM      2  C   UNL     1       2.700   5.676  18.428  0.00  0.00    +0.000 A 
ATOM      3  C   UNL     1       2.149   4.617  17.634  0.00  0.00    +0.000 A 
ATOM      4  C   UNL     1       1.695   3.414  18.224  0.00  0.00    +0.000 A 
ATOM      5  C   UNL     1       1.793   3.297  19.609  0.00  0.00    +0.000 A 
ATOM      6  C   UNL     1       2.319   4.269  20.361  0.00  0.00    +0.000 A 
ATOM      7  C   UNL     1       2.778   5.453  19.832  0.00  0.00    +0.000 A 
ATOM      8  O   UNL     1       2.265   3.930  21.648  0.00  0.00    +0.000 OA
ATOM      9  C   UNL     1       1.614   2.709  21.723  0.00  0.00    +0.000 C 
ATOM     10  O   UNL     1       1.372   2.312  20.407  0.00  0.00    +0.000 OA
ENDBRANCH   1   2
BRANCH   1  11
ATOM     11  C   UNL     1       2.303   8.197  18.531  0.00  0.00    +0.000 C 
BRANCH  11  12
ATOM     12  C   UNL     1       1.714   9.303  17.645  0.00  0.00    +0.000 C 
BRANCH  12  13
ATOM     13  N   UNL     1       0.521   9.819  18.338  0.00  0.00    +0.000 NA
ATOM     14  H   UNL     1      -0.159  10.176  17.625  0.00  0.00    +0.000 HD
BRANCH  13  15
ATOM     15  C   UNL     1       0.788  10.916  19.265  0.00  0.00    +0.000 C 
BRANCH  15  22
ATOM     16  F   UNL     1      -0.555  12.913  20.826  0.00  0.00    +0.000 F 
ATOM     17  C   UNL     1      -0.427  11.667  21.350  0.00  0.00    +0.000 A 
ATOM     18  C   UNL     1      -0.954  11.398  22.614  0.00  0.00    +0.000 A 
ATOM     19  C   UNL     1      -0.846  10.128  23.168  0.00  0.00    +0.000 A 
ATOM     20  C   UNL     1      -0.207   9.105  22.462  0.00  0.00    +0.000 A 
ATOM     21  C   UNL     1       0.320   9.363  21.194  0.00  0.00    +0.000 A 
ATOM     22  C   UNL     1       0.215  10.644  20.627  0.00  0.00    +0.000 A 
ENDBRANCH  15  22
ENDBRANCH  13  15
ENDBRANCH  12  13
ENDBRANCH  11  12
ENDBRANCH   1  11
BRANCH   1  23
ATOM     23  C   UNL     1       4.665   7.306  17.800  0.00  0.00    +0.000 C 
BRANCH  23  24
ATOM     24  C   UNL     1       5.418   6.274  16.983  0.00  0.00    +0.000 A 
ATOM     25  C   UNL     1       5.142   6.101  15.607  0.00  0.00    +0.000 A 
ATOM     26  C   UNL     1       5.787   5.096  14.878  0.00  0.00    +0.000 A 
ATOM     27  C   UNL     1       6.732   4.276  15.498  0.00  0.00    +0.000 A 
ATOM     28  C   UNL     1       7.056   4.477  16.837  0.00  0.00    +0.000 A 
ATOM     29  C   UNL     1       6.419   5.476  17.563  0.00  0.00    +0.000 A 
ENDBRANCH  23  24
ENDBRANCH   1  23
TORSDOF 8
ENDMDL
MODEL 4
REMARK VINA RESULT:      -7.5      2.525      5.909
REMARK  Name = 
REMARK  8 active torsions:
REMARK  status: ('A' for Active; 'I' for Inactive)
REMARK    1  A    between atoms: C_7  and  C_8
REMARK    2  A    between atoms: C_8  and  N_9
REMARK    3  A    between atoms: N_9  and  C_10
REMARK    4  A    between atoms: C_10  and  C_11
REMARK    5  A    between atoms: C_11  and  C_12
REMARK    6  A    between atoms: C_12  and  C_13
REMARK    7  A    between atoms: C_12  and  C_20
REMARK    8  A    between atoms: C_13  and  C_14
REMARK                            x       y       z     vdW  Elec       q    Type
REMARK                         _______ _______ _______ _____ _____    ______ ____
ROOT
ATOM      1  C   UNL     1       3.104   6.847  18.412  0.00  0.00    +0.000 C 
ENDROOT
BRANCH   1   2
ATOM      2  C   UNL     1       4.376   6.115  17.902  0.00  0.00    +0.000 A 
ATOM      3  C   UNL     1       5.361   5.541  18.771  0.00  0.00    +0.000 A 
ATOM      4  C   UNL     1       6.552   4.973  18.259  0.00  0.00    +0.000 A 
ATOM      5  C   UNL     1       6.740   5.002  16.879  0.00  0.00    +0.000 A 
ATOM      6  C   UNL     1       5.823   5.520  16.055  0.00  0.00    +0.000 A 
ATOM      7  C   UNL     1       4.650   6.077  16.505  0.00  0.00    +0.000 A 
ATOM      8  O   UNL     1       6.255   5.460  14.797  0.00  0.00    +0.000 OA
ATOM      9  C   UNL     1       7.537   4.935  14.828  0.00  0.00    +0.000 C 
ATOM     10  O   UNL     1       7.796   4.610  16.161  0.00  0.00    +0.000 OA
ENDBRANCH   1   2
BRANCH   1  11
ATOM     11  C   UNL     1       3.005   8.268  17.786  0.00  0.00    +0.000 C 
BRANCH  11  12
ATOM     12  C   UNL     1       1.627   8.939  17.718  0.00  0.00    +0.000 C 
BRANCH  12  13
ATOM     13  N   UNL     1       1.656  10.076  18.654  0.00  0.00    +0.000 NA
ATOM     14  H   UNL     1       2.147   9.781  19.531  0.00  0.00    +0.000 HD
BRANCH  13  15
ATOM     15  C   UNL     1       0.338  10.570  19.046  0.00  0.00    +0.000 C 
BRANCH  15  22
ATOM     16  F   UNL     1      -1.581  12.102  20.529  0.00  0.00    +0.000 F 
ATOM     17  C   UNL     1      -0.869  11.153  21.189  0.00  0.00    +0.000 A 
ATOM     18  C   UNL     1      -1.096  10.949  22.551  0.00  0.00    +0.000 A 
ATOM     19  C   UNL     1      -0.388   9.976  23.246  0.00  0.00    +0.000 A 
ATOM     20  C   UNL     1       0.561   9.189  22.586  0.00  0.00    +0.000 A 
ATOM     21  C   UNL     1       0.792   9.383  21.221  0.00  0.00    +0.000 A 
ATOM     22  C   UNL     1       0.081  10.364  20.511  0.00  0.00    +0.000 A 
ENDBRANCH  15  22
ENDBRANCH  13  15
ENDBRANCH  12  13
ENDBRANCH  11  12
ENDBRANCH   1  11
BRANCH   1  23
ATOM     23  C   UNL     1       1.781   6.002  18.311  0.00  0.00    +0.000 C 
BRANCH  23  24
ATOM     24  C   UNL     1       1.779   4.773  19.200  0.00  0.00    +0.000 A 
ATOM     25  C   UNL     1       1.430   3.506  18.678  0.00  0.00    +0.000 A 
ATOM     26  C   UNL     1       1.357   2.391  19.520  0.00  0.00    +0.000 A 
ATOM     27  C   UNL     1       1.661   2.515  20.876  0.00  0.00    +0.000 A 
ATOM     28  C   UNL     1       2.065   3.745  21.389  0.00  0.00    +0.000 A 
ATOM     29  C   UNL     1       2.140   4.854  20.556  0.00  0.00    +0.000 A 
ENDBRANCH  23  24
ENDBRANCH   1  23
TORSDOF 8
ENDMDL
MODEL 5
REMARK VINA RESULT:      -7.5      4.708      8.311
REMARK  Name = 
REMARK  8 active torsions:
REMARK  status: ('A' for Active; 'I' for Inactive)
REMARK    1  A    between atoms: C_7  and  C_8
REMARK    2  A    between atoms: C_8  and  N_9
REMARK    3  A    between atoms: N_9  and  C_10
REMARK    4  A    between atoms: C_10  and  C_11
REMARK    5  A    between atoms: C_11  and  C_12
REMARK    6  A    between atoms: C_12  and  C_13
REMARK    7  A    between atoms: C_12  and  C_20
REMARK    8  A    between atoms: C_13  and  C_14
REMARK                            x       y       z     vdW  Elec       q    Type
REMARK                         _______ _______ _______ _____ _____    ______ ____
ROOT
ATOM      1  C   UNL     1       5.851   6.087  16.407  0.00  0.00    +0.000 C 
ENDROOT
BRANCH   1   2
ATOM      2  C   UNL     1       4.505   5.666  17.058  0.00  0.00    +0.000 A 
ATOM      3  C   UNL     1       3.690   6.553  17.835  0.00  0.00    +0.000 A 
ATOM      4  C   UNL     1       2.522   6.094  18.491  0.00  0.00    +0.000 A 
ATOM      5  C   UNL     1       2.197   4.746  18.363  0.00  0.00    +0.000 A 
ATOM      6  C   UNL     1       2.939   3.911  17.628  0.00  0.00    +0.000 A 
ATOM      7  C   UNL     1       4.077   4.311  16.969  0.00  0.00    +0.000 A 
ATOM      8  O   UNL     1       2.439   2.678  17.696  0.00  0.00    +0.000 OA
ATOM      9  C   UNL     1       1.364   2.719  18.568  0.00  0.00    +0.000 C 
ATOM     10  O   UNL     1       1.207   4.057  18.935  0.00  0.00    +0.000 OA
ENDBRANCH   1   2
BRANCH   1  11
ATOM     11  C   UNL     1       6.551   7.182  17.263  0.00  0.00    +0.000 C 
BRANCH  11  12
ATOM     12  C   UNL     1       7.615   6.744  18.279  0.00  0.00    +0.000 C 
BRANCH  12  13
ATOM     13  N   UNL     1       8.492   7.905  18.509  0.00  0.00    +0.000 NA
ATOM     14  H   UNL     1       8.551   8.088  19.539  0.00  0.00    +0.000 HD
BRANCH  13  15
ATOM     15  C   UNL     1       8.035   9.141  17.879  0.00  0.00    +0.000 C 
BRANCH  15  22
ATOM     16  F   UNL     1       7.641  11.802  16.882  0.00  0.00    +0.000 F 
ATOM     17  C   UNL     1       8.478  11.629  17.936  0.00  0.00    +0.000 A 
ATOM     18  C   UNL     1       9.107  12.740  18.501  0.00  0.00    +0.000 A 
ATOM     19  C   UNL     1       9.961  12.590  19.587  0.00  0.00    +0.000 A 
ATOM     20  C   UNL     1      10.197  11.322  20.128  0.00  0.00    +0.000 A 
ATOM     21  C   UNL     1       9.569  10.205  19.572  0.00  0.00    +0.000 A 
ATOM     22  C   UNL     1       8.704  10.347  18.474  0.00  0.00    +0.000 A 
ENDBRANCH  15  22
ENDBRANCH  13  15
ENDBRANCH  12  13
ENDBRANCH  11  12
ENDBRANCH   1  11
BRANCH   1  23
ATOM     23  C   UNL     1       6.785   4.888  16.004  0.00  0.00    +0.000 C 
BRANCH  23  24
ATOM     24  C   UNL     1       6.839   4.639  14.509  0.00  0.00    +0.000 A 
ATOM     25  C   UNL     1       5.990   3.685  13.904  0.00  0.00    +0.000 A 
ATOM     26  C   UNL     1       6.098   3.407  12.537  0.00  0.00    +0.000 A 
ATOM     27  C   UNL     1       7.026   4.096  11.754  0.00  0.00    +0.000 A 
ATOM     28  C   UNL     1       7.825   5.082  12.326  0.00  0.00    +0.000 A 
ATOM     29  C   UNL     1       7.719   5.361  13.683  0.00  0.00    +0.000 A 
ENDBRANCH  23  24
ENDBRANCH   1  23
TORSDOF 8
ENDMDL
MODEL 6
REMARK VINA RESULT:      -7.4      3.086      7.204
REMARK  Name = 
REMARK  8 active torsions:
REMARK  status: ('A' for Active; 'I' for Inactive)
REMARK    1  A    between atoms: C_7  and  C_8
REMARK    2  A    between atoms: C_8  and  N_9
REMARK    3  A    between atoms: N_9  and  C_10
REMARK    4  A    between atoms: C_10  and  C_11
REMARK    5  A    between atoms: C_11  and  C_12
REMARK    6  A    between atoms: C_12  and  C_13
REMARK    7  A    between atoms: C_12  and  C_20
REMARK    8  A    between atoms: C_13  and  C_14
REMARK                            x       y       z     vdW  Elec       q    Type
REMARK                         _______ _______ _______ _____ _____    ______ ____
ROOT
ATOM      1  C   UNL     1       3.036   7.054  17.877  0.00  0.00    +0.000 C 
ENDROOT
BRANCH   1   2
ATOM      2  C   UNL     1       2.707   5.644  18.438  0.00  0.00    +0.000 A 
ATOM      3  C   UNL     1       2.303   4.539  17.619  0.00  0.00    +0.000 A 
ATOM      4  C   UNL     1       1.917   3.302  18.188  0.00  0.00    +0.000 A 
ATOM      5  C   UNL     1       1.934   3.197  19.576  0.00  0.00    +0.000 A 
ATOM      6  C   UNL     1       2.324   4.213  20.354  0.00  0.00    +0.000 A 
ATOM      7  C   UNL     1       2.712   5.431  19.847  0.00  0.00    +0.000 A 
ATOM      8  O   UNL     1       2.215   3.873  21.636  0.00  0.00    +0.000 OA
ATOM      9  C   UNL     1       1.669   2.600  21.679  0.00  0.00    +0.000 C 
ATOM     10  O   UNL     1       1.548   2.181  20.352  0.00  0.00    +0.000 OA
ENDBRANCH   1   2
BRANCH   1  11
ATOM     11  C   UNL     1       2.201   8.141  18.614  0.00  0.00    +0.000 C 
BRANCH  11  12
ATOM     12  C   UNL     1       1.940   9.471  17.894  0.00  0.00    +0.000 C 
BRANCH  12  13
ATOM     13  N   UNL     1       1.120  10.295  18.799  0.00  0.00    +0.000 NA
ATOM     14  H   UNL     1       1.707  11.078  19.172  0.00  0.00    +0.000 HD
BRANCH  13  15
ATOM     15  C   UNL     1       0.583   9.575  19.952  0.00  0.00    +0.000 C 
BRANCH  15  22
ATOM     16  F   UNL     1      -0.616   8.680  22.399  0.00  0.00    +0.000 F 
ATOM     17  C   UNL     1      -0.585  10.014  22.150  0.00  0.00    +0.000 A 
ATOM     18  C   UNL     1      -1.125  10.899  23.084  0.00  0.00    +0.000 A 
ATOM     19  C   UNL     1      -1.096  12.269  22.857  0.00  0.00    +0.000 A 
ATOM     20  C   UNL     1      -0.524  12.777  21.687  0.00  0.00    +0.000 A 
ATOM     21  C   UNL     1       0.023  11.900  20.746  0.00  0.00    +0.000 A 
ATOM     22  C   UNL     1      -0.002  10.512  20.969  0.00  0.00    +0.000 A 
ENDBRANCH  15  22
ENDBRANCH  13  15
ENDBRANCH  12  13
ENDBRANCH  11  12
ENDBRANCH   1  11
BRANCH   1  23
ATOM     23  C   UNL     1       4.572   7.375  17.778  0.00  0.00    +0.000 C 
BRANCH  23  24
ATOM     24  C   UNL     1       5.362   6.327  17.018  0.00  0.00    +0.000 A 
ATOM     25  C   UNL     1       5.128   6.105  15.641  0.00  0.00    +0.000 A 
ATOM     26  C   UNL     1       5.806   5.086  14.964  0.00  0.00    +0.000 A 
ATOM     27  C   UNL     1       6.743   4.300  15.637  0.00  0.00    +0.000 A 
ATOM     28  C   UNL     1       7.026   4.550  16.978  0.00  0.00    +0.000 A 
ATOM     29  C   UNL     1       6.356   5.563  17.653  0.00  0.00    +0.000 A 
ENDBRANCH  23  24
ENDBRANCH   1  23
TORSDOF 8
ENDMDL
MODEL 7
REMARK VINA RESULT:      -7.4      2.297      6.221
REMARK  Name = 
REMARK  8 active torsions:
REMARK  status: ('A' for Active; 'I' for Inactive)
REMARK    1  A    between atoms: C_7  and  C_8
REMARK    2  A    between atoms: C_8  and  N_9
REMARK    3  A    between atoms: N_9  and  C_10
REMARK    4  A    between atoms: C_10  and  C_11
REMARK    5  A    between atoms: C_11  and  C_12
REMARK    6  A    between atoms: C_12  and  C_13
REMARK    7  A    between atoms: C_12  and  C_20
REMARK    8  A    between atoms: C_13  and  C_14
REMARK                            x       y       z     vdW  Elec       q    Type
REMARK                         _______ _______ _______ _____ _____    ______ ____
ROOT
ATOM      1  C   UNL     1       2.919   6.815  18.285  0.00  0.00    +0.000 C 
ENDROOT
BRANCH   1   2
ATOM      2  C   UNL     1       4.220   6.084  17.855  0.00  0.00    +0.000 A 
ATOM      3  C   UNL     1       5.133   5.480  18.781  0.00  0.00    +0.000 A 
ATOM      4  C   UNL     1       6.355   4.914  18.347  0.00  0.00    +0.000 A 
ATOM      5  C   UNL     1       6.647   4.973  16.986  0.00  0.00    +0.000 A 
ATOM      6  C   UNL     1       5.798   5.518  16.108  0.00  0.00    +0.000 A 
ATOM      7  C   UNL     1       4.598   6.075  16.482  0.00  0.00    +0.000 A 
ATOM      8  O   UNL     1       6.323   5.483  14.885  0.00  0.00    +0.000 OA
ATOM      9  C   UNL     1       7.595   4.946  14.999  0.00  0.00    +0.000 C 
ATOM     10  O   UNL     1       7.750   4.588  16.340  0.00  0.00    +0.000 OA
ENDBRANCH   1   2
BRANCH   1  11
ATOM     11  C   UNL     1       2.794   8.181  17.552  0.00  0.00    +0.000 C 
BRANCH  11  12
ATOM     12  C   UNL     1       2.163   9.358  18.307  0.00  0.00    +0.000 C 
BRANCH  12  13
ATOM     13  N   UNL     1       0.782   9.497  17.811  0.00  0.00    +0.000 NA
ATOM     14  H   UNL     1       0.801   9.993  16.889  0.00  0.00    +0.000 HD
BRANCH  13  15
ATOM     15  C   UNL     1      -0.102  10.257  18.692  0.00  0.00    +0.000 C 
BRANCH  15  22
ATOM     16  F   UNL     1      -2.061  12.043  19.787  0.00  0.00    +0.000 F 
ATOM     17  C   UNL     1      -2.375  11.363  18.655  0.00  0.00    +0.000 A 
ATOM     18  C   UNL     1      -3.622  11.558  18.061  0.00  0.00    +0.000 A 
ATOM     19  C   UNL     1      -3.963  10.881  16.896  0.00  0.00    +0.000 A 
ATOM     20  C   UNL     1      -3.056   9.998  16.305  0.00  0.00    +0.000 A 
ATOM     21  C   UNL     1      -1.802   9.799  16.889  0.00  0.00    +0.000 A 
ATOM     22  C   UNL     1      -1.450  10.479  18.067  0.00  0.00    +0.000 A 
ENDBRANCH  15  22
ENDBRANCH  13  15
ENDBRANCH  12  13
ENDBRANCH  11  12
ENDBRANCH   1  11
BRANCH   1  23
ATOM     23  C   UNL     1       1.622   5.928  18.225  0.00  0.00    +0.000 C 
BRANCH  23  24
ATOM     24  C   UNL     1       1.674   4.717  19.138  0.00  0.00    +0.000 A 
ATOM     25  C   UNL     1       1.764   4.873  20.540  0.00  0.00    +0.000 A 
ATOM     26  C   UNL     1       1.888   3.754  21.370  0.00  0.00    +0.000 A 
ATOM     27  C   UNL     1       1.890   2.471  20.820  0.00  0.00    +0.000 A 
ATOM     28  C   UNL     1       1.740   2.302  19.446  0.00  0.00    +0.000 A 
ATOM     29  C   UNL     1       1.615   3.412  18.619  0.00  0.00    +0.000 A 
ENDBRANCH  23  24
ENDBRANCH   1  23
TORSDOF 8
ENDMDL
MODEL 8
REMARK VINA RESULT:      -7.4      3.197      6.848
REMARK  Name = 
REMARK  8 active torsions:
REMARK  status: ('A' for Active; 'I' for Inactive)
REMARK    1  A    between atoms: C_7  and  C_8
REMARK    2  A    between atoms: C_8  and  N_9
REMARK    3  A    between atoms: N_9  and  C_10
REMARK    4  A    between atoms: C_10  and  C_11
REMARK    5  A    between atoms: C_11  and  C_12
REMARK    6  A    between atoms: C_12  and  C_13
REMARK    7  A    between atoms: C_12  and  C_20
REMARK    8  A    between atoms: C_13  and  C_14
REMARK                            x       y       z     vdW  Elec       q    Type
REMARK                         _______ _______ _______ _____ _____    ______ ____
ROOT
ATOM      1  C   UNL     1       3.079   7.566  17.653  0.00  0.00    +0.000 C 
ENDROOT
BRANCH   1   2
ATOM      2  C   UNL     1       2.440   6.403  18.460  0.00  0.00    +0.000 A 
ATOM      3  C   UNL     1       2.316   6.404  19.888  0.00  0.00    +0.000 A 
ATOM      4  C   UNL     1       1.817   5.278  20.585  0.00  0.00    +0.000 A 
ATOM      5  C   UNL     1       1.461   4.160  19.834  0.00  0.00    +0.000 A 
ATOM      6  C   UNL     1       1.555   4.150  18.501  0.00  0.00    +0.000 A 
ATOM      7  C   UNL     1       2.028   5.221  17.780  0.00  0.00    +0.000 A 
ATOM      8  O   UNL     1       1.190   2.960  18.027  0.00  0.00    +0.000 OA
ATOM      9  C   UNL     1       0.908   2.153  19.118  0.00  0.00    +0.000 C 
ATOM     10  O   UNL     1       1.043   2.961  20.249  0.00  0.00    +0.000 OA
ENDBRANCH   1   2
BRANCH   1  11
ATOM     11  C   UNL     1       2.362   8.909  17.972  0.00  0.00    +0.000 C 
BRANCH  11  12
ATOM     12  C   UNL     1       0.863   9.026  17.662  0.00  0.00    +0.000 C 
BRANCH  12  13
ATOM     13  N   UNL     1       0.403  10.299  18.244  0.00  0.00    +0.000 NA
ATOM     14  H   UNL     1       0.433  11.041  17.505  0.00  0.00    +0.000 HD
BRANCH  13  15
ATOM     15  C   UNL     1       1.208  10.776  19.365  0.00  0.00    +0.000 C 
BRANCH  15  22
ATOM     16  F   UNL     1      -0.618  12.700  20.457  0.00  0.00    +0.000 F 
ATOM     17  C   UNL     1      -0.379  11.568  21.167  0.00  0.00    +0.000 A 
ATOM     18  C   UNL     1      -1.027  11.374  22.387  0.00  0.00    +0.000 A 
ATOM     19  C   UNL     1      -0.807  10.218  23.127  0.00  0.00    +0.000 A 
ATOM     20  C   UNL     1       0.068   9.235  22.654  0.00  0.00    +0.000 A 
ATOM     21  C   UNL     1       0.719   9.418  21.431  0.00  0.00    +0.000 A 
ATOM     22  C   UNL     1       0.502  10.584  20.677  0.00  0.00    +0.000 A 
ENDBRANCH  15  22
ENDBRANCH  13  15
ENDBRANCH  12  13
ENDBRANCH  11  12
ENDBRANCH   1  11
BRANCH   1  23
ATOM     23  C   UNL     1       4.648   7.635  17.738  0.00  0.00    +0.000 C 
BRANCH  23  24
ATOM     24  C   UNL     1       5.342   6.460  17.075  0.00  0.00    +0.000 A 
ATOM     25  C   UNL     1       6.195   5.612  17.818  0.00  0.00    +0.000 A 
ATOM     26  C   UNL     1       6.890   4.577  17.183  0.00  0.00    +0.000 A 
ATOM     27  C   UNL     1       6.721   4.354  15.815  0.00  0.00    +0.000 A 
ATOM     28  C   UNL     1       5.837   5.145  15.086  0.00  0.00    +0.000 A 
ATOM     29  C   UNL     1       5.143   6.172  15.713  0.00  0.00    +0.000 A 
ENDBRANCH  23  24
ENDBRANCH   1  23
TORSDOF 8
ENDMDL
MODEL 9
REMARK VINA RESULT:      -7.4      3.364      6.809
REMARK  Name = 
REMARK  8 active torsions:
REMARK  status: ('A' for Active; 'I' for Inactive)
REMARK    1  A    between atoms: C_7  and  C_8
REMARK    2  A    between atoms: C_8  and  N_9
REMARK    3  A    between atoms: N_9  and  C_10
REMARK    4  A    between atoms: C_10  and  C_11
REMARK    5  A    between atoms: C_11  and  C_12
REMARK    6  A    between atoms: C_12  and  C_13
REMARK    7  A    between atoms: C_12  and  C_20
REMARK    8  A    between atoms: C_13  and  C_14
REMARK                            x       y       z     vdW  Elec       q    Type
REMARK                         _______ _______ _______ _____ _____    ______ ____
ROOT
ATOM      1  C   UNL     1       2.984   6.782  18.236  0.00  0.00    +0.000 C 
ENDROOT
BRANCH   1   2
ATOM      2  C   UNL     1       2.174   8.038  18.658  0.00  0.00    +0.000 A 
ATOM      3  C   UNL     1       2.001   9.188  17.819  0.00  0.00    +0.000 A 
ATOM      4  C   UNL     1       1.339  10.348  18.287  0.00  0.00    +0.000 A 
ATOM      5  C   UNL     1       0.870  10.338  19.599  0.00  0.00    +0.000 A 
ATOM      6  C   UNL     1       1.010   9.268  20.388  0.00  0.00    +0.000 A 
ATOM      7  C   UNL     1       1.640   8.118  19.976  0.00  0.00    +0.000 A 
ATOM      8  O   UNL     1       0.513   9.525  21.596  0.00  0.00    +0.000 OA
ATOM      9  C   UNL     1       0.093  10.845  21.595  0.00  0.00    +0.000 C 
ATOM     10  O   UNL     1       0.289  11.318  20.296  0.00  0.00    +0.000 OA
ENDBRANCH   1   2
BRANCH   1  11
ATOM     11  C   UNL     1       4.175   7.185  17.319  0.00  0.00    +0.000 C 
BRANCH  11  12
ATOM     12  C   UNL     1       5.527   6.491  17.534  0.00  0.00    +0.000 C 
BRANCH  12  13
ATOM     13  N   UNL     1       6.271   6.598  16.267  0.00  0.00    +0.000 NA
ATOM     14  H   UNL     1       5.588   6.696  15.479  0.00  0.00    +0.000 HD
BRANCH  13  15
ATOM     15  C   UNL     1       7.115   5.445  15.963  0.00  0.00    +0.000 C 
BRANCH  15  22
ATOM     16  F   UNL     1       4.697   3.970  15.510  0.00  0.00    +0.000 F 
ATOM     17  C   UNL     1       5.564   4.113  14.476  0.00  0.00    +0.000 A 
ATOM     18  C   UNL     1       5.252   3.553  13.237  0.00  0.00    +0.000 A 
ATOM     19  C   UNL     1       6.118   3.695  12.159  0.00  0.00    +0.000 A 
ATOM     20  C   UNL     1       7.314   4.405  12.307  0.00  0.00    +0.000 A 
ATOM     21  C   UNL     1       7.633   4.974  13.542  0.00  0.00    +0.000 A 
ATOM     22  C   UNL     1       6.763   4.834  14.636  0.00  0.00    +0.000 A 
ENDBRANCH  15  22
ENDBRANCH  13  15
ENDBRANCH  12  13
ENDBRANCH  11  12
ENDBRANCH   1  11
BRANCH   1  23
ATOM     23  C   UNL     1       3.376   5.829  19.423  0.00  0.00    +0.000 C 
BRANCH  23  24
ATOM     24  C   UNL     1       2.463   4.624  19.559  0.00  0.00    +0.000 A 
ATOM     25  C   UNL     1       2.148   4.098  20.832  0.00  0.00    +0.000 A 
ATOM     26  C   UNL     1       1.367   2.942  20.946  0.00  0.00    +0.000 A 
ATOM     27  C   UNL     1       0.866   2.320  19.801  0.00  0.00    +0.000 A 
ATOM     28  C   UNL     1       1.120   2.864  18.545  0.00  0.00    +0.000 A 
ATOM     29  C   UNL     1       1.893   4.013  18.429  0.00  0.00    +0.000 A 
ENDBRANCH  23  24
ENDBRANCH   1  23
TORSDOF 8
ENDMDL
