MODEL 1
REMARK VINA RESULT:      -7.5      0.000      0.000
REMARK  Name = 
REMARK  7 active torsions:
REMARK  status: ('A' for Active; 'I' for Inactive)
REMARK    1  A    between atoms: C_1  and  O_2
REMARK    2  A    between atoms: O_2  and  C_3
REMARK    3  A    between atoms: C_5  and  C_6
REMARK    4  A    between atoms: C_7  and  C_8
REMARK    5  A    between atoms: C_13  and  O_14
REMARK    6  A    between atoms: C_16  and  O_17
REMARK    7  A    between atoms: O_17  and  C_18
REMARK                            x       y       z     vdW  Elec       q    Type
REMARK                         _______ _______ _______ _____ _____    ______ ____
ROOT
ATOM      1  C   UNL     1       7.059   5.611  15.694  0.00  0.00    +0.000 A 
ATOM      2  C   UNL     1       6.074   5.177  16.592  0.00  0.00    +0.000 A 
ATOM      3  C   UNL     1       5.152   4.182  16.237  0.00  0.00    +0.000 A 
ATOM      4  C   UNL     1       5.250   3.603  14.965  0.00  0.00    +0.000 A 
ATOM      5  C   UNL     1       6.227   4.020  14.052  0.00  0.00    +0.000 A 
ATOM      6  C   UNL     1       7.125   5.026  14.425  0.00  0.00    +0.000 A 
ATOM      7  F   UNL     1       8.069   5.426  13.559  0.00  0.00    +0.000 F 
ENDROOT
BRANCH   1   9
ATOM      8  C   UNL     1       7.513   7.170  17.439  0.00  0.00    +0.000 C 
ATOM      9  O   UNL     1       7.877   6.594  16.188  0.00  0.00    +0.000 OA
ENDBRANCH   1   9
BRANCH   3  10
ATOM     10  C   UNL     1       4.175   3.730  17.243  0.00  0.00    +0.000 C 
ATOM     11  C   UNL     1       4.145   4.113  18.532  0.00  0.00    +0.000 C 
BRANCH  11  12
ATOM     12  C   UNL     1       3.130   3.660  19.510  0.00  0.00    +0.000 A 
ATOM     13  C   UNL     1       1.844   4.224  19.529  0.00  0.00    +0.000 A 
ATOM     14  C   UNL     1       0.888   3.815  20.462  0.00  0.00    +0.000 A 
ATOM     15  C   UNL     1       1.206   2.844  21.406  0.00  0.00    +0.000 A 
ATOM     16  C   UNL     1       2.484   2.289  21.425  0.00  0.00    +0.000 A 
ATOM     17  C   UNL     1       3.437   2.700  20.490  0.00  0.00    +0.000 A 
BRANCH  17  18
ATOM     18  O   UNL     1       4.694   2.151  20.532  0.00  0.00    +0.000 OA
ATOM     19  H   UNL     1       5.236   2.559  19.840  0.00  0.00    +0.000 HD
ENDBRANCH  17  18
ENDBRANCH  11  12
ENDBRANCH   3  10
BRANCH   5  20
ATOM     20  O   UNL     1       6.188   3.358  12.852  0.00  0.00    +0.000 OA
ATOM     21  C   UNL     1       4.968   3.411  12.122  0.00  0.00    +0.000 C 
ENDBRANCH   5  20
TORSDOF 5
ENDMDL
MODEL 2
REMARK VINA RESULT:      -7.3      3.016      7.094
REMARK  Name = 
REMARK  7 active torsions:
REMARK  status: ('A' for Active; 'I' for Inactive)
REMARK    1  A    between atoms: C_1  and  O_2
REMARK    2  A    between atoms: O_2  and  C_3
REMARK    3  A    between atoms: C_5  and  C_6
REMARK    4  A    between atoms: C_7  and  C_8
REMARK    5  A    between atoms: C_13  and  O_14
REMARK    6  A    between atoms: C_16  and  O_17
REMARK    7  A    between atoms: O_17  and  C_18
REMARK                            x       y       z     vdW  Elec       q    Type
REMARK                         _______ _______ _______ _____ _____    ______ ____
ROOT
ATOM      1  C   UNL     1       2.710   6.233  19.313  0.00  0.00    +0.000 A 
ATOM      2  C   UNL     1       3.360   6.212  18.072  0.00  0.00    +0.000 A 
ATOM      3  C   UNL     1       3.970   5.046  17.587  0.00  0.00    +0.000 A 
ATOM      4  C   UNL     1       3.891   3.881  18.360  0.00  0.00    +0.000 A 
ATOM      5  C   UNL     1       3.245   3.877  19.603  0.00  0.00    +0.000 A 
ATOM      6  C   UNL     1       2.660   5.058  20.071  0.00  0.00    +0.000 A 
ATOM      7  F   UNL     1       2.032   5.062  21.257  0.00  0.00    +0.000 F 
ENDROOT
BRANCH   1   9
ATOM      8  C   UNL     1       2.046   8.408  18.602  0.00  0.00    +0.000 C 
ATOM      9  O   UNL     1       2.173   7.450  19.647  0.00  0.00    +0.000 OA
ENDBRANCH   1   9
BRANCH   3  10
ATOM     10  C   UNL     1       4.591   5.073  16.252  0.00  0.00    +0.000 C 
ATOM     11  C   UNL     1       5.481   4.180  15.783  0.00  0.00    +0.000 C 
BRANCH  11  12
ATOM     12  C   UNL     1       6.064   4.223  14.424  0.00  0.00    +0.000 A 
ATOM     13  C   UNL     1       5.547   3.424  13.391  0.00  0.00    +0.000 A 
ATOM     14  C   UNL     1       6.105   3.445  12.110  0.00  0.00    +0.000 A 
ATOM     15  C   UNL     1       7.204   4.254  11.842  0.00  0.00    +0.000 A 
ATOM     16  C   UNL     1       7.753   5.035  12.857  0.00  0.00    +0.000 A 
ATOM     17  C   UNL     1       7.192   5.012  14.137  0.00  0.00    +0.000 A 
BRANCH  17  18
ATOM     18  O   UNL     1       7.754   5.778  15.127  0.00  0.00    +0.000 OA
ATOM     19  H   UNL     1       7.147   5.806  15.882  0.00  0.00    +0.000 HD
ENDBRANCH  17  18
ENDBRANCH  11  12
ENDBRANCH   3  10
BRANCH   5  20
ATOM     20  O   UNL     1       3.258   2.661  20.236  0.00  0.00    +0.000 OA
ATOM     21  C   UNL     1       4.527   2.046  20.432  0.00  0.00    +0.000 C 
ENDBRANCH   5  20
TORSDOF 5
ENDMDL
MODEL 3
REMARK VINA RESULT:      -7.3      3.135      7.244
REMARK  Name = 
REMARK  7 active torsions:
REMARK  status: ('A' for Active; 'I' for Inactive)
REMARK    1  A    between atoms: C_1  and  O_2
REMARK    2  A    between atoms: O_2  and  C_3
REMARK    3  A    between atoms: C_5  and  C_6
REMARK    4  A    between atoms: C_7  and  C_8
REMARK    5  A    between atoms: C_13  and  O_14
REMARK    6  A    between atoms: C_16  and  O_17
REMARK    7  A    between atoms: O_17  and  C_18
REMARK                            x       y       z     vdW  Elec       q    Type
REMARK                         _______ _______ _______ _____ _____    ______ ____
ROOT
ATOM      1  C   UNL     1       3.300   4.335  19.586  0.00  0.00    +0.000 A 
ATOM      2  C   UNL     1       3.964   4.342  18.351  0.00  0.00    +0.000 A 
ATOM      3  C   UNL     1       3.962   5.478  17.529  0.00  0.00    +0.000 A 
ATOM      4  C   UNL     1       3.302   6.628  17.980  0.00  0.00    +0.000 A 
ATOM      5  C   UNL     1       2.634   6.645  19.210  0.00  0.00    +0.000 A 
ATOM      6  C   UNL     1       2.637   5.493  20.005  0.00  0.00    +0.000 A 
ATOM      7  F   UNL     1       2.005   5.503  21.189  0.00  0.00    +0.000 F 
ENDROOT
BRANCH   1   9
ATOM      8  C   UNL     1       4.380   2.224  19.827  0.00  0.00    +0.000 C 
ATOM      9  O   UNL     1       3.389   3.148  20.266  0.00  0.00    +0.000 OA
ENDBRANCH   1   9
BRANCH   3  10
ATOM     10  C   UNL     1       4.722   5.441  16.268  0.00  0.00    +0.000 C 
ATOM     11  C   UNL     1       5.216   4.334  15.683  0.00  0.00    +0.000 C 
BRANCH  11  12
ATOM     12  C   UNL     1       5.952   4.330  14.399  0.00  0.00    +0.000 A 
ATOM     13  C   UNL     1       5.506   3.560  13.313  0.00  0.00    +0.000 A 
ATOM     14  C   UNL     1       6.207   3.536  12.105  0.00  0.00    +0.000 A 
ATOM     15  C   UNL     1       7.380   4.271  11.966  0.00  0.00    +0.000 A 
ATOM     16  C   UNL     1       7.859   5.021  13.038  0.00  0.00    +0.000 A 
ATOM     17  C   UNL     1       7.154   5.043  14.245  0.00  0.00    +0.000 A 
BRANCH  17  18
ATOM     18  O   UNL     1       7.648   5.777  15.293  0.00  0.00    +0.000 OA
ATOM     19  H   UNL     1       8.314   6.394  14.955  0.00  0.00    +0.000 HD
ENDBRANCH  17  18
ENDBRANCH  11  12
ENDBRANCH   3  10
BRANCH   5  20
ATOM     20  O   UNL     1       2.036   7.843  19.505  0.00  0.00    +0.000 OA
ATOM     21  C   UNL     1       1.869   8.765  18.434  0.00  0.00    +0.000 C 
ENDBRANCH   5  20
TORSDOF 5
ENDMDL
MODEL 4
REMARK VINA RESULT:      -7.2      0.214      2.915
REMARK  Name = 
REMARK  7 active torsions:
REMARK  status: ('A' for Active; 'I' for Inactive)
REMARK    1  A    between atoms: C_1  and  O_2
REMARK    2  A    between atoms: O_2  and  C_3
REMARK    3  A    between atoms: C_5  and  C_6
REMARK    4  A    between atoms: C_7  and  C_8
REMARK    5  A    between atoms: C_13  and  O_14
REMARK    6  A    between atoms: C_16  and  O_17
REMARK    7  A    between atoms: O_17  and  C_18
REMARK                            x       y       z     vdW  Elec       q    Type
REMARK                         _______ _______ _______ _____ _____    ______ ____
ROOT
ATOM      1  C   UNL     1       6.190   4.014  14.191  0.00  0.00    +0.000 A 
ATOM      2  C   UNL     1       5.240   3.641  15.151  0.00  0.00    +0.000 A 
ATOM      3  C   UNL     1       5.208   4.243  16.418  0.00  0.00    +0.000 A 
ATOM      4  C   UNL     1       6.134   5.255  16.700  0.00  0.00    +0.000 A 
ATOM      5  C   UNL     1       7.092   5.646  15.755  0.00  0.00    +0.000 A 
ATOM      6  C   UNL     1       7.113   5.018  14.505  0.00  0.00    +0.000 A 
ATOM      7  F   UNL     1       8.021   5.392  13.591  0.00  0.00    +0.000 F 
ENDROOT
BRANCH   1   9
ATOM      8  C   UNL     1       4.888   3.482  12.267  0.00  0.00    +0.000 C 
ATOM      9  O   UNL     1       6.095   3.328  13.007  0.00  0.00    +0.000 OA
ENDBRANCH   1   9
BRANCH   3  10
ATOM     10  C   UNL     1       4.152   3.845  17.364  0.00  0.00    +0.000 C 
ATOM     11  C   UNL     1       4.268   3.827  18.705  0.00  0.00    +0.000 C 
BRANCH  11  12
ATOM     12  C   UNL     1       3.175   3.447  19.628  0.00  0.00    +0.000 A 
ATOM     13  C   UNL     1       1.877   3.957  19.458  0.00  0.00    +0.000 A 
ATOM     14  C   UNL     1       0.845   3.619  20.336  0.00  0.00    +0.000 A 
ATOM     15  C   UNL     1       1.096   2.777  21.414  0.00  0.00    +0.000 A 
ATOM     16  C   UNL     1       2.382   2.280  21.621  0.00  0.00    +0.000 A 
ATOM     17  C   UNL     1       3.411   2.620  20.739  0.00  0.00    +0.000 A 
BRANCH  17  18
ATOM     18  O   UNL     1       4.673   2.132  20.966  0.00  0.00    +0.000 OA
ATOM     19  H   UNL     1       4.928   2.337  21.878  0.00  0.00    +0.000 HD
ENDBRANCH  17  18
ENDBRANCH  11  12
ENDBRANCH   3  10
BRANCH   5  20
ATOM     20  O   UNL     1       7.926   6.645  16.185  0.00  0.00    +0.000 OA
ATOM     21  C   UNL     1       7.547   7.341  17.368  0.00  0.00    +0.000 C 
ENDBRANCH   5  20
TORSDOF 5
ENDMDL
MODEL 5
REMARK VINA RESULT:      -7.2      5.401      8.304
REMARK  Name = 
REMARK  7 active torsions:
REMARK  status: ('A' for Active; 'I' for Inactive)
REMARK    1  A    between atoms: C_1  and  O_2
REMARK    2  A    between atoms: O_2  and  C_3
REMARK    3  A    between atoms: C_5  and  C_6
REMARK    4  A    between atoms: C_7  and  C_8
REMARK    5  A    between atoms: C_13  and  O_14
REMARK    6  A    between atoms: C_16  and  O_17
REMARK    7  A    between atoms: O_17  and  C_18
REMARK                            x       y       z     vdW  Elec       q    Type
REMARK                         _______ _______ _______ _____ _____    ______ ____
ROOT
ATOM      1  C   UNL     1      10.048  11.873  20.560  0.00  0.00    +0.000 A 
ATOM      2  C   UNL     1       9.214  10.870  20.047  0.00  0.00    +0.000 A 
ATOM      3  C   UNL     1       9.286  10.478  18.702  0.00  0.00    +0.000 A 
ATOM      4  C   UNL     1      10.237  11.092  17.878  0.00  0.00    +0.000 A 
ATOM      5  C   UNL     1      11.083  12.095  18.369  0.00  0.00    +0.000 A 
ATOM      6  C   UNL     1      10.979  12.480  19.710  0.00  0.00    +0.000 A 
ATOM      7  F   UNL     1      11.791  13.434  20.191  0.00  0.00    +0.000 F 
ENDROOT
BRANCH   1   9
ATOM      8  C   UNL     1       9.141  13.341  22.203  0.00  0.00    +0.000 C 
ATOM      9  O   UNL     1       9.849  12.146  21.889  0.00  0.00    +0.000 OA
ENDBRANCH   1   9
BRANCH   3  10
ATOM     10  C   UNL     1       8.420   9.382  18.237  0.00  0.00    +0.000 C 
ATOM     11  C   UNL     1       8.537   8.088  18.587  0.00  0.00    +0.000 C 
BRANCH  11  12
ATOM     12  C   UNL     1       7.629   7.016  18.121  0.00  0.00    +0.000 A 
ATOM     13  C   UNL     1       6.785   7.215  17.016  0.00  0.00    +0.000 A 
ATOM     14  C   UNL     1       5.912   6.215  16.582  0.00  0.00    +0.000 A 
ATOM     15  C   UNL     1       5.854   5.000  17.257  0.00  0.00    +0.000 A 
ATOM     16  C   UNL     1       6.661   4.788  18.373  0.00  0.00    +0.000 A 
ATOM     17  C   UNL     1       7.534   5.791  18.804  0.00  0.00    +0.000 A 
BRANCH  17  18
ATOM     18  O   UNL     1       8.311   5.569  19.912  0.00  0.00    +0.000 OA
ATOM     19  H   UNL     1       7.764   5.681  20.704  0.00  0.00    +0.000 HD
ENDBRANCH  17  18
ENDBRANCH  11  12
ENDBRANCH   3  10
BRANCH   5  20
ATOM     20  O   UNL     1      11.954  12.598  17.437  0.00  0.00    +0.000 OA
ATOM     21  C   UNL     1      11.470  13.632  16.588  0.00  0.00    +0.000 C 
ENDBRANCH   5  20
TORSDOF 5
ENDMDL
MODEL 6
REMARK VINA RESULT:      -7.2      1.215      1.347
REMARK  Name = 
REMARK  7 active torsions:
REMARK  status: ('A' for Active; 'I' for Inactive)
REMARK    1  A    between atoms: C_1  and  O_2
REMARK    2  A    between atoms: O_2  and  C_3
REMARK    3  A    between atoms: C_5  and  C_6
REMARK    4  A    between atoms: C_7  and  C_8
REMARK    5  A    between atoms: C_13  and  O_14
REMARK    6  A    between atoms: C_16  and  O_17
REMARK    7  A    between atoms: O_17  and  C_18
REMARK                            x       y       z     vdW  Elec       q    Type
REMARK                         _______ _______ _______ _____ _____    ______ ____
ROOT
ATOM      1  C   UNL     1       7.153   5.652  15.485  0.00  0.00    +0.000 A 
ATOM      2  C   UNL     1       6.151   5.178  16.342  0.00  0.00    +0.000 A 
ATOM      3  C   UNL     1       5.261   4.172  15.938  0.00  0.00    +0.000 A 
ATOM      4  C   UNL     1       5.411   3.623  14.658  0.00  0.00    +0.000 A 
ATOM      5  C   UNL     1       6.406   4.080  13.785  0.00  0.00    +0.000 A 
ATOM      6  C   UNL     1       7.271   5.095  14.207  0.00  0.00    +0.000 A 
ATOM      7  F   UNL     1       8.232   5.534  13.380  0.00  0.00    +0.000 F 
ENDROOT
BRANCH   1   9
ATOM      8  C   UNL     1       7.537   7.160  17.290  0.00  0.00    +0.000 C 
ATOM      9  O   UNL     1       7.935   6.641  16.025  0.00  0.00    +0.000 OA
ENDBRANCH   1   9
BRANCH   3  10
ATOM     10  C   UNL     1       4.264   3.679  16.903  0.00  0.00    +0.000 C 
ATOM     11  C   UNL     1       3.477   4.447  17.678  0.00  0.00    +0.000 C 
BRANCH  11  12
ATOM     12  C   UNL     1       2.465   3.916  18.618  0.00  0.00    +0.000 A 
ATOM     13  C   UNL     1       1.605   2.872  18.239  0.00  0.00    +0.000 A 
ATOM     14  C   UNL     1       0.634   2.380  19.113  0.00  0.00    +0.000 A 
ATOM     15  C   UNL     1       0.492   2.935  20.381  0.00  0.00    +0.000 A 
ATOM     16  C   UNL     1       1.314   3.990  20.771  0.00  0.00    +0.000 A 
ATOM     17  C   UNL     1       2.285   4.480  19.893  0.00  0.00    +0.000 A 
BRANCH  17  18
ATOM     18  O   UNL     1       3.076   5.528  20.290  0.00  0.00    +0.000 OA
ATOM     19  H   UNL     1       3.410   5.347  21.182  0.00  0.00    +0.000 HD
ENDBRANCH  17  18
ENDBRANCH  11  12
ENDBRANCH   3  10
BRANCH   5  20
ATOM     20  O   UNL     1       6.419   3.444  12.570  0.00  0.00    +0.000 OA
ATOM     21  C   UNL     1       5.162   3.217  11.944  0.00  0.00    +0.000 C 
ENDBRANCH   5  20
TORSDOF 5
ENDMDL
MODEL 7
REMARK VINA RESULT:      -7.1      1.106      1.508
REMARK  Name = 
REMARK  7 active torsions:
REMARK  status: ('A' for Active; 'I' for Inactive)
REMARK    1  A    between atoms: C_1  and  O_2
REMARK    2  A    between atoms: O_2  and  C_3
REMARK    3  A    between atoms: C_5  and  C_6
REMARK    4  A    between atoms: C_7  and  C_8
REMARK    5  A    between atoms: C_13  and  O_14
REMARK    6  A    between atoms: C_16  and  O_17
REMARK    7  A    between atoms: O_17  and  C_18
REMARK                            x       y       z     vdW  Elec       q    Type
REMARK                         _______ _______ _______ _____ _____    ______ ____
ROOT
ATOM      1  C   UNL     1       7.059   5.584  15.720  0.00  0.00    +0.000 A 
ATOM      2  C   UNL     1       6.076   5.131  16.610  0.00  0.00    +0.000 A 
ATOM      3  C   UNL     1       5.186   4.107  16.254  0.00  0.00    +0.000 A 
ATOM      4  C   UNL     1       5.316   3.518  14.989  0.00  0.00    +0.000 A 
ATOM      5  C   UNL     1       6.292   3.954  14.084  0.00  0.00    +0.000 A 
ATOM      6  C   UNL     1       7.157   4.988  14.458  0.00  0.00    +0.000 A 
ATOM      7  F   UNL     1       8.100   5.407  13.600  0.00  0.00    +0.000 F 
ENDROOT
BRANCH   1   9
ATOM      8  C   UNL     1       7.458   7.158  17.465  0.00  0.00    +0.000 C 
ATOM      9  O   UNL     1       7.843   6.595  16.214  0.00  0.00    +0.000 OA
ENDBRANCH   1   9
BRANCH   3  10
ATOM     10  C   UNL     1       4.210   3.638  17.252  0.00  0.00    +0.000 C 
ATOM     11  C   UNL     1       4.036   4.156  18.481  0.00  0.00    +0.000 C 
BRANCH  11  12
ATOM     12  C   UNL     1       3.024   3.676  19.450  0.00  0.00    +0.000 A 
ATOM     13  C   UNL     1       3.411   3.086  20.664  0.00  0.00    +0.000 A 
ATOM     14  C   UNL     1       2.462   2.613  21.574  0.00  0.00    +0.000 A 
ATOM     15  C   UNL     1       1.106   2.707  21.278  0.00  0.00    +0.000 A 
ATOM     16  C   UNL     1       0.698   3.263  20.068  0.00  0.00    +0.000 A 
ATOM     17  C   UNL     1       1.650   3.736  19.160  0.00  0.00    +0.000 A 
BRANCH  17  18
ATOM     18  O   UNL     1       1.230   4.269  17.968  0.00  0.00    +0.000 OA
ATOM     19  H   UNL     1       1.390   5.224  17.980  0.00  0.00    +0.000 HD
ENDBRANCH  17  18
ENDBRANCH  11  12
ENDBRANCH   3  10
BRANCH   5  20
ATOM     20  O   UNL     1       6.288   3.280  12.890  0.00  0.00    +0.000 OA
ATOM     21  C   UNL     1       5.136   3.427  12.068  0.00  0.00    +0.000 C 
ENDBRANCH   5  20
TORSDOF 5
ENDMDL
MODEL 8
REMARK VINA RESULT:      -7.0      1.169      3.212
REMARK  Name = 
REMARK  7 active torsions:
REMARK  status: ('A' for Active; 'I' for Inactive)
REMARK    1  A    between atoms: C_1  and  O_2
REMARK    2  A    between atoms: O_2  and  C_3
REMARK    3  A    between atoms: C_5  and  C_6
REMARK    4  A    between atoms: C_7  and  C_8
REMARK    5  A    between atoms: C_13  and  O_14
REMARK    6  A    between atoms: C_16  and  O_17
REMARK    7  A    between atoms: O_17  and  C_18
REMARK                            x       y       z     vdW  Elec       q    Type
REMARK                         _______ _______ _______ _____ _____    ______ ____
ROOT
ATOM      1  C   UNL     1       6.397   4.121  13.776  0.00  0.00    +0.000 A 
ATOM      2  C   UNL     1       5.362   3.700  14.621  0.00  0.00    +0.000 A 
ATOM      3  C   UNL     1       5.211   4.232  15.911  0.00  0.00    +0.000 A 
ATOM      4  C   UNL     1       6.106   5.223  16.333  0.00  0.00    +0.000 A 
ATOM      5  C   UNL     1       7.147   5.661  15.504  0.00  0.00    +0.000 A 
ATOM      6  C   UNL     1       7.285   5.103  14.229  0.00  0.00    +0.000 A 
ATOM      7  F   UNL     1       8.275   5.522  13.425  0.00  0.00    +0.000 F 
ENDROOT
BRANCH   1   9
ATOM      8  C   UNL     1       5.151   3.181  11.975  0.00  0.00    +0.000 C 
ATOM      9  O   UNL     1       6.413   3.501  12.553  0.00  0.00    +0.000 OA
ENDBRANCH   1   9
BRANCH   3  10
ATOM     10  C   UNL     1       4.072   3.788  16.731  0.00  0.00    +0.000 C 
ATOM     11  C   UNL     1       3.805   4.194  17.986  0.00  0.00    +0.000 C 
BRANCH  11  12
ATOM     12  C   UNL     1       2.633   3.747  18.772  0.00  0.00    +0.000 A 
ATOM     13  C   UNL     1       1.791   2.728  18.297  0.00  0.00    +0.000 A 
ATOM     14  C   UNL     1       0.673   2.314  19.024  0.00  0.00    +0.000 A 
ATOM     15  C   UNL     1       0.364   2.925  20.235  0.00  0.00    +0.000 A 
ATOM     16  C   UNL     1       1.168   3.957  20.715  0.00  0.00    +0.000 A 
ATOM     17  C   UNL     1       2.286   4.368  19.985  0.00  0.00    +0.000 A 
BRANCH  17  18
ATOM     18  O   UNL     1       3.058   5.395  20.466  0.00  0.00    +0.000 OA
ATOM     19  H   UNL     1       3.110   6.089  19.792  0.00  0.00    +0.000 HD
ENDBRANCH  17  18
ENDBRANCH  11  12
ENDBRANCH   3  10
BRANCH   5  20
ATOM     20  O   UNL     1       7.936   6.633  16.064  0.00  0.00    +0.000 OA
ATOM     21  C   UNL     1       7.531   7.149  17.327  0.00  0.00    +0.000 C 
ENDBRANCH   5  20
TORSDOF 5
ENDMDL
MODEL 9
REMARK VINA RESULT:      -7.0      5.484      8.672
REMARK  Name = 
REMARK  7 active torsions:
REMARK  status: ('A' for Active; 'I' for Inactive)
REMARK    1  A    between atoms: C_1  and  O_2
REMARK    2  A    between atoms: O_2  and  C_3
REMARK    3  A    between atoms: C_5  and  C_6
REMARK    4  A    between atoms: C_7  and  C_8
REMARK    5  A    between atoms: C_13  and  O_14
REMARK    6  A    between atoms: C_16  and  O_17
REMARK    7  A    between atoms: O_17  and  C_18
REMARK                            x       y       z     vdW  Elec       q    Type
REMARK                         _______ _______ _______ _____ _____    ______ ____
ROOT
ATOM      1  C   UNL     1      10.922  12.431  18.787  0.00  0.00    +0.000 A 
ATOM      2  C   UNL     1      10.253  11.323  18.250  0.00  0.00    +0.000 A 
ATOM      3  C   UNL     1       9.361  10.564  19.023  0.00  0.00    +0.000 A 
ATOM      4  C   UNL     1       9.126  10.954  20.347  0.00  0.00    +0.000 A 
ATOM      5  C   UNL     1       9.782  12.059  20.905  0.00  0.00    +0.000 A 
ATOM      6  C   UNL     1      10.679  12.789  20.118  0.00  0.00    +0.000 A 
ATOM      7  F   UNL     1      11.306  13.854  20.642  0.00  0.00    +0.000 F 
ENDROOT
BRANCH   1   9
ATOM      8  C   UNL     1      11.255  13.327  16.605  0.00  0.00    +0.000 C 
ATOM      9  O   UNL     1      11.764  13.061  17.908  0.00  0.00    +0.000 OA
ENDBRANCH   1   9
BRANCH   3  10
ATOM     10  C   UNL     1       8.649   9.444  18.386  0.00  0.00    +0.000 C 
ATOM     11  C   UNL     1       8.565   8.191  18.871  0.00  0.00    +0.000 C 
BRANCH  11  12
ATOM     12  C   UNL     1       7.815   7.095  18.216  0.00  0.00    +0.000 A 
ATOM     13  C   UNL     1       7.078   7.326  17.043  0.00  0.00    +0.000 A 
ATOM     14  C   UNL     1       6.352   6.301  16.431  0.00  0.00    +0.000 A 
ATOM     15  C   UNL     1       6.336   5.028  16.992  0.00  0.00    +0.000 A 
ATOM     16  C   UNL     1       7.037   4.781  18.171  0.00  0.00    +0.000 A 
ATOM     17  C   UNL     1       7.762   5.808  18.780  0.00  0.00    +0.000 A 
BRANCH  17  18
ATOM     18  O   UNL     1       8.436   5.550  19.947  0.00  0.00    +0.000 OA
ATOM     19  H   UNL     1       9.158   6.189  20.038  0.00  0.00    +0.000 HD
ENDBRANCH  17  18
ENDBRANCH  11  12
ENDBRANCH   3  10
BRANCH   5  20
ATOM     20  O   UNL     1       9.446  12.308  22.211  0.00  0.00    +0.000 OA
ATOM     21  C   UNL     1       8.164  11.867  22.645  0.00  0.00    +0.000 C 
ENDBRANCH   5  20
TORSDOF 5
ENDMDL
