MODEL 1
REMARK VINA RESULT:      -7.3      0.000      0.000
REMARK  Name = 
REMARK  8 active torsions:
REMARK  status: ('A' for Active; 'I' for Inactive)
REMARK    1  A    between atoms: C_1  and  C_2
REMARK    2  A    between atoms: C_2  and  N_3
REMARK    3  A    between atoms: C_7  and  C_8
REMARK    4  A    between atoms: N_13  and  N_14
REMARK    5  A    between atoms: C_15  and  C_16
REMARK    6  A    between atoms: C_19  and  O_20
REMARK    7  A    between atoms: O_20  and  C_21
REMARK    8  A    between atoms: C_22  and  O_23
REMARK                            x       y       z     vdW  Elec       q    Type
REMARK                         _______ _______ _______ _____ _____    ______ ____
ROOT
ATOM      1  N   UNL     1       6.184   7.214  17.635  0.00  0.00    +0.000 NA
ATOM      2  C   UNL     1       5.630   6.054  17.554  0.00  0.00    +0.000 A 
ATOM      3  S   UNL     1       6.389   4.625  16.785  0.00  0.00    +0.000 S 
ATOM      4  C   UNL     1       5.029   3.628  17.210  0.00  0.00    +0.000 A 
ATOM      5  C   UNL     1       4.067   4.310  17.860  0.00  0.00    +0.000 A 
ATOM      6  N   UNL     1       4.360   5.680  18.043  0.00  0.00    +0.000 N 
ENDROOT
BRANCH   5   7
ATOM      7  C   UNL     1       2.886   3.601  18.265  0.00  0.00    +0.000 A 
ATOM      8  C   UNL     1       1.545   3.817  17.957  0.00  0.00    +0.000 A 
ATOM      9  C   UNL     1       0.765   2.839  18.618  0.00  0.00    +0.000 A 
ATOM     10  C   UNL     1       1.657   2.050  19.295  0.00  0.00    +0.000 A 
ATOM     11  O   UNL     1       2.921   2.488  19.093  0.00  0.00    +0.000 OA
ENDBRANCH   5   7
BRANCH   1  13
ATOM     12  C   UNL     1       8.142   8.599  17.832  0.00  0.00    +0.000 C 
ATOM     13  C   UNL     1       7.516   7.434  17.085  0.00  0.00    +0.000 C 
ENDBRANCH   1  13
BRANCH   6  14
ATOM     14  N   UNL     1       3.544   6.484  18.817  0.00  0.00    +0.000 NA
ATOM     15  C   UNL     1       2.857   7.379  18.179  0.00  0.00    +0.000 C 
BRANCH  15  16
ATOM     16  C   UNL     1       1.928   8.281  18.888  0.00  0.00    +0.000 A 
ATOM     17  C   UNL     1       1.624   8.091  20.242  0.00  0.00    +0.000 A 
ATOM     18  C   UNL     1       0.713   8.940  20.884  0.00  0.00    +0.000 A 
ATOM     19  C   UNL     1       0.094   9.969  20.171  0.00  0.00    +0.000 A 
ATOM     20  C   UNL     1       0.414  10.136  18.817  0.00  0.00    +0.000 A 
ATOM     21  C   UNL     1       1.327   9.313  18.169  0.00  0.00    +0.000 A 
BRANCH  19  22
ATOM     22  O   UNL     1      -0.825  10.859  20.661  0.00  0.00    +0.000 OA
ATOM     23  C   UNL     1      -0.408  11.675  21.750  0.00  0.00    +0.000 C 
ENDBRANCH  19  22
BRANCH  20  24
ATOM     24  O   UNL     1      -0.189  11.124  18.086  0.00  0.00    +0.000 OA
ATOM     25  H   UNL     1      -0.892  10.672  17.579  0.00  0.00    +0.000 HD
ENDBRANCH  20  24
ENDBRANCH  15  16
ENDBRANCH   6  14
TORSDOF 6
ENDMDL
MODEL 2
REMARK VINA RESULT:      -7.2      1.108      1.719
REMARK  Name = 
REMARK  8 active torsions:
REMARK  status: ('A' for Active; 'I' for Inactive)
REMARK    1  A    between atoms: C_1  and  C_2
REMARK    2  A    between atoms: C_2  and  N_3
REMARK    3  A    between atoms: C_7  and  C_8
REMARK    4  A    between atoms: N_13  and  N_14
REMARK    5  A    between atoms: C_15  and  C_16
REMARK    6  A    between atoms: C_19  and  O_20
REMARK    7  A    between atoms: O_20  and  C_21
REMARK    8  A    between atoms: C_22  and  O_23
REMARK                            x       y       z     vdW  Elec       q    Type
REMARK                         _______ _______ _______ _____ _____    ______ ____
ROOT
ATOM      1  N   UNL     1       5.965   7.127  17.371  0.00  0.00    +0.000 NA
ATOM      2  C   UNL     1       5.475   6.015  17.798  0.00  0.00    +0.000 A 
ATOM      3  S   UNL     1       6.453   4.566  18.191  0.00  0.00    +0.000 S 
ATOM      4  C   UNL     1       5.035   3.703  18.707  0.00  0.00    +0.000 A 
ATOM      5  C   UNL     1       3.908   4.430  18.579  0.00  0.00    +0.000 A 
ATOM      6  N   UNL     1       4.117   5.721  18.045  0.00  0.00    +0.000 N 
ENDROOT
BRANCH   5   7
ATOM      7  C   UNL     1       2.664   3.830  18.969  0.00  0.00    +0.000 A 
ATOM      8  C   UNL     1       1.923   3.950  20.142  0.00  0.00    +0.000 A 
ATOM      9  C   UNL     1       0.766   3.142  20.033  0.00  0.00    +0.000 A 
ATOM     10  C   UNL     1       0.832   2.568  18.792  0.00  0.00    +0.000 A 
ATOM     11  O   UNL     1       1.952   2.968  18.146  0.00  0.00    +0.000 OA
ENDBRANCH   5   7
BRANCH   1  13
ATOM     12  C   UNL     1       7.816   8.616  17.755  0.00  0.00    +0.000 C 
ATOM     13  C   UNL     1       7.403   7.273  17.178  0.00  0.00    +0.000 C 
ENDBRANCH   1  13
BRANCH   6  14
ATOM     14  N   UNL     1       3.087   6.642  17.987  0.00  0.00    +0.000 NA
ATOM     15  C   UNL     1       2.849   7.297  19.079  0.00  0.00    +0.000 C 
BRANCH  15  16
ATOM     16  C   UNL     1       1.795   8.327  19.141  0.00  0.00    +0.000 A 
ATOM     17  C   UNL     1       1.411   9.043  17.998  0.00  0.00    +0.000 A 
ATOM     18  C   UNL     1       0.431  10.039  18.088  0.00  0.00    +0.000 A 
ATOM     19  C   UNL     1      -0.155  10.334  19.321  0.00  0.00    +0.000 A 
ATOM     20  C   UNL     1       0.248   9.607  20.449  0.00  0.00    +0.000 A 
ATOM     21  C   UNL     1       1.206   8.604  20.375  0.00  0.00    +0.000 A 
BRANCH  19  22
ATOM     22  O   UNL     1      -1.107  11.290  19.560  0.00  0.00    +0.000 OA
ATOM     23  C   UNL     1      -1.645  11.955  18.423  0.00  0.00    +0.000 C 
ENDBRANCH  19  22
BRANCH  20  24
ATOM     24  O   UNL     1      -0.295   9.884  21.674  0.00  0.00    +0.000 OA
ATOM     25  H   UNL     1       0.082   9.213  22.277  0.00  0.00    +0.000 HD
ENDBRANCH  20  24
ENDBRANCH  15  16
ENDBRANCH   6  14
TORSDOF 6
ENDMDL
MODEL 3
REMARK VINA RESULT:      -7.1      0.731      1.440
REMARK  Name = 
REMARK  8 active torsions:
REMARK  status: ('A' for Active; 'I' for Inactive)
REMARK    1  A    between atoms: C_1  and  C_2
REMARK    2  A    between atoms: C_2  and  N_3
REMARK    3  A    between atoms: C_7  and  C_8
REMARK    4  A    between atoms: N_13  and  N_14
REMARK    5  A    between atoms: C_15  and  C_16
REMARK    6  A    between atoms: C_19  and  O_20
REMARK    7  A    between atoms: O_20  and  C_21
REMARK    8  A    between atoms: C_22  and  O_23
REMARK                            x       y       z     vdW  Elec       q    Type
REMARK                         _______ _______ _______ _____ _____    ______ ____
ROOT
ATOM      1  N   UNL     1       6.172   7.259  17.665  0.00  0.00    +0.000 NA
ATOM      2  C   UNL     1       5.642   6.085  17.644  0.00  0.00    +0.000 A 
ATOM      3  S   UNL     1       6.445   4.628  16.980  0.00  0.00    +0.000 S 
ATOM      4  C   UNL     1       5.096   3.631  17.438  0.00  0.00    +0.000 A 
ATOM      5  C   UNL     1       4.108   4.331  18.026  0.00  0.00    +0.000 A 
ATOM      6  N   UNL     1       4.370   5.716  18.130  0.00  0.00    +0.000 N 
ENDROOT
BRANCH   5   7
ATOM      7  C   UNL     1       2.932   3.624  18.450  0.00  0.00    +0.000 A 
ATOM      8  C   UNL     1       1.664   3.544  17.881  0.00  0.00    +0.000 A 
ATOM      9  C   UNL     1       0.853   2.719  18.696  0.00  0.00    +0.000 A 
ATOM     10  C   UNL     1       1.657   2.312  19.726  0.00  0.00    +0.000 A 
ATOM     11  O   UNL     1       2.897   2.839  19.594  0.00  0.00    +0.000 OA
ENDBRANCH   5   7
BRANCH   1  13
ATOM     12  C   UNL     1       8.123   8.656  17.860  0.00  0.00    +0.000 C 
ATOM     13  C   UNL     1       7.511   7.473  17.129  0.00  0.00    +0.000 C 
ENDBRANCH   1  13
BRANCH   6  14
ATOM     14  N   UNL     1       3.523   6.549  18.837  0.00  0.00    +0.000 NA
ATOM     15  C   UNL     1       2.835   7.391  18.133  0.00  0.00    +0.000 C 
BRANCH  15  16
ATOM     16  C   UNL     1       1.875   8.315  18.766  0.00  0.00    +0.000 A 
ATOM     17  C   UNL     1       1.222   9.306  18.021  0.00  0.00    +0.000 A 
ATOM     18  C   UNL     1       0.339  10.193  18.651  0.00  0.00    +0.000 A 
ATOM     19  C   UNL     1       0.121  10.102  20.028  0.00  0.00    +0.000 A 
ATOM     20  C   UNL     1       0.788   9.104  20.750  0.00  0.00    +0.000 A 
ATOM     21  C   UNL     1       1.654   8.206  20.139  0.00  0.00    +0.000 A 
BRANCH  19  22
ATOM     22  O   UNL     1      -0.696  10.909  20.776  0.00  0.00    +0.000 OA
ATOM     23  C   UNL     1      -1.487  11.854  20.064  0.00  0.00    +0.000 C 
ENDBRANCH  19  22
BRANCH  20  24
ATOM     24  O   UNL     1       0.609   9.000  22.104  0.00  0.00    +0.000 OA
ATOM     25  H   UNL     1       0.998   9.816  22.476  0.00  0.00    +0.000 HD
ENDBRANCH  20  24
ENDBRANCH  15  16
ENDBRANCH   6  14
TORSDOF 6
ENDMDL
MODEL 4
REMARK VINA RESULT:      -6.9      4.040      6.438
REMARK  Name = 
REMARK  8 active torsions:
REMARK  status: ('A' for Active; 'I' for Inactive)
REMARK    1  A    between atoms: C_1  and  C_2
REMARK    2  A    between atoms: C_2  and  N_3
REMARK    3  A    between atoms: C_7  and  C_8
REMARK    4  A    between atoms: N_13  and  N_14
REMARK    5  A    between atoms: C_15  and  C_16
REMARK    6  A    between atoms: C_19  and  O_20
REMARK    7  A    between atoms: O_20  and  C_21
REMARK    8  A    between atoms: C_22  and  O_23
REMARK                            x       y       z     vdW  Elec       q    Type
REMARK                         _______ _______ _______ _____ _____    ______ ____
ROOT
ATOM      1  N   UNL     1       5.244   2.915  13.100  0.00  0.00    +0.000 NA
ATOM      2  C   UNL     1       6.060   3.756  13.638  0.00  0.00    +0.000 A 
ATOM      3  S   UNL     1       7.295   4.684  12.731  0.00  0.00    +0.000 S 
ATOM      4  C   UNL     1       7.784   5.516  14.178  0.00  0.00    +0.000 A 
ATOM      5  C   UNL     1       7.094   5.119  15.264  0.00  0.00    +0.000 A 
ATOM      6  N   UNL     1       6.140   4.112  15.001  0.00  0.00    +0.000 N 
ENDROOT
BRANCH   5   7
ATOM      7  C   UNL     1       7.405   5.728  16.527  0.00  0.00    +0.000 A 
ATOM      8  C   UNL     1       7.578   5.168  17.790  0.00  0.00    +0.000 A 
ATOM      9  C   UNL     1       7.867   6.203  18.710  0.00  0.00    +0.000 A 
ATOM     10  C   UNL     1       7.875   7.359  17.975  0.00  0.00    +0.000 A 
ATOM     11  O   UNL     1       7.606   7.094  16.676  0.00  0.00    +0.000 OA
ENDBRANCH   5   7
BRANCH   1  13
ATOM     12  C   UNL     1       4.024   3.257  11.054  0.00  0.00    +0.000 C 
ATOM     13  C   UNL     1       5.284   2.666  11.664  0.00  0.00    +0.000 C 
ENDBRANCH   1  13
BRANCH   6  14
ATOM     14  N   UNL     1       5.251   3.702  15.977  0.00  0.00    +0.000 NA
ATOM     15  C   UNL     1       4.489   4.624  16.475  0.00  0.00    +0.000 C 
BRANCH  15  16
ATOM     16  C   UNL     1       3.479   4.311  17.504  0.00  0.00    +0.000 A 
ATOM     17  C   UNL     1       3.051   5.280  18.421  0.00  0.00    +0.000 A 
ATOM     18  C   UNL     1       2.115   4.950  19.410  0.00  0.00    +0.000 A 
ATOM     19  C   UNL     1       1.619   3.647  19.494  0.00  0.00    +0.000 A 
ATOM     20  C   UNL     1       2.065   2.695  18.568  0.00  0.00    +0.000 A 
ATOM     21  C   UNL     1       2.979   3.010  17.571  0.00  0.00    +0.000 A 
BRANCH  19  22
ATOM     22  O   UNL     1       0.719   3.179  20.416  0.00  0.00    +0.000 OA
ATOM     23  C   UNL     1       1.248   2.746  21.664  0.00  0.00    +0.000 C 
ENDBRANCH  19  22
BRANCH  20  24
ATOM     24  O   UNL     1       1.610   1.406  18.635  0.00  0.00    +0.000 OA
ATOM     25  H   UNL     1       0.643   1.470  18.511  0.00  0.00    +0.000 HD
ENDBRANCH  20  24
ENDBRANCH  15  16
ENDBRANCH   6  14
TORSDOF 6
ENDMDL
MODEL 5
REMARK VINA RESULT:      -6.7      4.088      6.473
REMARK  Name = 
REMARK  8 active torsions:
REMARK  status: ('A' for Active; 'I' for Inactive)
REMARK    1  A    between atoms: C_1  and  C_2
REMARK    2  A    between atoms: C_2  and  N_3
REMARK    3  A    between atoms: C_7  and  C_8
REMARK    4  A    between atoms: N_13  and  N_14
REMARK    5  A    between atoms: C_15  and  C_16
REMARK    6  A    between atoms: C_19  and  O_20
REMARK    7  A    between atoms: O_20  and  C_21
REMARK    8  A    between atoms: C_22  and  O_23
REMARK                            x       y       z     vdW  Elec       q    Type
REMARK                         _______ _______ _______ _____ _____    ______ ____
ROOT
ATOM      1  N   UNL     1       4.806   3.315  13.030  0.00  0.00    +0.000 NA
ATOM      2  C   UNL     1       5.754   3.983  13.593  0.00  0.00    +0.000 A 
ATOM      3  S   UNL     1       7.249   4.510  12.759  0.00  0.00    +0.000 S 
ATOM      4  C   UNL     1       7.804   5.325  14.192  0.00  0.00    +0.000 A 
ATOM      5  C   UNL     1       6.950   5.199  15.225  0.00  0.00    +0.000 A 
ATOM      6  N   UNL     1       5.804   4.427  14.931  0.00  0.00    +0.000 N 
ENDROOT
BRANCH   5   7
ATOM      7  C   UNL     1       7.294   5.825  16.471  0.00  0.00    +0.000 A 
ATOM      8  C   UNL     1       7.543   5.276  17.727  0.00  0.00    +0.000 A 
ATOM      9  C   UNL     1       7.833   6.326  18.630  0.00  0.00    +0.000 A 
ATOM     10  C   UNL     1       7.765   7.478  17.893  0.00  0.00    +0.000 A 
ATOM     11  O   UNL     1       7.449   7.197  16.608  0.00  0.00    +0.000 OA
ENDBRANCH   5   7
BRANCH   1  13
ATOM     12  C   UNL     1       3.701   3.522  10.902  0.00  0.00    +0.000 C 
ATOM     13  C   UNL     1       4.904   2.940  11.624  0.00  0.00    +0.000 C 
ENDBRANCH   1  13
BRANCH   6  14
ATOM     14  N   UNL     1       4.764   4.326  15.836  0.00  0.00    +0.000 NA
ATOM     15  C   UNL     1       4.889   3.412  16.746  0.00  0.00    +0.000 C 
BRANCH  15  16
ATOM     16  C   UNL     1       3.861   3.221  17.787  0.00  0.00    +0.000 A 
ATOM     17  C   UNL     1       3.375   1.946  18.103  0.00  0.00    +0.000 A 
ATOM     18  C   UNL     1       2.375   1.793  19.072  0.00  0.00    +0.000 A 
ATOM     19  C   UNL     1       1.848   2.915  19.715  0.00  0.00    +0.000 A 
ATOM     20  C   UNL     1       2.348   4.180  19.379  0.00  0.00    +0.000 A 
ATOM     21  C   UNL     1       3.351   4.348  18.433  0.00  0.00    +0.000 A 
BRANCH  19  22
ATOM     22  O   UNL     1       0.859   2.918  20.663  0.00  0.00    +0.000 OA
ATOM     23  C   UNL     1       1.232   2.517  21.977  0.00  0.00    +0.000 C 
ENDBRANCH  19  22
BRANCH  20  24
ATOM     24  O   UNL     1       1.840   5.301  19.978  0.00  0.00    +0.000 OA
ATOM     25  H   UNL     1       1.893   6.000  19.298  0.00  0.00    +0.000 HD
ENDBRANCH  20  24
ENDBRANCH  15  16
ENDBRANCH   6  14
TORSDOF 6
ENDMDL
MODEL 6
REMARK VINA RESULT:      -6.7      1.985      4.596
REMARK  Name = 
REMARK  8 active torsions:
REMARK  status: ('A' for Active; 'I' for Inactive)
REMARK    1  A    between atoms: C_1  and  C_2
REMARK    2  A    between atoms: C_2  and  N_3
REMARK    3  A    between atoms: C_7  and  C_8
REMARK    4  A    between atoms: N_13  and  N_14
REMARK    5  A    between atoms: C_15  and  C_16
REMARK    6  A    between atoms: C_19  and  O_20
REMARK    7  A    between atoms: O_20  and  C_21
REMARK    8  A    between atoms: C_22  and  O_23
REMARK                            x       y       z     vdW  Elec       q    Type
REMARK                         _______ _______ _______ _____ _____    ______ ____
ROOT
ATOM      1  N   UNL     1       1.880   3.867  20.133  0.00  0.00    +0.000 NA
ATOM      2  C   UNL     1       3.063   3.930  19.627  0.00  0.00    +0.000 A 
ATOM      3  S   UNL     1       3.985   2.512  19.038  0.00  0.00    +0.000 S 
ATOM      4  C   UNL     1       5.295   3.532  18.521  0.00  0.00    +0.000 A 
ATOM      5  C   UNL     1       5.075   4.835  18.784  0.00  0.00    +0.000 A 
ATOM      6  N   UNL     1       3.845   5.089  19.430  0.00  0.00    +0.000 N 
ENDROOT
BRANCH   5   7
ATOM      7  C   UNL     1       6.084   5.784  18.408  0.00  0.00    +0.000 A 
ATOM      8  C   UNL     1       6.134   6.689  17.351  0.00  0.00    +0.000 A 
ATOM      9  C   UNL     1       7.357   7.397  17.418  0.00  0.00    +0.000 A 
ATOM     10  C   UNL     1       8.006   6.911  18.521  0.00  0.00    +0.000 A 
ATOM     11  O   UNL     1       7.262   5.954  19.123  0.00  0.00    +0.000 OA
ENDBRANCH   5   7
BRANCH   1  13
ATOM     12  C   UNL     1       0.507   2.294  18.936  0.00  0.00    +0.000 C 
ATOM     13  C   UNL     1       1.199   2.583  20.257  0.00  0.00    +0.000 C 
ENDBRANCH   1  13
BRANCH   6  14
ATOM     14  N   UNL     1       3.404   6.383  19.637  0.00  0.00    +0.000 NA
ATOM     15  C   UNL     1       2.593   6.856  18.744  0.00  0.00    +0.000 C 
BRANCH  15  16
ATOM     16  C   UNL     1       2.030   8.215  18.865  0.00  0.00    +0.000 A 
ATOM     17  C   UNL     1       2.177   9.155  17.837  0.00  0.00    +0.000 A 
ATOM     18  C   UNL     1       1.662  10.449  17.988  0.00  0.00    +0.000 A 
ATOM     19  C   UNL     1       1.014  10.810  19.172  0.00  0.00    +0.000 A 
ATOM     20  C   UNL     1       0.883   9.852  20.185  0.00  0.00    +0.000 A 
ATOM     21  C   UNL     1       1.373   8.560  20.046  0.00  0.00    +0.000 A 
BRANCH  19  22
ATOM     22  O   UNL     1       0.480  12.038  19.464  0.00  0.00    +0.000 OA
ATOM     23  C   UNL     1      -0.647  12.444  18.697  0.00  0.00    +0.000 C 
ENDBRANCH  19  22
BRANCH  20  24
ATOM     24  O   UNL     1       0.269  10.180  21.364  0.00  0.00    +0.000 OA
ATOM     25  H   UNL     1      -0.615   9.764  21.315  0.00  0.00    +0.000 HD
ENDBRANCH  20  24
ENDBRANCH  15  16
ENDBRANCH   6  14
TORSDOF 6
ENDMDL
MODEL 7
REMARK VINA RESULT:      -6.7      2.088      4.508
REMARK  Name = 
REMARK  8 active torsions:
REMARK  status: ('A' for Active; 'I' for Inactive)
REMARK    1  A    between atoms: C_1  and  C_2
REMARK    2  A    between atoms: C_2  and  N_3
REMARK    3  A    between atoms: C_7  and  C_8
REMARK    4  A    between atoms: N_13  and  N_14
REMARK    5  A    between atoms: C_15  and  C_16
REMARK    6  A    between atoms: C_19  and  O_20
REMARK    7  A    between atoms: O_20  and  C_21
REMARK    8  A    between atoms: C_22  and  O_23
REMARK                            x       y       z     vdW  Elec       q    Type
REMARK                         _______ _______ _______ _____ _____    ______ ____
ROOT
ATOM      1  N   UNL     1       1.772   4.140  20.215  0.00  0.00    +0.000 NA
ATOM      2  C   UNL     1       2.937   4.158  19.666  0.00  0.00    +0.000 A 
ATOM      3  S   UNL     1       3.793   2.701  19.070  0.00  0.00    +0.000 S 
ATOM      4  C   UNL     1       5.114   3.671  18.488  0.00  0.00    +0.000 A 
ATOM      5  C   UNL     1       4.944   4.983  18.736  0.00  0.00    +0.000 A 
ATOM      6  N   UNL     1       3.747   5.287  19.422  0.00  0.00    +0.000 N 
ENDROOT
BRANCH   5   7
ATOM      7  C   UNL     1       5.968   5.894  18.308  0.00  0.00    +0.000 A 
ATOM      8  C   UNL     1       5.998   6.799  17.250  0.00  0.00    +0.000 A 
ATOM      9  C   UNL     1       7.249   7.459  17.253  0.00  0.00    +0.000 A 
ATOM     10  C   UNL     1       7.936   6.946  18.320  0.00  0.00    +0.000 A 
ATOM     11  O   UNL     1       7.188   6.017  18.960  0.00  0.00    +0.000 OA
ENDBRANCH   5   7
BRANCH   1  13
ATOM     12  C   UNL     1       1.315   2.386  21.798  0.00  0.00    +0.000 C 
ATOM     13  C   UNL     1       1.056   2.881  20.386  0.00  0.00    +0.000 C 
ENDBRANCH   1  13
BRANCH   6  14
ATOM     14  N   UNL     1       3.355   6.598  19.621  0.00  0.00    +0.000 NA
ATOM     15  C   UNL     1       2.547   7.090  18.736  0.00  0.00    +0.000 C 
BRANCH  15  16
ATOM     16  C   UNL     1       2.033   8.469  18.850  0.00  0.00    +0.000 A 
ATOM     17  C   UNL     1       1.031   8.796  19.774  0.00  0.00    +0.000 A 
ATOM     18  C   UNL     1       0.536  10.104  19.841  0.00  0.00    +0.000 A 
ATOM     19  C   UNL     1       1.028  11.083  18.975  0.00  0.00    +0.000 A 
ATOM     20  C   UNL     1       2.028  10.730  18.059  0.00  0.00    +0.000 A 
ATOM     21  C   UNL     1       2.542   9.441  17.990  0.00  0.00    +0.000 A 
BRANCH  19  22
ATOM     22  O   UNL     1       0.626  12.392  18.915  0.00  0.00    +0.000 OA
ATOM     23  C   UNL     1      -0.723  12.663  19.278  0.00  0.00    +0.000 C 
ENDBRANCH  19  22
BRANCH  20  24
ATOM     24  O   UNL     1       2.518  11.663  17.185  0.00  0.00    +0.000 OA
ATOM     25  H   UNL     1       1.908  12.423  17.254  0.00  0.00    +0.000 HD
ENDBRANCH  20  24
ENDBRANCH  15  16
ENDBRANCH   6  14
TORSDOF 6
ENDMDL
MODEL 8
REMARK VINA RESULT:      -6.7      3.956      6.203
REMARK  Name = 
REMARK  8 active torsions:
REMARK  status: ('A' for Active; 'I' for Inactive)
REMARK    1  A    between atoms: C_1  and  C_2
REMARK    2  A    between atoms: C_2  and  N_3
REMARK    3  A    between atoms: C_7  and  C_8
REMARK    4  A    between atoms: N_13  and  N_14
REMARK    5  A    between atoms: C_15  and  C_16
REMARK    6  A    between atoms: C_19  and  O_20
REMARK    7  A    between atoms: O_20  and  C_21
REMARK    8  A    between atoms: C_22  and  O_23
REMARK                            x       y       z     vdW  Elec       q    Type
REMARK                         _______ _______ _______ _____ _____    ______ ____
ROOT
ATOM      1  N   UNL     1       5.105   3.009  12.992  0.00  0.00    +0.000 NA
ATOM      2  C   UNL     1       5.948   3.794  13.569  0.00  0.00    +0.000 A 
ATOM      3  S   UNL     1       7.195   4.747  12.706  0.00  0.00    +0.000 S 
ATOM      4  C   UNL     1       7.722   5.475  14.194  0.00  0.00    +0.000 A 
ATOM      5  C   UNL     1       7.035   5.029  15.263  0.00  0.00    +0.000 A 
ATOM      6  N   UNL     1       6.053   4.063  14.951  0.00  0.00    +0.000 N 
ENDROOT
BRANCH   5   7
ATOM      7  C   UNL     1       7.377   5.550  16.556  0.00  0.00    +0.000 A 
ATOM      8  C   UNL     1       7.346   6.852  17.050  0.00  0.00    +0.000 A 
ATOM      9  C   UNL     1       7.790   6.838  18.393  0.00  0.00    +0.000 A 
ATOM     10  C   UNL     1       8.062   5.527  18.679  0.00  0.00    +0.000 A 
ATOM     11  O   UNL     1       7.819   4.748  17.600  0.00  0.00    +0.000 OA
ENDBRANCH   5   7
BRANCH   1  13
ATOM     12  C   UNL     1       3.779   3.316  11.007  0.00  0.00    +0.000 C 
ATOM     13  C   UNL     1       5.122   2.849  11.542  0.00  0.00    +0.000 C 
ENDBRANCH   1  13
BRANCH   6  14
ATOM     14  N   UNL     1       5.165   3.615  15.912  0.00  0.00    +0.000 NA
ATOM     15  C   UNL     1       4.604   4.529  16.637  0.00  0.00    +0.000 C 
BRANCH  15  16
ATOM     16  C   UNL     1       3.617   4.183  17.678  0.00  0.00    +0.000 A 
ATOM     17  C   UNL     1       2.784   3.064  17.546  0.00  0.00    +0.000 A 
ATOM     18  C   UNL     1       1.832   2.774  18.531  0.00  0.00    +0.000 A 
ATOM     19  C   UNL     1       1.699   3.611  19.642  0.00  0.00    +0.000 A 
ATOM     20  C   UNL     1       2.542   4.726  19.749  0.00  0.00    +0.000 A 
ATOM     21  C   UNL     1       3.502   5.018  18.789  0.00  0.00    +0.000 A 
BRANCH  19  22
ATOM     22  O   UNL     1       0.804   3.463  20.669  0.00  0.00    +0.000 OA
ATOM     23  C   UNL     1       1.171   2.567  21.712  0.00  0.00    +0.000 C 
ENDBRANCH  19  22
BRANCH  20  24
ATOM     24  O   UNL     1       2.425   5.575  20.817  0.00  0.00    +0.000 OA
ATOM     25  H   UNL     1       2.981   5.181  21.518  0.00  0.00    +0.000 HD
ENDBRANCH  20  24
ENDBRANCH  15  16
ENDBRANCH   6  14
TORSDOF 6
ENDMDL
MODEL 9
REMARK VINA RESULT:      -6.5      1.060      1.111
REMARK  Name = 
REMARK  8 active torsions:
REMARK  status: ('A' for Active; 'I' for Inactive)
REMARK    1  A    between atoms: C_1  and  C_2
REMARK    2  A    between atoms: C_2  and  N_3
REMARK    3  A    between atoms: C_7  and  C_8
REMARK    4  A    between atoms: N_13  and  N_14
REMARK    5  A    between atoms: C_15  and  C_16
REMARK    6  A    between atoms: C_19  and  O_20
REMARK    7  A    between atoms: O_20  and  C_21
REMARK    8  A    between atoms: C_22  and  O_23
REMARK                            x       y       z     vdW  Elec       q    Type
REMARK                         _______ _______ _______ _____ _____    ______ ____
ROOT
ATOM      1  N   UNL     1       5.904   7.126  17.378  0.00  0.00    +0.000 NA
ATOM      2  C   UNL     1       5.375   6.010  17.745  0.00  0.00    +0.000 A 
ATOM      3  S   UNL     1       6.285   4.479  17.940  0.00  0.00    +0.000 S 
ATOM      4  C   UNL     1       4.855   3.655  18.487  0.00  0.00    +0.000 A 
ATOM      5  C   UNL     1       3.770   4.454  18.505  0.00  0.00    +0.000 A 
ATOM      6  N   UNL     1       4.022   5.773  18.067  0.00  0.00    +0.000 N 
ENDROOT
BRANCH   5   7
ATOM      7  C   UNL     1       2.520   3.893  18.935  0.00  0.00    +0.000 A 
ATOM      8  C   UNL     1       1.559   3.168  18.235  0.00  0.00    +0.000 A 
ATOM      9  C   UNL     1       0.500   2.850  19.117  0.00  0.00    +0.000 A 
ATOM     10  C   UNL     1       0.856   3.378  20.328  0.00  0.00    +0.000 A 
ATOM     11  O   UNL     1       2.055   3.999  20.238  0.00  0.00    +0.000 OA
ENDBRANCH   5   7
BRANCH   1  13
ATOM     12  C   UNL     1       7.847   8.518  17.657  0.00  0.00    +0.000 C 
ATOM     13  C   UNL     1       7.332   7.206  17.091  0.00  0.00    +0.000 C 
ENDBRANCH   1  13
BRANCH   6  14
ATOM     14  N   UNL     1       3.051   6.752  18.165  0.00  0.00    +0.000 NA
ATOM     15  C   UNL     1       2.844   7.231  19.350  0.00  0.00    +0.000 C 
BRANCH  15  16
ATOM     16  C   UNL     1       1.854   8.301  19.583  0.00  0.00    +0.000 A 
ATOM     17  C   UNL     1       0.958   8.239  20.658  0.00  0.00    +0.000 A 
ATOM     18  C   UNL     1       0.005   9.249  20.840  0.00  0.00    +0.000 A 
ATOM     19  C   UNL     1      -0.064  10.314  19.938  0.00  0.00    +0.000 A 
ATOM     20  C   UNL     1       0.841  10.351  18.870  0.00  0.00    +0.000 A 
ATOM     21  C   UNL     1       1.803   9.366  18.684  0.00  0.00    +0.000 A 
BRANCH  19  22
ATOM     22  O   UNL     1      -0.951  11.357  19.980  0.00  0.00    +0.000 OA
ATOM     23  C   UNL     1      -2.144  11.214  19.218  0.00  0.00    +0.000 C 
ENDBRANCH  19  22
BRANCH  20  24
ATOM     24  O   UNL     1       0.787  11.372  17.959  0.00  0.00    +0.000 OA
ATOM     25  H   UNL     1       1.346  12.080  18.336  0.00  0.00    +0.000 HD
ENDBRANCH  20  24
ENDBRANCH  15  16
ENDBRANCH   6  14
TORSDOF 6
ENDMDL
