MODEL 1
REMARK VINA RESULT:      -8.3      0.000      0.000
REMARK  Name = 
REMARK  3 active torsions:
REMARK  status: ('A' for Active; 'I' for Inactive)
REMARK    1  A    between atoms: N_8  and  C_9
REMARK    2  A    between atoms: C_9  and  C_10
REMARK    3  A    between atoms: C_24  and  C_25
REMARK                            x       y       z     vdW  Elec       q    Type
REMARK                         _______ _______ _______ _____ _____    ______ ____
ROOT
ATOM      1  N   UNL     1       1.789   4.387  20.826  0.00  0.00    +0.000 N 
ATOM      2  C   UNL     1       1.927   5.654  20.321  0.00  0.00    +0.000 A 
ATOM      3  N   UNL     1       1.347   6.683  20.857  0.00  0.00    +0.000 NA
ATOM      4  C   UNL     1       1.538   7.943  20.308  0.00  0.00    +0.000 A 
ATOM      5  N   UNL     1       0.887   8.997  20.916  0.00  0.00    +0.000 N 
ATOM      6  C   UNL     1      -0.033   8.782  22.038  0.00  0.00    +0.000 C 
ATOM      7  C   UNL     1      -0.028  10.000  22.991  0.00  0.00    +0.000 C 
ATOM      8  N   UNL     1      -0.274  11.310  22.342  0.00  0.00    +0.000 NA
ATOM      9  C   UNL     1       0.698  11.449  21.228  0.00  0.00    +0.000 C 
ATOM     10  C   UNL     1       0.718  10.282  20.219  0.00  0.00    +0.000 C 
ATOM     11  N   UNL     1       2.302   8.165  19.268  0.00  0.00    +0.000 NA
ATOM     12  C   UNL     1       2.919   7.105  18.702  0.00  0.00    +0.000 A 
ATOM     13  N   UNL     1       3.752   7.010  17.690  0.00  0.00    +0.000 NA
ATOM     14  C   UNL     1       3.961   5.649  17.572  0.00  0.00    +0.000 A 
ATOM     15  N   UNL     1       3.313   4.894  18.476  0.00  0.00    +0.000 NA
ATOM     16  N   UNL     1       2.710   5.858  19.194  0.00  0.00    +0.000 N 
ATOM     17  H   UNL     1       1.019   4.236  21.463  0.00  0.00    +0.000 HD
ATOM     18  H   UNL     1       2.020   3.617  20.200  0.00  0.00    +0.000 HD
ENDROOT
BRANCH  14  19
ATOM     19  C   UNL     1       4.830   5.067  16.508  0.00  0.00    +0.000 A 
ATOM     20  C   UNL     1       5.318   5.748  15.409  0.00  0.00    +0.000 A 
ATOM     21  C   UNL     1       6.088   4.822  14.663  0.00  0.00    +0.000 A 
ATOM     22  C   UNL     1       6.012   3.631  15.343  0.00  0.00    +0.000 A 
ATOM     23  O   UNL     1       5.268   3.770  16.470  0.00  0.00    +0.000 OA
ENDBRANCH  14  19
BRANCH   8  24
ATOM     24  C   UNL     1      -1.676  11.397  21.895  0.00  0.00    +0.000 C 
BRANCH  24  25
ATOM     25  C   UNL     1      -2.427  12.518  22.522  0.00  0.00    +0.000 A 
ATOM     26  C   UNL     1      -3.725  12.976  22.417  0.00  0.00    +0.000 A 
ATOM     27  C   UNL     1      -3.826  14.104  23.272  0.00  0.00    +0.000 A 
ATOM     28  C   UNL     1      -4.839  15.010  23.625  0.00  0.00    +0.000 A 
ATOM     29  C   UNL     1      -4.541  16.033  24.537  0.00  0.00    +0.000 A 
ATOM     30  C   UNL     1      -3.262  16.155  25.091  0.00  0.00    +0.000 A 
ATOM     31  C   UNL     1      -2.241  15.260  24.754  0.00  0.00    +0.000 A 
ATOM     32  C   UNL     1      -2.570  14.258  23.847  0.00  0.00    +0.000 A 
ATOM     33  O   UNL     1      -1.722  13.295  23.396  0.00  0.00    +0.000 OA
ENDBRANCH  24  25
ENDBRANCH   8  24
TORSDOF 3
ENDMDL
MODEL 2
REMARK VINA RESULT:      -8.2      0.839      1.368
REMARK  Name = 
REMARK  3 active torsions:
REMARK  status: ('A' for Active; 'I' for Inactive)
REMARK    1  A    between atoms: N_8  and  C_9
REMARK    2  A    between atoms: C_9  and  C_10
REMARK    3  A    between atoms: C_24  and  C_25
REMARK                            x       y       z     vdW  Elec       q    Type
REMARK                         _______ _______ _______ _____ _____    ______ ____
ROOT
ATOM      1  N   UNL     1       1.953   4.344  20.713  0.00  0.00    +0.000 N 
ATOM      2  C   UNL     1       2.054   5.623  20.230  0.00  0.00    +0.000 A 
ATOM      3  N   UNL     1       1.451   6.627  20.788  0.00  0.00    +0.000 NA
ATOM      4  C   UNL     1       1.603   7.901  20.261  0.00  0.00    +0.000 A 
ATOM      5  N   UNL     1       0.929   8.927  20.892  0.00  0.00    +0.000 N 
ATOM      6  C   UNL     1       0.024   8.667  22.017  0.00  0.00    +0.000 C 
ATOM      7  C   UNL     1       0.004   9.867  22.991  0.00  0.00    +0.000 C 
ATOM      8  N   UNL     1      -0.282  11.181  22.367  0.00  0.00    +0.000 NA
ATOM      9  C   UNL     1       0.678  11.367  21.248  0.00  0.00    +0.000 C 
ATOM     10  C   UNL     1       0.720  10.218  20.219  0.00  0.00    +0.000 C 
ATOM     11  N   UNL     1       2.353   8.162  19.219  0.00  0.00    +0.000 NA
ATOM     12  C   UNL     1       2.994   7.129  18.630  0.00  0.00    +0.000 A 
ATOM     13  N   UNL     1       3.821   7.073  17.609  0.00  0.00    +0.000 NA
ATOM     14  C   UNL     1       4.065   5.721  17.466  0.00  0.00    +0.000 A 
ATOM     15  N   UNL     1       3.444   4.934  18.361  0.00  0.00    +0.000 NA
ATOM     16  N   UNL     1       2.821   5.868  19.101  0.00  0.00    +0.000 N 
ATOM     17  H   UNL     1       1.193   4.162  21.353  0.00  0.00    +0.000 HD
ATOM     18  H   UNL     1       2.200   3.592  20.071  0.00  0.00    +0.000 HD
ENDROOT
BRANCH  14  19
ATOM     19  C   UNL     1       4.941   5.182  16.386  0.00  0.00    +0.000 A 
ATOM     20  C   UNL     1       5.258   3.850  16.198  0.00  0.00    +0.000 A 
ATOM     21  C   UNL     1       6.112   3.787  15.070  0.00  0.00    +0.000 A 
ATOM     22  C   UNL     1       6.276   5.084  14.646  0.00  0.00    +0.000 A 
ATOM     23  O   UNL     1       5.559   5.935  15.423  0.00  0.00    +0.000 OA
ENDBRANCH  14  19
BRANCH   8  24
ATOM     24  C   UNL     1      -1.689  11.239  21.932  0.00  0.00    +0.000 C 
BRANCH  24  25
ATOM     25  C   UNL     1      -2.437  12.390  22.504  0.00  0.00    +0.000 A 
ATOM     26  C   UNL     1      -2.058  13.564  23.126  0.00  0.00    +0.000 A 
ATOM     27  C   UNL     1      -3.255  14.252  23.455  0.00  0.00    +0.000 A 
ATOM     28  C   UNL     1      -3.576  15.468  24.080  0.00  0.00    +0.000 A 
ATOM     29  C   UNL     1      -4.927  15.813  24.228  0.00  0.00    +0.000 A 
ATOM     30  C   UNL     1      -5.942  14.970  23.764  0.00  0.00    +0.000 A 
ATOM     31  C   UNL     1      -5.642  13.757  23.135  0.00  0.00    +0.000 A 
ATOM     32  C   UNL     1      -4.293  13.444  23.005  0.00  0.00    +0.000 A 
ATOM     33  O   UNL     1      -3.798  12.318  22.425  0.00  0.00    +0.000 OA
ENDBRANCH  24  25
ENDBRANCH   8  24
TORSDOF 3
ENDMDL
MODEL 3
REMARK VINA RESULT:      -8.2      1.504      2.047
REMARK  Name = 
REMARK  3 active torsions:
REMARK  status: ('A' for Active; 'I' for Inactive)
REMARK    1  A    between atoms: N_8  and  C_9
REMARK    2  A    between atoms: C_9  and  C_10
REMARK    3  A    between atoms: C_24  and  C_25
REMARK                            x       y       z     vdW  Elec       q    Type
REMARK                         _______ _______ _______ _____ _____    ______ ____
ROOT
ATOM      1  N   UNL     1       2.245   5.503  20.889  0.00  0.00    +0.000 N 
ATOM      2  C   UNL     1       2.217   6.598  20.065  0.00  0.00    +0.000 A 
ATOM      3  N   UNL     1       1.521   7.657  20.339  0.00  0.00    +0.000 NA
ATOM      4  C   UNL     1       1.545   8.741  19.472  0.00  0.00    +0.000 A 
ATOM      5  N   UNL     1       0.776   9.835  19.812  0.00  0.00    +0.000 N 
ATOM      6  C   UNL     1      -0.094   9.819  20.992  0.00  0.00    +0.000 C 
ATOM      7  C   UNL     1      -0.228  11.237  21.592  0.00  0.00    +0.000 C 
ATOM      8  N   UNL     1      -0.644  12.290  20.635  0.00  0.00    +0.000 NA
ATOM      9  C   UNL     1       0.288  12.242  19.480  0.00  0.00    +0.000 C 
ATOM     10  C   UNL     1       0.439  10.860  18.812  0.00  0.00    +0.000 C 
ATOM     11  N   UNL     1       2.263   8.766  18.376  0.00  0.00    +0.000 NA
ATOM     12  C   UNL     1       2.999   7.674  18.079  0.00  0.00    +0.000 A 
ATOM     13  N   UNL     1       3.824   7.411  17.090  0.00  0.00    +0.000 NA
ATOM     14  C   UNL     1       4.199   6.101  17.323  0.00  0.00    +0.000 A 
ATOM     15  N   UNL     1       3.662   5.543  18.421  0.00  0.00    +0.000 NA
ATOM     16  N   UNL     1       2.953   6.586  18.889  0.00  0.00    +0.000 N 
ATOM     17  H   UNL     1       1.508   5.438  21.579  0.00  0.00    +0.000 HD
ATOM     18  H   UNL     1       2.562   4.627  20.476  0.00  0.00    +0.000 HD
ENDROOT
BRANCH  14  19
ATOM     19  C   UNL     1       5.119   5.364  16.410  0.00  0.00    +0.000 A 
ATOM     20  C   UNL     1       5.185   3.991  16.272  0.00  0.00    +0.000 A 
ATOM     21  C   UNL     1       6.190   3.723  15.311  0.00  0.00    +0.000 A 
ATOM     22  C   UNL     1       6.687   4.946  14.931  0.00  0.00    +0.000 A 
ATOM     23  O   UNL     1       6.036   5.947  15.576  0.00  0.00    +0.000 OA
ENDBRANCH  14  19
BRANCH   8  24
ATOM     24  C   UNL     1      -2.052  12.092  20.246  0.00  0.00    +0.000 C 
BRANCH  24  25
ATOM     25  C   UNL     1      -3.016  12.789  21.139  0.00  0.00    +0.000 A 
ATOM     26  C   UNL     1      -2.883  13.726  22.144  0.00  0.00    +0.000 A 
ATOM     27  C   UNL     1      -4.191  13.989  22.628  0.00  0.00    +0.000 A 
ATOM     28  C   UNL     1      -4.750  14.816  23.615  0.00  0.00    +0.000 A 
ATOM     29  C   UNL     1      -6.139  14.794  23.805  0.00  0.00    +0.000 A 
ATOM     30  C   UNL     1      -6.961  13.969  23.029  0.00  0.00    +0.000 A 
ATOM     31  C   UNL     1      -6.422  13.141  22.039  0.00  0.00    +0.000 A 
ATOM     32  C   UNL     1      -5.041  13.186  21.876  0.00  0.00    +0.000 A 
ATOM     33  O   UNL     1      -4.330  12.462  20.971  0.00  0.00    +0.000 OA
ENDBRANCH  24  25
ENDBRANCH   8  24
TORSDOF 3
ENDMDL
MODEL 4
REMARK VINA RESULT:      -8.1      3.249     10.712
REMARK  Name = 
REMARK  3 active torsions:
REMARK  status: ('A' for Active; 'I' for Inactive)
REMARK    1  A    between atoms: N_8  and  C_9
REMARK    2  A    between atoms: C_9  and  C_10
REMARK    3  A    between atoms: C_24  and  C_25
REMARK                            x       y       z     vdW  Elec       q    Type
REMARK                         _______ _______ _______ _____ _____    ______ ____
ROOT
ATOM      1  N   UNL     1       0.421   9.571  23.295  0.00  0.00    +0.000 N 
ATOM      2  C   UNL     1       0.791   9.331  21.997  0.00  0.00    +0.000 A 
ATOM      3  N   UNL     1       1.096   8.146  21.567  0.00  0.00    +0.000 NA
ATOM      4  C   UNL     1       1.449   7.965  20.238  0.00  0.00    +0.000 A 
ATOM      5  N   UNL     1       1.772   6.683  19.843  0.00  0.00    +0.000 N 
ATOM      6  C   UNL     1       1.822   5.577  20.805  0.00  0.00    +0.000 C 
ATOM      7  C   UNL     1       1.443   4.242  20.125  0.00  0.00    +0.000 C 
ATOM      8  N   UNL     1       2.211   3.919  18.899  0.00  0.00    +0.000 NA
ATOM      9  C   UNL     1       2.104   5.081  17.980  0.00  0.00    +0.000 C 
ATOM     10  C   UNL     1       2.503   6.441  18.589  0.00  0.00    +0.000 C 
ATOM     11  N   UNL     1       1.476   8.940  19.363  0.00  0.00    +0.000 NA
ATOM     12  C   UNL     1       1.156  10.180  19.792  0.00  0.00    +0.000 A 
ATOM     13  N   UNL     1       1.065  11.332  19.165  0.00  0.00    +0.000 NA
ATOM     14  C   UNL     1       0.766  12.226  20.175  0.00  0.00    +0.000 A 
ATOM     15  N   UNL     1       0.646  11.682  21.398  0.00  0.00    +0.000 NA
ATOM     16  N   UNL     1       0.853  10.387  21.099  0.00  0.00    +0.000 N 
ATOM     17  H   UNL     1       0.643   8.850  23.968  0.00  0.00    +0.000 HD
ATOM     18  H   UNL     1       0.487  10.534  23.619  0.00  0.00    +0.000 HD
ENDROOT
BRANCH  14  19
ATOM     19  C   UNL     1       0.604  13.687  19.921  0.00  0.00    +0.000 A 
ATOM     20  C   UNL     1      -0.447  14.273  19.242  0.00  0.00    +0.000 A 
ATOM     21  C   UNL     1      -0.200  15.667  19.229  0.00  0.00    +0.000 A 
ATOM     22  C   UNL     1       0.992  15.847  19.888  0.00  0.00    +0.000 A 
ATOM     23  O   UNL     1       1.480  14.659  20.326  0.00  0.00    +0.000 OA
ENDBRANCH  14  19
BRANCH   8  24
ATOM     24  C   UNL     1       3.605   3.590  19.247  0.00  0.00    +0.000 C 
BRANCH  24  25
ATOM     25  C   UNL     1       4.583   3.963  18.190  0.00  0.00    +0.000 A 
ATOM     26  C   UNL     1       5.759   4.686  18.187  0.00  0.00    +0.000 A 
ATOM     27  C   UNL     1       6.225   4.697  16.847  0.00  0.00    +0.000 A 
ATOM     28  C   UNL     1       7.331   5.236  16.171  0.00  0.00    +0.000 A 
ATOM     29  C   UNL     1       7.445   5.026  14.789  0.00  0.00    +0.000 A 
ATOM     30  C   UNL     1       6.481   4.291  14.089  0.00  0.00    +0.000 A 
ATOM     31  C   UNL     1       5.375   3.743  14.746  0.00  0.00    +0.000 A 
ATOM     32  C   UNL     1       5.291   3.970  16.116  0.00  0.00    +0.000 A 
ATOM     33  O   UNL     1       4.298   3.523  16.930  0.00  0.00    +0.000 OA
ENDBRANCH  24  25
ENDBRANCH   8  24
TORSDOF 3
ENDMDL
MODEL 5
REMARK VINA RESULT:      -8.0      1.384      1.561
REMARK  Name = 
REMARK  3 active torsions:
REMARK  status: ('A' for Active; 'I' for Inactive)
REMARK    1  A    between atoms: N_8  and  C_9
REMARK    2  A    between atoms: C_9  and  C_10
REMARK    3  A    between atoms: C_24  and  C_25
REMARK                            x       y       z     vdW  Elec       q    Type
REMARK                         _______ _______ _______ _____ _____    ______ ____
ROOT
ATOM      1  N   UNL     1       2.225   5.678  20.925  0.00  0.00    +0.000 N 
ATOM      2  C   UNL     1       2.176   6.757  20.080  0.00  0.00    +0.000 A 
ATOM      3  N   UNL     1       1.481   7.818  20.346  0.00  0.00    +0.000 NA
ATOM      4  C   UNL     1       1.483   8.884  19.457  0.00  0.00    +0.000 A 
ATOM      5  N   UNL     1       0.717   9.981  19.791  0.00  0.00    +0.000 N 
ATOM      6  C   UNL     1      -0.129   9.987  20.989  0.00  0.00    +0.000 C 
ATOM      7  C   UNL     1      -0.256  11.417  21.563  0.00  0.00    +0.000 C 
ATOM      8  N   UNL     1      -0.696  12.448  20.593  0.00  0.00    +0.000 NA
ATOM      9  C   UNL     1       0.212  12.380  19.420  0.00  0.00    +0.000 C 
ATOM     10  C   UNL     1       0.355  10.985  18.777  0.00  0.00    +0.000 C 
ATOM     11  N   UNL     1       2.177   8.890  18.346  0.00  0.00    +0.000 NA
ATOM     12  C   UNL     1       2.912   7.794  18.057  0.00  0.00    +0.000 A 
ATOM     13  N   UNL     1       3.717   7.514  17.056  0.00  0.00    +0.000 NA
ATOM     14  C   UNL     1       4.102   6.210  17.307  0.00  0.00    +0.000 A 
ATOM     15  N   UNL     1       3.591   5.673  18.428  0.00  0.00    +0.000 NA
ATOM     16  N   UNL     1       2.887   6.722  18.889  0.00  0.00    +0.000 N 
ATOM     17  H   UNL     1       1.503   5.625  21.631  0.00  0.00    +0.000 HD
ATOM     18  H   UNL     1       2.537   4.796  20.524  0.00  0.00    +0.000 HD
ENDROOT
BRANCH  14  19
ATOM     19  C   UNL     1       5.007   5.458  16.390  0.00  0.00    +0.000 A 
ATOM     20  C   UNL     1       5.153   4.085  16.355  0.00  0.00    +0.000 A 
ATOM     21  C   UNL     1       6.108   3.800  15.348  0.00  0.00    +0.000 A 
ATOM     22  C   UNL     1       6.496   5.016  14.840  0.00  0.00    +0.000 A 
ATOM     23  O   UNL     1       5.825   6.026  15.450  0.00  0.00    +0.000 OA
ENDBRANCH  14  19
BRANCH   8  24
ATOM     24  C   UNL     1      -2.111  12.237  20.237  0.00  0.00    +0.000 C 
BRANCH  24  25
ATOM     25  C   UNL     1      -3.058  12.965  21.124  0.00  0.00    +0.000 A 
ATOM     26  C   UNL     1      -4.352  12.726  21.542  0.00  0.00    +0.000 A 
ATOM     27  C   UNL     1      -4.712  13.810  22.384  0.00  0.00    +0.000 A 
ATOM     28  C   UNL     1      -5.851  14.177  23.119  0.00  0.00    +0.000 A 
ATOM     29  C   UNL     1      -5.822  15.371  23.854  0.00  0.00    +0.000 A 
ATOM     30  C   UNL     1      -4.685  16.185  23.865  0.00  0.00    +0.000 A 
ATOM     31  C   UNL     1      -3.539  15.834  23.143  0.00  0.00    +0.000 A 
ATOM     32  C   UNL     1      -3.601  14.644  22.423  0.00  0.00    +0.000 A 
ATOM     33  O   UNL     1      -2.597  14.131  21.662  0.00  0.00    +0.000 OA
ENDBRANCH  24  25
ENDBRANCH   8  24
TORSDOF 3
ENDMDL
MODEL 6
REMARK VINA RESULT:      -8.0      2.005      2.624
REMARK  Name = 
REMARK  3 active torsions:
REMARK  status: ('A' for Active; 'I' for Inactive)
REMARK    1  A    between atoms: N_8  and  C_9
REMARK    2  A    between atoms: C_9  and  C_10
REMARK    3  A    between atoms: C_24  and  C_25
REMARK                            x       y       z     vdW  Elec       q    Type
REMARK                         _______ _______ _______ _____ _____    ______ ____
ROOT
ATOM      1  N   UNL     1       1.834   6.611  21.283  0.00  0.00    +0.000 N 
ATOM      2  C   UNL     1       1.679   7.573  20.319  0.00  0.00    +0.000 A 
ATOM      3  N   UNL     1       0.892   8.592  20.474  0.00  0.00    +0.000 NA
ATOM      4  C   UNL     1       0.789   9.542  19.467  0.00  0.00    +0.000 A 
ATOM      5  N   UNL     1      -0.071  10.598  19.686  0.00  0.00    +0.000 N 
ATOM      6  C   UNL     1      -0.902  10.669  20.892  0.00  0.00    +0.000 C 
ATOM      7  C   UNL     1      -1.154  12.139  21.299  0.00  0.00    +0.000 C 
ATOM      8  N   UNL     1      -1.696  13.006  20.224  0.00  0.00    +0.000 NA
ATOM      9  C   UNL     1      -0.796  12.881  19.049  0.00  0.00    +0.000 C 
ATOM     10  C   UNL     1      -0.533  11.439  18.570  0.00  0.00    +0.000 C 
ATOM     11  N   UNL     1       1.469   9.479  18.349  0.00  0.00    +0.000 NA
ATOM     12  C   UNL     1       2.298   8.427  18.174  0.00  0.00    +0.000 A 
ATOM     13  N   UNL     1       3.116   8.104  17.197  0.00  0.00    +0.000 NA
ATOM     14  C   UNL     1       3.621   6.880  17.590  0.00  0.00    +0.000 A 
ATOM     15  N   UNL     1       3.171   6.434  18.776  0.00  0.00    +0.000 NA
ATOM     16  N   UNL     1       2.379   7.463  19.126  0.00  0.00    +0.000 N 
ATOM     17  H   UNL     1       1.127   6.576  22.004  0.00  0.00    +0.000 HD
ATOM     18  H   UNL     1       2.221   5.718  20.980  0.00  0.00    +0.000 HD
ENDROOT
BRANCH  14  19
ATOM     19  C   UNL     1       4.581   6.109  16.749  0.00  0.00    +0.000 A 
ATOM     20  C   UNL     1       4.988   4.809  16.981  0.00  0.00    +0.000 A 
ATOM     21  C   UNL     1       5.900   4.475  15.950  0.00  0.00    +0.000 A 
ATOM     22  C   UNL     1       6.005   5.595  15.160  0.00  0.00    +0.000 A 
ATOM     23  O   UNL     1       5.200   6.584  15.624  0.00  0.00    +0.000 OA
ENDBRANCH  14  19
BRANCH   8  24
ATOM     24  C   UNL     1      -3.089  12.629  19.924  0.00  0.00    +0.000 C 
BRANCH  24  25
ATOM     25  C   UNL     1      -4.075  13.199  20.880  0.00  0.00    +0.000 A 
ATOM     26  C   UNL     1      -4.302  14.467  21.378  0.00  0.00    +0.000 A 
ATOM     27  C   UNL     1      -5.397  14.360  22.274  0.00  0.00    +0.000 A 
ATOM     28  C   UNL     1      -6.117  15.246  23.092  0.00  0.00    +0.000 A 
ATOM     29  C   UNL     1      -7.173  14.742  23.864  0.00  0.00    +0.000 A 
ATOM     30  C   UNL     1      -7.513  13.385  23.825  0.00  0.00    +0.000 A 
ATOM     31  C   UNL     1      -6.811  12.489  23.013  0.00  0.00    +0.000 A 
ATOM     32  C   UNL     1      -5.768  13.020  22.261  0.00  0.00    +0.000 A 
ATOM     33  O   UNL     1      -4.969  12.317  21.414  0.00  0.00    +0.000 OA
ENDBRANCH  24  25
ENDBRANCH   8  24
TORSDOF 3
ENDMDL
MODEL 7
REMARK VINA RESULT:      -7.9      1.554      1.989
REMARK  Name = 
REMARK  3 active torsions:
REMARK  status: ('A' for Active; 'I' for Inactive)
REMARK    1  A    between atoms: N_8  and  C_9
REMARK    2  A    between atoms: C_9  and  C_10
REMARK    3  A    between atoms: C_24  and  C_25
REMARK                            x       y       z     vdW  Elec       q    Type
REMARK                         _______ _______ _______ _____ _____    ______ ____
ROOT
ATOM      1  N   UNL     1       2.890   4.632  19.879  0.00  0.00    +0.000 N 
ATOM      2  C   UNL     1       2.863   5.849  19.248  0.00  0.00    +0.000 A 
ATOM      3  N   UNL     1       2.189   6.856  19.707  0.00  0.00    +0.000 NA
ATOM      4  C   UNL     1       2.213   8.067  19.030  0.00  0.00    +0.000 A 
ATOM      5  N   UNL     1       1.468   9.100  19.561  0.00  0.00    +0.000 N 
ATOM      6  C   UNL     1       0.620   8.900  20.741  0.00  0.00    +0.000 C 
ATOM      7  C   UNL     1       0.519  10.201  21.569  0.00  0.00    +0.000 C 
ATOM      8  N   UNL     1       0.101  11.403  20.807  0.00  0.00    +0.000 NA
ATOM      9  C   UNL     1       1.011  11.535  19.640  0.00  0.00    +0.000 C 
ATOM     10  C   UNL     1       1.128  10.280  18.751  0.00  0.00    +0.000 C 
ATOM     11  N   UNL     1       2.910   8.265  17.938  0.00  0.00    +0.000 NA
ATOM     12  C   UNL     1       3.624   7.227  17.450  0.00  0.00    +0.000 A 
ATOM     13  N   UNL     1       4.426   7.121  16.414  0.00  0.00    +0.000 NA
ATOM     14  C   UNL     1       4.785   5.787  16.420  0.00  0.00    +0.000 A 
ATOM     15  N   UNL     1       4.260   5.062  17.422  0.00  0.00    +0.000 NA
ATOM     16  N   UNL     1       3.577   6.021  18.071  0.00  0.00    +0.000 N 
ATOM     17  H   UNL     1       2.165   4.463  20.564  0.00  0.00    +0.000 HD
ATOM     18  H   UNL     1       3.185   3.833  19.321  0.00  0.00    +0.000 HD
ENDROOT
BRANCH  14  19
ATOM     19  C   UNL     1       5.677   5.199  15.378  0.00  0.00    +0.000 A 
ATOM     20  C   UNL     1       5.303   4.257  14.440  0.00  0.00    +0.000 A 
ATOM     21  C   UNL     1       6.451   3.978  13.659  0.00  0.00    +0.000 A 
ATOM     22  C   UNL     1       7.459   4.756  14.176  0.00  0.00    +0.000 A 
ATOM     23  O   UNL     1       6.999   5.512  15.206  0.00  0.00    +0.000 OA
ENDBRANCH  14  19
BRANCH   8  24
ATOM     24  C   UNL     1      -1.316  11.289  20.420  0.00  0.00    +0.000 C 
BRANCH  24  25
ATOM     25  C   UNL     1      -2.236  12.042  21.315  0.00  0.00    +0.000 A 
ATOM     26  C   UNL     1      -2.263  12.282  22.675  0.00  0.00    +0.000 A 
ATOM     27  C   UNL     1      -3.417  13.070  22.923  0.00  0.00    +0.000 A 
ATOM     28  C   UNL     1      -4.016  13.646  24.055  0.00  0.00    +0.000 A 
ATOM     29  C   UNL     1      -5.199  14.382  23.890  0.00  0.00    +0.000 A 
ATOM     30  C   UNL     1      -5.776  14.547  22.626  0.00  0.00    +0.000 A 
ATOM     31  C   UNL     1      -5.190  13.985  21.487  0.00  0.00    +0.000 A 
ATOM     32  C   UNL     1      -4.019  13.260  21.685  0.00  0.00    +0.000 A 
ATOM     33  O   UNL     1      -3.302  12.641  20.710  0.00  0.00    +0.000 OA
ENDBRANCH  24  25
ENDBRANCH   8  24
TORSDOF 3
ENDMDL
MODEL 8
REMARK VINA RESULT:      -7.8      1.375      1.796
REMARK  Name = 
REMARK  3 active torsions:
REMARK  status: ('A' for Active; 'I' for Inactive)
REMARK    1  A    between atoms: N_8  and  C_9
REMARK    2  A    between atoms: C_9  and  C_10
REMARK    3  A    between atoms: C_24  and  C_25
REMARK                            x       y       z     vdW  Elec       q    Type
REMARK                         _______ _______ _______ _____ _____    ______ ____
ROOT
ATOM      1  N   UNL     1       3.284   3.959  19.727  0.00  0.00    +0.000 N 
ATOM      2  C   UNL     1       3.202   5.238  19.239  0.00  0.00    +0.000 A 
ATOM      3  N   UNL     1       2.561   6.179  19.858  0.00  0.00    +0.000 NA
ATOM      4  C   UNL     1       2.527   7.458  19.320  0.00  0.00    +0.000 A 
ATOM      5  N   UNL     1       1.821   8.415  20.019  0.00  0.00    +0.000 N 
ATOM      6  C   UNL     1       1.069   8.075  21.231  0.00  0.00    +0.000 C 
ATOM      7  C   UNL     1       1.028   9.276  22.205  0.00  0.00    +0.000 C 
ATOM      8  N   UNL     1       0.546  10.549  21.616  0.00  0.00    +0.000 NA
ATOM      9  C   UNL     1       1.360  10.820  20.403  0.00  0.00    +0.000 C 
ATOM     10  C   UNL     1       1.412   9.673  19.374  0.00  0.00    +0.000 C 
ATOM     11  N   UNL     1       3.134   7.784  18.206  0.00  0.00    +0.000 NA
ATOM     12  C   UNL     1       3.812   6.816  17.551  0.00  0.00    +0.000 A 
ATOM     13  N   UNL     1       4.530   6.836  16.450  0.00  0.00    +0.000 NA
ATOM     14  C   UNL     1       4.895   5.514  16.280  0.00  0.00    +0.000 A 
ATOM     15  N   UNL     1       4.454   4.676  17.234  0.00  0.00    +0.000 NA
ATOM     16  N   UNL     1       3.819   5.548  18.036  0.00  0.00    +0.000 N 
ATOM     17  H   UNL     1       2.616   3.706  20.443  0.00  0.00    +0.000 HD
ATOM     18  H   UNL     1       3.537   3.230  19.063  0.00  0.00    +0.000 HD
ENDROOT
BRANCH  14  19
ATOM     19  C   UNL     1       5.704   5.057  15.114  0.00  0.00    +0.000 A 
ATOM     20  C   UNL     1       5.336   4.072  14.216  0.00  0.00    +0.000 A 
ATOM     21  C   UNL     1       6.391   3.957  13.279  0.00  0.00    +0.000 A 
ATOM     22  C   UNL     1       7.345   4.866  13.668  0.00  0.00    +0.000 A 
ATOM     23  O   UNL     1       6.934   5.549  14.766  0.00  0.00    +0.000 OA
ENDBRANCH  14  19
BRANCH   8  24
ATOM     24  C   UNL     1      -0.897  10.459  21.330  0.00  0.00    +0.000 C 
BRANCH  24  25
ATOM     25  C   UNL     1      -1.648  11.692  21.687  0.00  0.00    +0.000 A 
ATOM     26  C   UNL     1      -1.851  12.904  21.057  0.00  0.00    +0.000 A 
ATOM     27  C   UNL     1      -2.661  13.681  21.926  0.00  0.00    +0.000 A 
ATOM     28  C   UNL     1      -3.221  14.969  21.895  0.00  0.00    +0.000 A 
ATOM     29  C   UNL     1      -3.990  15.395  22.987  0.00  0.00    +0.000 A 
ATOM     30  C   UNL     1      -4.204  14.560  24.090  0.00  0.00    +0.000 A 
ATOM     31  C   UNL     1      -3.658  13.273  24.136  0.00  0.00    +0.000 A 
ATOM     32  C   UNL     1      -2.900  12.881  23.038  0.00  0.00    +0.000 A 
ATOM     33  O   UNL     1      -2.289  11.675  22.892  0.00  0.00    +0.000 OA
ENDBRANCH  24  25
ENDBRANCH   8  24
TORSDOF 3
ENDMDL
MODEL 9
REMARK VINA RESULT:      -7.8      1.523      2.240
REMARK  Name = 
REMARK  3 active torsions:
REMARK  status: ('A' for Active; 'I' for Inactive)
REMARK    1  A    between atoms: N_8  and  C_9
REMARK    2  A    between atoms: C_9  and  C_10
REMARK    3  A    between atoms: C_24  and  C_25
REMARK                            x       y       z     vdW  Elec       q    Type
REMARK                         _______ _______ _______ _____ _____    ______ ____
ROOT
ATOM      1  N   UNL     1       3.661   3.857  19.479  0.00  0.00    +0.000 N 
ATOM      2  C   UNL     1       3.510   5.118  18.964  0.00  0.00    +0.000 A 
ATOM      3  N   UNL     1       2.851   6.048  19.582  0.00  0.00    +0.000 NA
ATOM      4  C   UNL     1       2.745   7.310  19.015  0.00  0.00    +0.000 A 
ATOM      5  N   UNL     1       2.022   8.254  19.715  0.00  0.00    +0.000 N 
ATOM      6  C   UNL     1       1.326   7.914  20.960  0.00  0.00    +0.000 C 
ATOM      7  C   UNL     1       1.266   9.136  21.906  0.00  0.00    +0.000 C 
ATOM      8  N   UNL     1       0.711  10.372  21.303  0.00  0.00    +0.000 NA
ATOM      9  C   UNL     1       1.473  10.647  20.058  0.00  0.00    +0.000 C 
ATOM     10  C   UNL     1       1.541   9.477  19.055  0.00  0.00    +0.000 C 
ATOM     11  N   UNL     1       3.302   7.633  17.874  0.00  0.00    +0.000 NA
ATOM     12  C   UNL     1       3.998   6.678  17.220  0.00  0.00    +0.000 A 
ATOM     13  N   UNL     1       4.679   6.700  16.096  0.00  0.00    +0.000 NA
ATOM     14  C   UNL     1       5.093   5.390  15.944  0.00  0.00    +0.000 A 
ATOM     15  N   UNL     1       4.719   4.559  16.932  0.00  0.00    +0.000 NA
ATOM     16  N   UNL     1       4.074   5.424  17.734  0.00  0.00    +0.000 N 
ATOM     17  H   UNL     1       3.029   3.594  20.223  0.00  0.00    +0.000 HD
ATOM     18  H   UNL     1       3.924   3.123  18.824  0.00  0.00    +0.000 HD
ENDROOT
BRANCH  14  19
ATOM     19  C   UNL     1       5.882   4.939  14.763  0.00  0.00    +0.000 A 
ATOM     20  C   UNL     1       5.513   3.937  13.885  0.00  0.00    +0.000 A 
ATOM     21  C   UNL     1       6.546   3.834  12.922  0.00  0.00    +0.000 A 
ATOM     22  C   UNL     1       7.490   4.768  13.278  0.00  0.00    +0.000 A 
ATOM     23  O   UNL     1       7.092   5.454  14.379  0.00  0.00    +0.000 OA
ENDBRANCH  14  19
BRANCH   8  24
ATOM     24  C   UNL     1      -0.735  10.216  21.068  0.00  0.00    +0.000 C 
BRANCH  24  25
ATOM     25  C   UNL     1      -1.560  11.246  21.754  0.00  0.00    +0.000 A 
ATOM     26  C   UNL     1      -1.857  11.509  23.077  0.00  0.00    +0.000 A 
ATOM     27  C   UNL     1      -2.718  12.637  23.083  0.00  0.00    +0.000 A 
ATOM     28  C   UNL     1      -3.369  13.400  24.065  0.00  0.00    +0.000 A 
ATOM     29  C   UNL     1      -4.167  14.480  23.661  0.00  0.00    +0.000 A 
ATOM     30  C   UNL     1      -4.315  14.801  22.307  0.00  0.00    +0.000 A 
ATOM     31  C   UNL     1      -3.670  14.056  21.314  0.00  0.00    +0.000 A 
ATOM     32  C   UNL     1      -2.887  12.990  21.749  0.00  0.00    +0.000 A 
ATOM     33  O   UNL     1      -2.183  12.150  20.944  0.00  0.00    +0.000 OA
ENDBRANCH  24  25
ENDBRANCH   8  24
TORSDOF 3
ENDMDL
