MODEL 1
REMARK VINA RESULT:      -6.6      0.000      0.000
REMARK  Name = 
REMARK  4 active torsions:
REMARK  status: ('A' for Active; 'I' for Inactive)
REMARK    1  A    between atoms: C_1  and  C_2
REMARK    2  A    between atoms: N_9  and  C_10
REMARK    3  A    between atoms: C_10  and  C_11
REMARK    4  A    between atoms: C_17  and  C_18
REMARK                            x       y       z     vdW  Elec       q    Type
REMARK                         _______ _______ _______ _____ _____    ______ ____
ROOT
ATOM      1  C   UNL     1       5.038   4.164  15.964  0.00  0.00    +0.000 C 
ATOM      2  C   UNL     1       4.111   4.203  17.139  0.00  0.00    +0.000 A 
ATOM      3  S   UNL     1       3.372   2.772  17.681  0.00  0.00    +0.000 S 
ATOM      4  C   UNL     1       2.561   3.585  18.931  0.00  0.00    +0.000 A 
ATOM      5  N   UNL     1       1.762   2.882  19.751  0.00  0.00    +0.000 NA
ATOM      6  C   UNL     1       1.205   3.645  20.688  0.00  0.00    +0.000 A 
ATOM      7  N   UNL     1       1.365   4.968  20.865  0.00  0.00    +0.000 NA
ATOM      8  C   UNL     1       2.186   5.654  20.033  0.00  0.00    +0.000 A 
ATOM      9  N   UNL     1       2.396   7.004  20.288  0.00  0.00    +0.000 N 
ATOM     10  C   UNL     1       2.831   4.949  18.979  0.00  0.00    +0.000 A 
ATOM     11  C   UNL     1       3.746   5.314  17.892  0.00  0.00    +0.000 A 
ATOM     12  C   UNL     1       4.277   6.671  17.544  0.00  0.00    +0.000 C 
ATOM     13  H   UNL     1       2.760   7.502  19.496  0.00  0.00    +0.000 HD
ENDROOT
BRANCH   9  14
ATOM     14  C   UNL     1       1.331   7.762  20.926  0.00  0.00    +0.000 C 
BRANCH  14  15
ATOM     15  C   UNL     1       1.009   9.015  20.143  0.00  0.00    +0.000 A 
ATOM     16  C   UNL     1       1.420   9.359  18.869  0.00  0.00    +0.000 A 
ATOM     17  C   UNL     1       0.895  10.618  18.447  0.00  0.00    +0.000 A 
ATOM     18  C   UNL     1       0.090  11.188  19.407  0.00  0.00    +0.000 A 
ATOM     19  S   UNL     1      -0.038  10.205  20.802  0.00  0.00    +0.000 S 
ENDBRANCH  14  15
ENDBRANCH   9  14
TORSDOF 2
ENDMDL
MODEL 2
REMARK VINA RESULT:      -6.4      0.824      1.006
REMARK  Name = 
REMARK  4 active torsions:
REMARK  status: ('A' for Active; 'I' for Inactive)
REMARK    1  A    between atoms: C_1  and  C_2
REMARK    2  A    between atoms: N_9  and  C_10
REMARK    3  A    between atoms: C_10  and  C_11
REMARK    4  A    between atoms: C_17  and  C_18
REMARK                            x       y       z     vdW  Elec       q    Type
REMARK                         _______ _______ _______ _____ _____    ______ ____
ROOT
ATOM      1  C   UNL     1       5.063   4.057  15.919  0.00  0.00    +0.000 C 
ATOM      2  C   UNL     1       4.124   4.119  17.082  0.00  0.00    +0.000 A 
ATOM      3  S   UNL     1       3.306   2.716  17.585  0.00  0.00    +0.000 S 
ATOM      4  C   UNL     1       2.520   3.543  18.842  0.00  0.00    +0.000 A 
ATOM      5  N   UNL     1       1.677   2.865  19.637  0.00  0.00    +0.000 NA
ATOM      6  C   UNL     1       1.146   3.635  20.583  0.00  0.00    +0.000 A 
ATOM      7  N   UNL     1       1.370   4.944  20.790  0.00  0.00    +0.000 NA
ATOM      8  C   UNL     1       2.236   5.605  19.984  0.00  0.00    +0.000 A 
ATOM      9  N   UNL     1       2.511   6.937  20.270  0.00  0.00    +0.000 N 
ATOM     10  C   UNL     1       2.859   4.890  18.922  0.00  0.00    +0.000 A 
ATOM     11  C   UNL     1       3.805   5.231  17.855  0.00  0.00    +0.000 A 
ATOM     12  C   UNL     1       4.409   6.566  17.542  0.00  0.00    +0.000 C 
ATOM     13  H   UNL     1       2.910   7.432  19.493  0.00  0.00    +0.000 HD
ENDROOT
BRANCH   9  14
ATOM     14  C   UNL     1       1.477   7.734  20.911  0.00  0.00    +0.000 C 
BRANCH  14  15
ATOM     15  C   UNL     1       1.026   8.866  20.014  0.00  0.00    +0.000 A 
ATOM     16  C   UNL     1       0.132   9.880  20.299  0.00  0.00    +0.000 A 
ATOM     17  C   UNL     1      -0.031  10.786  19.208  0.00  0.00    +0.000 A 
ATOM     18  C   UNL     1       0.752  10.442  18.131  0.00  0.00    +0.000 A 
ATOM     19  S   UNL     1       1.685   9.040  18.439  0.00  0.00    +0.000 S 
ENDBRANCH  14  15
ENDBRANCH   9  14
TORSDOF 2
ENDMDL
MODEL 3
REMARK VINA RESULT:      -6.1      1.547      1.866
REMARK  Name = 
REMARK  4 active torsions:
REMARK  status: ('A' for Active; 'I' for Inactive)
REMARK    1  A    between atoms: C_1  and  C_2
REMARK    2  A    between atoms: N_9  and  C_10
REMARK    3  A    between atoms: C_10  and  C_11
REMARK    4  A    between atoms: C_17  and  C_18
REMARK                            x       y       z     vdW  Elec       q    Type
REMARK                         _______ _______ _______ _____ _____    ______ ____
ROOT
ATOM      1  C   UNL     1       5.163   6.126  15.793  0.00  0.00    +0.000 C 
ATOM      2  C   UNL     1       4.464   5.670  17.034  0.00  0.00    +0.000 A 
ATOM      3  S   UNL     1       4.583   4.046  17.523  0.00  0.00    +0.000 S 
ATOM      4  C   UNL     1       3.613   4.316  18.889  0.00  0.00    +0.000 A 
ATOM      5  N   UNL     1       3.352   3.287  19.713  0.00  0.00    +0.000 NA
ATOM      6  C   UNL     1       2.593   3.648  20.745  0.00  0.00    +0.000 A 
ATOM      7  N   UNL     1       2.101   4.871  21.008  0.00  0.00    +0.000 NA
ATOM      8  C   UNL     1       2.388   5.896  20.170  0.00  0.00    +0.000 A 
ATOM      9  N   UNL     1       1.935   7.165  20.508  0.00  0.00    +0.000 N 
ATOM     10  C   UNL     1       3.183   5.633  19.019  0.00  0.00    +0.000 A 
ATOM     11  C   UNL     1       3.682   6.432  17.896  0.00  0.00    +0.000 A 
ATOM     12  C   UNL     1       3.440   7.884  17.610  0.00  0.00    +0.000 C 
ATOM     13  H   UNL     1       1.923   7.800  19.731  0.00  0.00    +0.000 HD
ENDROOT
BRANCH   9  14
ATOM     14  C   UNL     1       0.708   7.278  21.281  0.00  0.00    +0.000 C 
BRANCH  14  15
ATOM     15  C   UNL     1       0.333   8.727  21.500  0.00  0.00    +0.000 A 
ATOM     16  C   UNL     1      -0.242   9.304  22.617  0.00  0.00    +0.000 A 
ATOM     17  C   UNL     1      -0.432  10.711  22.468  0.00  0.00    +0.000 A 
ATOM     18  C   UNL     1       0.014  11.164  21.248  0.00  0.00    +0.000 A 
ATOM     19  S   UNL     1       0.666   9.902  20.294  0.00  0.00    +0.000 S 
ENDBRANCH  14  15
ENDBRANCH   9  14
TORSDOF 2
ENDMDL
MODEL 4
REMARK VINA RESULT:      -6.0      2.073      3.382
REMARK  Name = 
REMARK  4 active torsions:
REMARK  status: ('A' for Active; 'I' for Inactive)
REMARK    1  A    between atoms: C_1  and  C_2
REMARK    2  A    between atoms: N_9  and  C_10
REMARK    3  A    between atoms: C_10  and  C_11
REMARK    4  A    between atoms: C_17  and  C_18
REMARK                            x       y       z     vdW  Elec       q    Type
REMARK                         _______ _______ _______ _____ _____    ______ ____
ROOT
ATOM      1  C   UNL     1       2.293   2.683  21.414  0.00  0.00    +0.000 C 
ATOM      2  C   UNL     1       2.858   3.585  20.361  0.00  0.00    +0.000 A 
ATOM      3  S   UNL     1       4.240   3.109  19.494  0.00  0.00    +0.000 S 
ATOM      4  C   UNL     1       4.237   4.537  18.576  0.00  0.00    +0.000 A 
ATOM      5  N   UNL     1       5.192   4.713  17.648  0.00  0.00    +0.000 NA
ATOM      6  C   UNL     1       5.058   5.867  16.999  0.00  0.00    +0.000 A 
ATOM      7  N   UNL     1       4.111   6.803  17.186  0.00  0.00    +0.000 NA
ATOM      8  C   UNL     1       3.150   6.597  18.118  0.00  0.00    +0.000 A 
ATOM      9  N   UNL     1       2.138   7.542  18.235  0.00  0.00    +0.000 N 
ATOM     10  C   UNL     1       3.194   5.402  18.890  0.00  0.00    +0.000 A 
ATOM     11  C   UNL     1       2.384   4.833  19.972  0.00  0.00    +0.000 A 
ATOM     12  C   UNL     1       1.186   5.431  20.647  0.00  0.00    +0.000 C 
ATOM     13  H   UNL     1       1.645   7.486  19.108  0.00  0.00    +0.000 HD
ENDROOT
BRANCH   9  14
ATOM     14  C   UNL     1       2.442   8.926  17.905  0.00  0.00    +0.000 C 
BRANCH  14  15
ATOM     15  C   UNL     1       1.246   9.820  18.146  0.00  0.00    +0.000 A 
ATOM     16  C   UNL     1      -0.090   9.542  17.926  0.00  0.00    +0.000 A 
ATOM     17  C   UNL     1      -0.941  10.627  18.294  0.00  0.00    +0.000 A 
ATOM     18  C   UNL     1      -0.230  11.692  18.796  0.00  0.00    +0.000 A 
ATOM     19  S   UNL     1       1.453  11.381  18.829  0.00  0.00    +0.000 S 
ENDBRANCH  14  15
ENDBRANCH   9  14
TORSDOF 2
ENDMDL
MODEL 5
REMARK VINA RESULT:      -5.9      1.943      3.333
REMARK  Name = 
REMARK  4 active torsions:
REMARK  status: ('A' for Active; 'I' for Inactive)
REMARK    1  A    between atoms: C_1  and  C_2
REMARK    2  A    between atoms: N_9  and  C_10
REMARK    3  A    between atoms: C_10  and  C_11
REMARK    4  A    between atoms: C_17  and  C_18
REMARK                            x       y       z     vdW  Elec       q    Type
REMARK                         _______ _______ _______ _____ _____    ______ ____
ROOT
ATOM      1  C   UNL     1       2.234   2.382  21.577  0.00  0.00    +0.000 C 
ATOM      2  C   UNL     1       2.843   3.215  20.493  0.00  0.00    +0.000 A 
ATOM      3  S   UNL     1       4.247   2.675  19.700  0.00  0.00    +0.000 S 
ATOM      4  C   UNL     1       4.292   4.047  18.702  0.00  0.00    +0.000 A 
ATOM      5  N   UNL     1       5.278   4.160  17.798  0.00  0.00    +0.000 NA
ATOM      6  C   UNL     1       5.180   5.276  17.080  0.00  0.00    +0.000 A 
ATOM      7  N   UNL     1       4.239   6.231  17.182  0.00  0.00    +0.000 NA
ATOM      8  C   UNL     1       3.245   6.090  18.092  0.00  0.00    +0.000 A 
ATOM      9  N   UNL     1       2.242   7.051  18.121  0.00  0.00    +0.000 N 
ATOM     10  C   UNL     1       3.250   4.941  18.932  0.00  0.00    +0.000 A 
ATOM     11  C   UNL     1       2.398   4.444  20.017  0.00  0.00    +0.000 A 
ATOM     12  C   UNL     1       1.187   5.092  20.617  0.00  0.00    +0.000 C 
ATOM     13  H   UNL     1       1.721   7.050  18.979  0.00  0.00    +0.000 HD
ENDROOT
BRANCH   9  14
ATOM     14  C   UNL     1       2.574   8.410  17.723  0.00  0.00    +0.000 C 
BRANCH  14  15
ATOM     15  C   UNL     1       1.841   9.422  18.574  0.00  0.00    +0.000 A 
ATOM     16  C   UNL     1       1.645  10.768  18.326  0.00  0.00    +0.000 A 
ATOM     17  C   UNL     1       0.881  11.405  19.349  0.00  0.00    +0.000 A 
ATOM     18  C   UNL     1       0.507  10.524  20.338  0.00  0.00    +0.000 A 
ATOM     19  S   UNL     1       1.068   8.938  20.027  0.00  0.00    +0.000 S 
ENDBRANCH  14  15
ENDBRANCH   9  14
TORSDOF 2
ENDMDL
MODEL 6
REMARK VINA RESULT:      -5.9      2.036      3.374
REMARK  Name = 
REMARK  4 active torsions:
REMARK  status: ('A' for Active; 'I' for Inactive)
REMARK    1  A    between atoms: C_1  and  C_2
REMARK    2  A    between atoms: N_9  and  C_10
REMARK    3  A    between atoms: C_10  and  C_11
REMARK    4  A    between atoms: C_17  and  C_18
REMARK                            x       y       z     vdW  Elec       q    Type
REMARK                         _______ _______ _______ _____ _____    ______ ____
ROOT
ATOM      1  C   UNL     1       2.630   2.524  21.054  0.00  0.00    +0.000 C 
ATOM      2  C   UNL     1       3.118   3.578  20.110  0.00  0.00    +0.000 A 
ATOM      3  S   UNL     1       4.596   3.367  19.298  0.00  0.00    +0.000 S 
ATOM      4  C   UNL     1       4.442   4.853  18.492  0.00  0.00    +0.000 A 
ATOM      5  N   UNL     1       5.410   5.233  17.642  0.00  0.00    +0.000 NA
ATOM      6  C   UNL     1       5.150   6.408  17.075  0.00  0.00    +0.000 A 
ATOM      7  N   UNL     1       4.073   7.189  17.272  0.00  0.00    +0.000 NA
ATOM      8  C   UNL     1       3.103   6.778  18.123  0.00  0.00    +0.000 A 
ATOM      9  N   UNL     1       1.964   7.565  18.247  0.00  0.00    +0.000 N 
ATOM     10  C   UNL     1       3.273   5.540  18.804  0.00  0.00    +0.000 A 
ATOM     11  C   UNL     1       2.495   4.779  19.786  0.00  0.00    +0.000 A 
ATOM     12  C   UNL     1       1.192   5.151  20.428  0.00  0.00    +0.000 C 
ATOM     13  H   UNL     1       1.439   7.370  19.080  0.00  0.00    +0.000 HD
ENDROOT
BRANCH   9  14
ATOM     14  C   UNL     1       2.089   9.000  18.042  0.00  0.00    +0.000 C 
BRANCH  14  15
ATOM     15  C   UNL     1       1.307   9.770  19.083  0.00  0.00    +0.000 A 
ATOM     16  C   UNL     1       0.876   9.338  20.323  0.00  0.00    +0.000 A 
ATOM     17  C   UNL     1       0.181  10.356  21.044  0.00  0.00    +0.000 A 
ATOM     18  C   UNL     1       0.116  11.535  20.337  0.00  0.00    +0.000 A 
ATOM     19  S   UNL     1       0.895  11.415  18.818  0.00  0.00    +0.000 S 
ENDBRANCH  14  15
ENDBRANCH   9  14
TORSDOF 2
ENDMDL
MODEL 7
REMARK VINA RESULT:      -5.8      2.673      6.423
REMARK  Name = 
REMARK  4 active torsions:
REMARK  status: ('A' for Active; 'I' for Inactive)
REMARK    1  A    between atoms: C_1  and  C_2
REMARK    2  A    between atoms: N_9  and  C_10
REMARK    3  A    between atoms: C_10  and  C_11
REMARK    4  A    between atoms: C_17  and  C_18
REMARK                            x       y       z     vdW  Elec       q    Type
REMARK                         _______ _______ _______ _____ _____    ______ ____
ROOT
ATOM      1  C   UNL     1       1.909   7.713  20.090  0.00  0.00    +0.000 C 
ATOM      2  C   UNL     1       2.292   6.338  19.641  0.00  0.00    +0.000 A 
ATOM      3  S   UNL     1       1.710   4.981  20.484  0.00  0.00    +0.000 S 
ATOM      4  C   UNL     1       2.514   3.907  19.444  0.00  0.00    +0.000 A 
ATOM      5  N   UNL     1       2.396   2.586  19.658  0.00  0.00    +0.000 NA
ATOM      6  C   UNL     1       3.066   1.868  18.761  0.00  0.00    +0.000 A 
ATOM      7  N   UNL     1       3.801   2.327  17.733  0.00  0.00    +0.000 NA
ATOM      8  C   UNL     1       3.896   3.663  17.529  0.00  0.00    +0.000 A 
ATOM      9  N   UNL     1       4.595   4.107  16.413  0.00  0.00    +0.000 N 
ATOM     10  C   UNL     1       3.232   4.538  18.433  0.00  0.00    +0.000 A 
ATOM     11  C   UNL     1       3.108   5.993  18.568  0.00  0.00    +0.000 A 
ATOM     12  C   UNL     1       3.737   7.060  17.724  0.00  0.00    +0.000 C 
ATOM     13  H   UNL     1       4.871   5.069  16.479  0.00  0.00    +0.000 HD
ENDROOT
BRANCH   9  14
ATOM     14  C   UNL     1       5.690   3.291  15.912  0.00  0.00    +0.000 C 
BRANCH  14  15
ATOM     15  C   UNL     1       6.229   3.840  14.611  0.00  0.00    +0.000 A 
ATOM     16  C   UNL     1       5.926   3.443  13.322  0.00  0.00    +0.000 A 
ATOM     17  C   UNL     1       6.617   4.211  12.338  0.00  0.00    +0.000 A 
ATOM     18  C   UNL     1       7.414   5.179  12.905  0.00  0.00    +0.000 A 
ATOM     19  S   UNL     1       7.322   5.164  14.614  0.00  0.00    +0.000 S 
ENDBRANCH  14  15
ENDBRANCH   9  14
TORSDOF 2
ENDMDL
MODEL 8
REMARK VINA RESULT:      -5.7      2.509      5.604
REMARK  Name = 
REMARK  4 active torsions:
REMARK  status: ('A' for Active; 'I' for Inactive)
REMARK    1  A    between atoms: C_1  and  C_2
REMARK    2  A    between atoms: N_9  and  C_10
REMARK    3  A    between atoms: C_10  and  C_11
REMARK    4  A    between atoms: C_17  and  C_18
REMARK                            x       y       z     vdW  Elec       q    Type
REMARK                         _______ _______ _______ _____ _____    ______ ____
ROOT
ATOM      1  C   UNL     1       0.721  10.142  19.918  0.00  0.00    +0.000 C 
ATOM      2  C   UNL     1       1.273   8.751  19.902  0.00  0.00    +0.000 A 
ATOM      3  S   UNL     1       0.965   7.704  21.205  0.00  0.00    +0.000 S 
ATOM      4  C   UNL     1       1.844   6.443  20.486  0.00  0.00    +0.000 A 
ATOM      5  N   UNL     1       1.941   5.269  21.132  0.00  0.00    +0.000 NA
ATOM      6  C   UNL     1       2.646   4.373  20.447  0.00  0.00    +0.000 A 
ATOM      7  N   UNL     1       3.228   4.538  19.246  0.00  0.00    +0.000 NA
ATOM      8  C   UNL     1       3.106   5.726  18.607  0.00  0.00    +0.000 A 
ATOM      9  N   UNL     1       3.648   5.843  17.332  0.00  0.00    +0.000 N 
ATOM     10  C   UNL     1       2.384   6.772  19.247  0.00  0.00    +0.000 A 
ATOM     11  C   UNL     1       2.053   8.161  18.913  0.00  0.00    +0.000 A 
ATOM     12  C   UNL     1       2.451   8.944  17.698  0.00  0.00    +0.000 C 
ATOM     13  H   UNL     1       3.781   6.796  17.047  0.00  0.00    +0.000 HD
ENDROOT
BRANCH   9  14
ATOM     14  C   UNL     1       4.815   5.040  17.000  0.00  0.00    +0.000 C 
BRANCH  14  15
ATOM     15  C   UNL     1       6.053   5.566  17.691  0.00  0.00    +0.000 A 
ATOM     16  C   UNL     1       6.816   4.953  18.667  0.00  0.00    +0.000 A 
ATOM     17  C   UNL     1       7.931   5.748  19.067  0.00  0.00    +0.000 A 
ATOM     18  C   UNL     1       7.992   6.936  18.376  0.00  0.00    +0.000 A 
ATOM     19  S   UNL     1       6.716   7.085  17.245  0.00  0.00    +0.000 S 
ENDBRANCH  14  15
ENDBRANCH   9  14
TORSDOF 2
ENDMDL
MODEL 9
REMARK VINA RESULT:      -5.7      3.328      6.770
REMARK  Name = 
REMARK  4 active torsions:
REMARK  status: ('A' for Active; 'I' for Inactive)
REMARK    1  A    between atoms: C_1  and  C_2
REMARK    2  A    between atoms: N_9  and  C_10
REMARK    3  A    between atoms: C_10  and  C_11
REMARK    4  A    between atoms: C_17  and  C_18
REMARK                            x       y       z     vdW  Elec       q    Type
REMARK                         _______ _______ _______ _____ _____    ______ ____
ROOT
ATOM      1  C   UNL     1       1.343   1.919  18.919  0.00  0.00    +0.000 C 
ATOM      2  C   UNL     1       2.120   3.141  18.542  0.00  0.00    +0.000 A 
ATOM      3  S   UNL     1       1.436   4.681  18.768  0.00  0.00    +0.000 S 
ATOM      4  C   UNL     1       2.819   5.457  18.163  0.00  0.00    +0.000 A 
ATOM      5  N   UNL     1       2.837   6.800  18.106  0.00  0.00    +0.000 NA
ATOM      6  C   UNL     1       3.985   7.269  17.624  0.00  0.00    +0.000 A 
ATOM      7  N   UNL     1       5.050   6.557  17.218  0.00  0.00    +0.000 NA
ATOM      8  C   UNL     1       5.015   5.205  17.297  0.00  0.00    +0.000 A 
ATOM      9  N   UNL     1       6.159   4.498  16.946  0.00  0.00    +0.000 N 
ATOM     10  C   UNL     1       3.832   4.582  17.785  0.00  0.00    +0.000 A 
ATOM     11  C   UNL     1       3.399   3.197  17.998  0.00  0.00    +0.000 A 
ATOM     12  C   UNL     1       4.150   1.935  17.702  0.00  0.00    +0.000 C 
ATOM     13  H   UNL     1       5.979   3.531  16.749  0.00  0.00    +0.000 HD
ENDROOT
BRANCH   9  14
ATOM     14  C   UNL     1       7.047   5.070  15.947  0.00  0.00    +0.000 C 
BRANCH  14  15
ATOM     15  C   UNL     1       6.741   4.526  14.569  0.00  0.00    +0.000 A 
ATOM     16  C   UNL     1       5.679   3.732  14.178  0.00  0.00    +0.000 A 
ATOM     17  C   UNL     1       5.708   3.430  12.783  0.00  0.00    +0.000 A 
ATOM     18  C   UNL     1       6.783   4.013  12.152  0.00  0.00    +0.000 A 
ATOM     19  S   UNL     1       7.744   4.925  13.235  0.00  0.00    +0.000 S 
ENDBRANCH  14  15
ENDBRANCH   9  14
TORSDOF 2
ENDMDL
