MODEL 1
REMARK VINA RESULT:      -9.5      0.000      0.000
REMARK  Name = 
REMARK  8 active torsions:
REMARK  status: ('A' for Active; 'I' for Inactive)
REMARK    1  A    between atoms: C_1  and  C_2
REMARK    2  A    between atoms: C_2  and  C_3
REMARK    3  A    between atoms: C_6  and  C_7
REMARK    4  A    between atoms: C_11  and  C_12
REMARK    5  A    between atoms: C_16  and  C_17
REMARK    6  A    between atoms: C_21  and  C_22
REMARK    7  A    between atoms: C_25  and  C_26
REMARK    8  A    between atoms: C_25  and  C_27
REMARK                            x       y       z     vdW  Elec       q    Type
REMARK                         _______ _______ _______ _____ _____    ______ ____
ROOT
ATOM      1  C   UNL     1       0.830   9.994  18.940  0.00  0.00    +0.000 A 
ATOM      2  C   UNL     1       1.605  11.168  18.915  0.00  0.00    +0.000 A 
ATOM      3  C   UNL     1       1.036  12.404  18.627  0.00  0.00    +0.000 A 
ATOM      4  C   UNL     1      -0.319  12.504  18.352  0.00  0.00    +0.000 A 
ATOM      5  C   UNL     1      -1.142  11.364  18.338  0.00  0.00    +0.000 A 
ATOM      6  C   UNL     1      -0.530  10.120  18.625  0.00  0.00    +0.000 A 
ENDROOT
BRANCH   1  11
ATOM      7  C   UNL     1       2.875   6.795  18.753  0.00  0.00    +0.000 A 
ATOM      8  C   UNL     1       2.548   6.167  19.956  0.00  0.00    +0.000 A 
ATOM      9  C   UNL     1       1.668   6.787  20.837  0.00  0.00    +0.000 A 
ATOM     10  C   UNL     1       1.105   8.024  20.506  0.00  0.00    +0.000 A 
ATOM     11  C   UNL     1       1.421   8.688  19.304  0.00  0.00    +0.000 A 
ATOM     12  C   UNL     1       2.345   8.054  18.452  0.00  0.00    +0.000 A 
BRANCH   7  18
ATOM     13  C   UNL     1       7.069   4.372  16.299  0.00  0.00    +0.000 C 
ATOM     14  C   UNL     1       5.657   4.919  15.997  0.00  0.00    +0.000 C 
ATOM     15  C   UNL     1       5.358   4.677  14.501  0.00  0.00    +0.000 C 
ATOM     16  C   UNL     1       4.638   4.116  16.830  0.00  0.00    +0.000 C 
ATOM     17  N   UNL     1       3.843   4.848  17.803  0.00  0.00    +0.000 NA
ATOM     18  C   UNL     1       3.783   6.128  17.769  0.00  0.00    +0.000 C 
ATOM     19  N   UNL     1       4.491   6.921  16.909  0.00  0.00    +0.000 N 
ATOM     20  C   UNL     1       5.676   6.432  16.255  0.00  0.00    +0.000 C 
ATOM     21  H   UNL     1       4.607   7.878  17.232  0.00  0.00    +0.000 HD
ENDBRANCH   7  18
ENDBRANCH   1  11
BRANCH   5  22
ATOM     22  C   UNL     1      -2.603  11.479  18.115  0.00  0.00    +0.000 A 
ATOM     23  C   UNL     1      -3.181  11.319  16.845  0.00  0.00    +0.000 A 
ATOM     24  C   UNL     1      -4.548  11.520  16.637  0.00  0.00    +0.000 A 
ATOM     25  C   UNL     1      -5.370  11.877  17.705  0.00  0.00    +0.000 A 
ATOM     26  C   UNL     1      -4.827  12.015  18.984  0.00  0.00    +0.000 A 
ATOM     27  C   UNL     1      -3.459  11.800  19.182  0.00  0.00    +0.000 A 
BRANCH  26  28
ATOM     28  C   UNL     1      -5.694  12.398  20.142  0.00  0.00    +0.000 C 
ATOM     29  N   UNL     1      -6.919  12.669  19.882  0.00  0.00    +0.000 NA
ATOM     30  C   UNL     1      -7.855  13.008  20.940  0.00  0.00    +0.000 C 
ATOM     31  C   UNL     1      -7.281  13.239  22.354  0.00  0.00    +0.000 C 
ATOM     32  C   UNL     1      -7.872  12.182  23.309  0.00  0.00    +0.000 C 
ATOM     33  C   UNL     1      -7.738  14.634  22.831  0.00  0.00    +0.000 C 
ATOM     34  C   UNL     1      -5.752  13.200  22.449  0.00  0.00    +0.000 C 
ATOM     35  N   UNL     1      -5.139  12.436  21.395  0.00  0.00    +0.000 N 
ATOM     36  H   UNL     1      -4.128  12.537  21.406  0.00  0.00    +0.000 HD
ENDBRANCH  26  28
ENDBRANCH   5  22
TORSDOF 4
ENDMDL
MODEL 2
REMARK VINA RESULT:      -9.5      0.758     11.626
REMARK  Name = 
REMARK  8 active torsions:
REMARK  status: ('A' for Active; 'I' for Inactive)
REMARK    1  A    between atoms: C_1  and  C_2
REMARK    2  A    between atoms: C_2  and  C_3
REMARK    3  A    between atoms: C_6  and  C_7
REMARK    4  A    between atoms: C_11  and  C_12
REMARK    5  A    between atoms: C_16  and  C_17
REMARK    6  A    between atoms: C_21  and  C_22
REMARK    7  A    between atoms: C_25  and  C_26
REMARK    8  A    between atoms: C_25  and  C_27
REMARK                            x       y       z     vdW  Elec       q    Type
REMARK                         _______ _______ _______ _____ _____    ______ ____
ROOT
ATOM      1  C   UNL     1      -0.992  11.458  18.799  0.00  0.00    +0.000 A 
ATOM      2  C   UNL     1      -0.068  12.482  18.528  0.00  0.00    +0.000 A 
ATOM      3  C   UNL     1       1.303  12.247  18.562  0.00  0.00    +0.000 A 
ATOM      4  C   UNL     1       1.789  10.987  18.871  0.00  0.00    +0.000 A 
ATOM      5  C   UNL     1       0.916   9.927  19.175  0.00  0.00    +0.000 A 
ATOM      6  C   UNL     1      -0.472  10.203  19.141  0.00  0.00    +0.000 A 
ENDROOT
BRANCH   1  11
ATOM      7  C   UNL     1      -4.546  12.431  19.737  0.00  0.00    +0.000 A 
ATOM      8  C   UNL     1      -5.252  12.120  18.573  0.00  0.00    +0.000 A 
ATOM      9  C   UNL     1      -4.571  11.602  17.476  0.00  0.00    +0.000 A 
ATOM     10  C   UNL     1      -3.193  11.381  17.550  0.00  0.00    +0.000 A 
ATOM     11  C   UNL     1      -2.450  11.691  18.706  0.00  0.00    +0.000 A 
ATOM     12  C   UNL     1      -3.160  12.251  19.786  0.00  0.00    +0.000 A 
BRANCH   7  18
ATOM     13  C   UNL     1      -6.280  15.432  23.917  0.00  0.00    +0.000 C 
ATOM     14  C   UNL     1      -6.472  14.037  23.282  0.00  0.00    +0.000 C 
ATOM     15  C   UNL     1      -7.510  13.264  24.125  0.00  0.00    +0.000 C 
ATOM     16  C   UNL     1      -7.045  14.225  21.862  0.00  0.00    +0.000 C 
ATOM     17  N   UNL     1      -6.246  13.742  20.748  0.00  0.00    +0.000 NA
ATOM     18  C   UNL     1      -5.261  12.946  20.946  0.00  0.00    +0.000 C 
ATOM     19  N   UNL     1      -4.814  12.544  22.175  0.00  0.00    +0.000 N 
ATOM     20  C   UNL     1      -5.129  13.299  23.360  0.00  0.00    +0.000 C 
ATOM     21  H   UNL     1      -3.850  12.223  22.178  0.00  0.00    +0.000 HD
ENDBRANCH   7  18
ENDBRANCH   1  11
BRANCH   5  22
ATOM     22  C   UNL     1       1.433   8.562  19.434  0.00  0.00    +0.000 A 
ATOM     23  C   UNL     1       1.103   7.846  20.596  0.00  0.00    +0.000 A 
ATOM     24  C   UNL     1       1.670   6.597  20.867  0.00  0.00    +0.000 A 
ATOM     25  C   UNL     1       2.576   6.034  19.970  0.00  0.00    +0.000 A 
ATOM     26  C   UNL     1       2.900   6.712  18.793  0.00  0.00    +0.000 A 
ATOM     27  C   UNL     1       2.317   7.955  18.527  0.00  0.00    +0.000 A 
BRANCH  26  28
ATOM     28  C   UNL     1       3.871   6.122  17.818  0.00  0.00    +0.000 C 
ATOM     29  N   UNL     1       4.359   6.914  16.938  0.00  0.00    +0.000 NA
ATOM     30  C   UNL     1       5.343   6.454  15.974  0.00  0.00    +0.000 C 
ATOM     31  C   UNL     1       5.622   4.937  15.909  0.00  0.00    +0.000 C 
ATOM     32  C   UNL     1       7.097   4.685  16.285  0.00  0.00    +0.000 C 
ATOM     33  C   UNL     1       5.408   4.476  14.451  0.00  0.00    +0.000 C 
ATOM     34  C   UNL     1       4.724   4.072  16.800  0.00  0.00    +0.000 C 
ATOM     35  N   UNL     1       4.179   4.791  17.921  0.00  0.00    +0.000 N 
ATOM     36  H   UNL     1       3.488   4.234  18.415  0.00  0.00    +0.000 HD
ENDBRANCH  26  28
ENDBRANCH   5  22
TORSDOF 4
ENDMDL
MODEL 3
REMARK VINA RESULT:      -9.4      0.188      1.054
REMARK  Name = 
REMARK  8 active torsions:
REMARK  status: ('A' for Active; 'I' for Inactive)
REMARK    1  A    between atoms: C_1  and  C_2
REMARK    2  A    between atoms: C_2  and  C_3
REMARK    3  A    between atoms: C_6  and  C_7
REMARK    4  A    between atoms: C_11  and  C_12
REMARK    5  A    between atoms: C_16  and  C_17
REMARK    6  A    between atoms: C_21  and  C_22
REMARK    7  A    between atoms: C_25  and  C_26
REMARK    8  A    between atoms: C_25  and  C_27
REMARK                            x       y       z     vdW  Elec       q    Type
REMARK                         _______ _______ _______ _____ _____    ______ ____
ROOT
ATOM      1  C   UNL     1       0.875  10.004  18.902  0.00  0.00    +0.000 A 
ATOM      2  C   UNL     1       1.659  11.171  18.851  0.00  0.00    +0.000 A 
ATOM      3  C   UNL     1       1.094  12.409  18.565  0.00  0.00    +0.000 A 
ATOM      4  C   UNL     1      -0.265  12.519  18.318  0.00  0.00    +0.000 A 
ATOM      5  C   UNL     1      -1.098  11.385  18.331  0.00  0.00    +0.000 A 
ATOM      6  C   UNL     1      -0.489  10.139  18.615  0.00  0.00    +0.000 A 
ENDROOT
BRANCH   1  11
ATOM      7  C   UNL     1       2.957   6.827  18.735  0.00  0.00    +0.000 A 
ATOM      8  C   UNL     1       2.587   6.173  19.911  0.00  0.00    +0.000 A 
ATOM      9  C   UNL     1       1.667   6.768  20.767  0.00  0.00    +0.000 A 
ATOM     10  C   UNL     1       1.107   8.006  20.439  0.00  0.00    +0.000 A 
ATOM     11  C   UNL     1       1.464   8.696  19.264  0.00  0.00    +0.000 A 
ATOM     12  C   UNL     1       2.427   8.087  18.437  0.00  0.00    +0.000 A 
BRANCH   7  18
ATOM     13  C   UNL     1       5.242   4.446  14.424  0.00  0.00    +0.000 C 
ATOM     14  C   UNL     1       5.576   4.886  15.865  0.00  0.00    +0.000 C 
ATOM     15  C   UNL     1       7.052   4.533  16.147  0.00  0.00    +0.000 C 
ATOM     16  C   UNL     1       5.421   6.419  15.952  0.00  0.00    +0.000 C 
ATOM     17  N   UNL     1       4.425   6.940  16.874  0.00  0.00    +0.000 NA
ATOM     18  C   UNL     1       3.910   6.188  17.775  0.00  0.00    +0.000 C 
ATOM     19  N   UNL     1       4.160   4.850  17.914  0.00  0.00    +0.000 N 
ATOM     20  C   UNL     1       4.686   4.078  16.819  0.00  0.00    +0.000 C 
ATOM     21  H   UNL     1       3.435   4.345  18.418  0.00  0.00    +0.000 HD
ENDBRANCH   7  18
ENDBRANCH   1  11
BRANCH   5  22
ATOM     22  C   UNL     1      -2.562  11.510  18.139  0.00  0.00    +0.000 A 
ATOM     23  C   UNL     1      -3.172  11.316  16.889  0.00  0.00    +0.000 A 
ATOM     24  C   UNL     1      -4.541  11.526  16.706  0.00  0.00    +0.000 A 
ATOM     25  C   UNL     1      -5.334  11.928  17.780  0.00  0.00    +0.000 A 
ATOM     26  C   UNL     1      -4.759  12.101  19.041  0.00  0.00    +0.000 A 
ATOM     27  C   UNL     1      -3.389  11.876  19.214  0.00  0.00    +0.000 A 
BRANCH  26  28
ATOM     28  C   UNL     1      -5.594  12.532  20.206  0.00  0.00    +0.000 C 
ATOM     29  N   UNL     1      -6.844  12.707  19.987  0.00  0.00    +0.000 NA
ATOM     30  C   UNL     1      -7.750  13.082  21.059  0.00  0.00    +0.000 C 
ATOM     31  C   UNL     1      -7.127  13.468  22.417  0.00  0.00    +0.000 C 
ATOM     32  C   UNL     1      -7.606  12.466  23.487  0.00  0.00    +0.000 C 
ATOM     33  C   UNL     1      -7.649  14.871  22.798  0.00  0.00    +0.000 C 
ATOM     34  C   UNL     1      -5.595  13.528  22.437  0.00  0.00    +0.000 C 
ATOM     35  N   UNL     1      -4.985  12.712  21.420  0.00  0.00    +0.000 N 
ATOM     36  H   UNL     1      -3.984  12.873  21.371  0.00  0.00    +0.000 HD
ENDBRANCH  26  28
ENDBRANCH   5  22
TORSDOF 4
ENDMDL
MODEL 4
REMARK VINA RESULT:      -9.4      0.377      1.039
REMARK  Name = 
REMARK  8 active torsions:
REMARK  status: ('A' for Active; 'I' for Inactive)
REMARK    1  A    between atoms: C_1  and  C_2
REMARK    2  A    between atoms: C_2  and  C_3
REMARK    3  A    between atoms: C_6  and  C_7
REMARK    4  A    between atoms: C_11  and  C_12
REMARK    5  A    between atoms: C_16  and  C_17
REMARK    6  A    between atoms: C_21  and  C_22
REMARK    7  A    between atoms: C_25  and  C_26
REMARK    8  A    between atoms: C_25  and  C_27
REMARK                            x       y       z     vdW  Elec       q    Type
REMARK                         _______ _______ _______ _____ _____    ______ ____
ROOT
ATOM      1  C   UNL     1       0.811  10.041  18.924  0.00  0.00    +0.000 A 
ATOM      2  C   UNL     1       1.599  11.202  18.821  0.00  0.00    +0.000 A 
ATOM      3  C   UNL     1       1.032  12.436  18.524  0.00  0.00    +0.000 A 
ATOM      4  C   UNL     1      -0.334  12.548  18.316  0.00  0.00    +0.000 A 
ATOM      5  C   UNL     1      -1.172  11.420  18.381  0.00  0.00    +0.000 A 
ATOM      6  C   UNL     1      -0.561  10.177  18.676  0.00  0.00    +0.000 A 
ENDROOT
BRANCH   1  11
ATOM      7  C   UNL     1       2.850   6.837  18.759  0.00  0.00    +0.000 A 
ATOM      8  C   UNL     1       2.532   6.224  19.972  0.00  0.00    +0.000 A 
ATOM      9  C   UNL     1       1.659   6.855  20.851  0.00  0.00    +0.000 A 
ATOM     10  C   UNL     1       1.096   8.089  20.511  0.00  0.00    +0.000 A 
ATOM     11  C   UNL     1       1.403   8.738  19.299  0.00  0.00    +0.000 A 
ATOM     12  C   UNL     1       2.320   8.093  18.447  0.00  0.00    +0.000 A 
BRANCH   7  18
ATOM     13  C   UNL     1       7.038   4.420  16.287  0.00  0.00    +0.000 C 
ATOM     14  C   UNL     1       5.609   4.930  16.000  0.00  0.00    +0.000 C 
ATOM     15  C   UNL     1       5.283   4.637  14.519  0.00  0.00    +0.000 C 
ATOM     16  C   UNL     1       4.623   4.134  16.879  0.00  0.00    +0.000 C 
ATOM     17  N   UNL     1       3.836   4.880  17.847  0.00  0.00    +0.000 NA
ATOM     18  C   UNL     1       3.750   6.157  17.775  0.00  0.00    +0.000 C 
ATOM     19  N   UNL     1       4.423   6.937  16.876  0.00  0.00    +0.000 N 
ATOM     20  C   UNL     1       5.604   6.450  16.212  0.00  0.00    +0.000 C 
ATOM     21  H   UNL     1       4.528   7.906  17.167  0.00  0.00    +0.000 HD
ENDBRANCH   7  18
ENDBRANCH   1  11
BRANCH   5  22
ATOM     22  C   UNL     1      -2.640  11.550  18.231  0.00  0.00    +0.000 A 
ATOM     23  C   UNL     1      -3.295  11.277  17.019  0.00  0.00    +0.000 A 
ATOM     24  C   UNL     1      -4.668  11.490  16.869  0.00  0.00    +0.000 A 
ATOM     25  C   UNL     1      -5.418  11.975  17.939  0.00  0.00    +0.000 A 
ATOM     26  C   UNL     1      -4.798  12.228  19.164  0.00  0.00    +0.000 A 
ATOM     27  C   UNL     1      -3.426  11.999  19.305  0.00  0.00    +0.000 A 
BRANCH  26  28
ATOM     28  C   UNL     1      -5.588  12.749  20.324  0.00  0.00    +0.000 C 
ATOM     29  N   UNL     1      -4.934  13.356  21.243  0.00  0.00    +0.000 NA
ATOM     30  C   UNL     1      -5.611  13.938  22.389  0.00  0.00    +0.000 C 
ATOM     31  C   UNL     1      -7.110  13.619  22.570  0.00  0.00    +0.000 C 
ATOM     32  C   UNL     1      -7.912  14.934  22.479  0.00  0.00    +0.000 C 
ATOM     33  C   UNL     1      -7.304  13.028  23.983  0.00  0.00    +0.000 C 
ATOM     34  C   UNL     1      -7.686  12.611  21.568  0.00  0.00    +0.000 C 
ATOM     35  N   UNL     1      -6.944  12.552  20.337  0.00  0.00    +0.000 N 
ATOM     36  H   UNL     1      -7.266  11.787  19.750  0.00  0.00    +0.000 HD
ENDBRANCH  26  28
ENDBRANCH   5  22
TORSDOF 4
ENDMDL
MODEL 5
REMARK VINA RESULT:      -9.2      0.696     11.635
REMARK  Name = 
REMARK  8 active torsions:
REMARK  status: ('A' for Active; 'I' for Inactive)
REMARK    1  A    between atoms: C_1  and  C_2
REMARK    2  A    between atoms: C_2  and  C_3
REMARK    3  A    between atoms: C_6  and  C_7
REMARK    4  A    between atoms: C_11  and  C_12
REMARK    5  A    between atoms: C_16  and  C_17
REMARK    6  A    between atoms: C_21  and  C_22
REMARK    7  A    between atoms: C_25  and  C_26
REMARK    8  A    between atoms: C_25  and  C_27
REMARK                            x       y       z     vdW  Elec       q    Type
REMARK                         _______ _______ _______ _____ _____    ______ ____
ROOT
ATOM      1  C   UNL     1      -0.952  11.469  18.714  0.00  0.00    +0.000 A 
ATOM      2  C   UNL     1      -0.027  12.482  18.401  0.00  0.00    +0.000 A 
ATOM      3  C   UNL     1       1.342  12.241  18.414  0.00  0.00    +0.000 A 
ATOM      4  C   UNL     1       1.829  10.986  18.745  0.00  0.00    +0.000 A 
ATOM      5  C   UNL     1       0.957   9.938  19.091  0.00  0.00    +0.000 A 
ATOM      6  C   UNL     1      -0.430  10.220  19.077  0.00  0.00    +0.000 A 
ENDROOT
BRANCH   1  11
ATOM      7  C   UNL     1      -4.486  12.465  19.700  0.00  0.00    +0.000 A 
ATOM      8  C   UNL     1      -5.211  12.145  18.551  0.00  0.00    +0.000 A 
ATOM      9  C   UNL     1      -4.551  11.614  17.449  0.00  0.00    +0.000 A 
ATOM     10  C   UNL     1      -3.172  11.388  17.502  0.00  0.00    +0.000 A 
ATOM     11  C   UNL     1      -2.410  11.707  18.643  0.00  0.00    +0.000 A 
ATOM     12  C   UNL     1      -3.099  12.280  19.728  0.00  0.00    +0.000 A 
BRANCH   7  18
ATOM     13  C   UNL     1      -7.657  13.113  24.060  0.00  0.00    +0.000 C 
ATOM     14  C   UNL     1      -6.640  13.886  23.192  0.00  0.00    +0.000 C 
ATOM     15  C   UNL     1      -6.483  15.303  23.785  0.00  0.00    +0.000 C 
ATOM     16  C   UNL     1      -5.278  13.169  23.286  0.00  0.00    +0.000 C 
ATOM     17  N   UNL     1      -4.715  12.637  22.056  0.00  0.00    +0.000 NA
ATOM     18  C   UNL     1      -5.178  12.995  20.915  0.00  0.00    +0.000 C 
ATOM     19  N   UNL     1      -6.258  13.814  20.733  0.00  0.00    +0.000 N 
ATOM     20  C   UNL     1      -7.227  14.007  21.780  0.00  0.00    +0.000 C 
ATOM     21  H   UNL     1      -6.702  13.715  19.823  0.00  0.00    +0.000 HD
ENDBRANCH   7  18
ENDBRANCH   1  11
BRANCH   5  22
ATOM     22  C   UNL     1       1.472   8.578  19.374  0.00  0.00    +0.000 A 
ATOM     23  C   UNL     1       1.175   7.899  20.567  0.00  0.00    +0.000 A 
ATOM     24  C   UNL     1       1.742   6.654  20.857  0.00  0.00    +0.000 A 
ATOM     25  C   UNL     1       2.614   6.058  19.948  0.00  0.00    +0.000 A 
ATOM     26  C   UNL     1       2.905   6.698  18.742  0.00  0.00    +0.000 A 
ATOM     27  C   UNL     1       2.322   7.937  18.458  0.00  0.00    +0.000 A 
BRANCH  26  28
ATOM     28  C   UNL     1       3.840   6.072  17.754  0.00  0.00    +0.000 C 
ATOM     29  N   UNL     1       3.941   4.795  17.782  0.00  0.00    +0.000 NA
ATOM     30  C   UNL     1       4.786   4.086  16.837  0.00  0.00    +0.000 C 
ATOM     31  C   UNL     1       5.717   4.930  15.941  0.00  0.00    +0.000 C 
ATOM     32  C   UNL     1       5.316   4.717  14.467  0.00  0.00    +0.000 C 
ATOM     33  C   UNL     1       7.159   4.411  16.132  0.00  0.00    +0.000 C 
ATOM     34  C   UNL     1       5.727   6.433  16.245  0.00  0.00    +0.000 C 
ATOM     35  N   UNL     1       4.522   6.886  16.889  0.00  0.00    +0.000 N 
ATOM     36  H   UNL     1       4.610   7.851  17.196  0.00  0.00    +0.000 HD
ENDBRANCH  26  28
ENDBRANCH   5  22
TORSDOF 4
ENDMDL
MODEL 6
REMARK VINA RESULT:      -9.1      0.521     11.632
REMARK  Name = 
REMARK  8 active torsions:
REMARK  status: ('A' for Active; 'I' for Inactive)
REMARK    1  A    between atoms: C_1  and  C_2
REMARK    2  A    between atoms: C_2  and  C_3
REMARK    3  A    between atoms: C_6  and  C_7
REMARK    4  A    between atoms: C_11  and  C_12
REMARK    5  A    between atoms: C_16  and  C_17
REMARK    6  A    between atoms: C_21  and  C_22
REMARK    7  A    between atoms: C_25  and  C_26
REMARK    8  A    between atoms: C_25  and  C_27
REMARK                            x       y       z     vdW  Elec       q    Type
REMARK                         _______ _______ _______ _____ _____    ______ ____
ROOT
ATOM      1  C   UNL     1      -1.155  11.470  18.709  0.00  0.00    +0.000 A 
ATOM      2  C   UNL     1      -0.239  12.511  18.473  0.00  0.00    +0.000 A 
ATOM      3  C   UNL     1       1.132  12.305  18.576  0.00  0.00    +0.000 A 
ATOM      4  C   UNL     1       1.629  11.059  18.921  0.00  0.00    +0.000 A 
ATOM      5  C   UNL     1       0.764   9.983  19.193  0.00  0.00    +0.000 A 
ATOM      6  C   UNL     1      -0.626  10.230  19.089  0.00  0.00    +0.000 A 
ENDROOT
BRANCH   1  11
ATOM      7  C   UNL     1      -4.774  12.353  19.470  0.00  0.00    +0.000 A 
ATOM      8  C   UNL     1      -5.411  12.040  18.268  0.00  0.00    +0.000 A 
ATOM      9  C   UNL     1      -4.663  11.549  17.203  0.00  0.00    +0.000 A 
ATOM     10  C   UNL     1      -3.285  11.358  17.346  0.00  0.00    +0.000 A 
ATOM     11  C   UNL     1      -2.611  11.672  18.543  0.00  0.00    +0.000 A 
ATOM     12  C   UNL     1      -3.388  12.204  19.589  0.00  0.00    +0.000 A 
BRANCH   7  18
ATOM     13  C   UNL     1      -7.397  15.393  23.125  0.00  0.00    +0.000 C 
ATOM     14  C   UNL     1      -6.977  13.930  22.864  0.00  0.00    +0.000 C 
ATOM     15  C   UNL     1      -7.492  13.065  24.034  0.00  0.00    +0.000 C 
ATOM     16  C   UNL     1      -7.666  13.452  21.569  0.00  0.00    +0.000 C 
ATOM     17  N   UNL     1      -6.812  13.056  20.462  0.00  0.00    +0.000 NA
ATOM     18  C   UNL     1      -5.562  12.838  20.645  0.00  0.00    +0.000 C 
ATOM     19  N   UNL     1      -4.901  13.025  21.828  0.00  0.00    +0.000 N 
ATOM     20  C   UNL     1      -5.443  13.879  22.853  0.00  0.00    +0.000 C 
ATOM     21  H   UNL     1      -3.897  13.153  21.724  0.00  0.00    +0.000 HD
ENDBRANCH   7  18
ENDBRANCH   1  11
BRANCH   5  22
ATOM     22  C   UNL     1       1.295   8.632  19.491  0.00  0.00    +0.000 A 
ATOM     23  C   UNL     1       0.961   7.940  20.666  0.00  0.00    +0.000 A 
ATOM     24  C   UNL     1       1.541   6.706  20.974  0.00  0.00    +0.000 A 
ATOM     25  C   UNL     1       2.464   6.133  20.101  0.00  0.00    +0.000 A 
ATOM     26  C   UNL     1       2.793   6.786  18.911  0.00  0.00    +0.000 A 
ATOM     27  C   UNL     1       2.198   8.015  18.609  0.00  0.00    +0.000 A 
BRANCH  26  28
ATOM     28  C   UNL     1       3.783   6.186  17.962  0.00  0.00    +0.000 C 
ATOM     29  N   UNL     1       3.875   4.909  17.954  0.00  0.00    +0.000 NA
ATOM     30  C   UNL     1       4.773   4.225  17.039  0.00  0.00    +0.000 C 
ATOM     31  C   UNL     1       5.761   5.090  16.230  0.00  0.00    +0.000 C 
ATOM     32  C   UNL     1       5.450   4.929  14.728  0.00  0.00    +0.000 C 
ATOM     33  C   UNL     1       7.186   4.555  16.490  0.00  0.00    +0.000 C 
ATOM     34  C   UNL     1       5.761   6.582  16.583  0.00  0.00    +0.000 C 
ATOM     35  N   UNL     1       4.522   7.023  17.167  0.00  0.00    +0.000 N 
ATOM     36  H   UNL     1       4.596   7.976  17.511  0.00  0.00    +0.000 HD
ENDBRANCH  26  28
ENDBRANCH   5  22
TORSDOF 4
ENDMDL
MODEL 7
REMARK VINA RESULT:      -9.0      4.548      9.813
REMARK  Name = 
REMARK  8 active torsions:
REMARK  status: ('A' for Active; 'I' for Inactive)
REMARK    1  A    between atoms: C_1  and  C_2
REMARK    2  A    between atoms: C_2  and  C_3
REMARK    3  A    between atoms: C_6  and  C_7
REMARK    4  A    between atoms: C_11  and  C_12
REMARK    5  A    between atoms: C_16  and  C_17
REMARK    6  A    between atoms: C_21  and  C_22
REMARK    7  A    between atoms: C_25  and  C_26
REMARK    8  A    between atoms: C_25  and  C_27
REMARK                            x       y       z     vdW  Elec       q    Type
REMARK                         _______ _______ _______ _____ _____    ______ ____
ROOT
ATOM      1  C   UNL     1       1.381  13.131  18.496  0.00  0.00    +0.000 A 
ATOM      2  C   UNL     1       0.015  13.385  18.279  0.00  0.00    +0.000 A 
ATOM      3  C   UNL     1      -0.933  12.371  18.368  0.00  0.00    +0.000 A 
ATOM      4  C   UNL     1      -0.545  11.076  18.671  0.00  0.00    +0.000 A 
ATOM      5  C   UNL     1       0.809  10.753  18.875  0.00  0.00    +0.000 A 
ATOM      6  C   UNL     1       1.748  11.807  18.768  0.00  0.00    +0.000 A 
ENDROOT
BRANCH   1  11
ATOM      7  C   UNL     1       4.722  14.943  18.400  0.00  0.00    +0.000 A 
ATOM      8  C   UNL     1       4.330  16.282  18.424  0.00  0.00    +0.000 A 
ATOM      9  C   UNL     1       2.976  16.600  18.462  0.00  0.00    +0.000 A 
ATOM     10  C   UNL     1       2.020  15.581  18.491  0.00  0.00    +0.000 A 
ATOM     11  C   UNL     1       2.382  14.219  18.460  0.00  0.00    +0.000 A 
ATOM     12  C   UNL     1       3.758  13.930  18.383  0.00  0.00    +0.000 A 
BRANCH   7  18
ATOM     13  C   UNL     1       9.504  12.501  19.207  0.00  0.00    +0.000 C 
ATOM     14  C   UNL     1       8.901  13.775  18.577  0.00  0.00    +0.000 C 
ATOM     15  C   UNL     1      10.055  14.608  17.977  0.00  0.00    +0.000 C 
ATOM     16  C   UNL     1       7.963  13.351  17.428  0.00  0.00    +0.000 C 
ATOM     17  N   UNL     1       6.558  13.707  17.545  0.00  0.00    +0.000 NA
ATOM     18  C   UNL     1       6.172  14.574  18.406  0.00  0.00    +0.000 C 
ATOM     19  N   UNL     1       6.983  15.175  19.329  0.00  0.00    +0.000 N 
ATOM     20  C   UNL     1       8.243  14.586  19.701  0.00  0.00    +0.000 C 
ATOM     21  H   UNL     1       6.487  15.544  20.136  0.00  0.00    +0.000 HD
ENDBRANCH   7  18
ENDBRANCH   1  11
BRANCH   5  22
ATOM     22  C   UNL     1       1.217   9.384  19.270  0.00  0.00    +0.000 A 
ATOM     23  C   UNL     1       0.790   8.794  20.471  0.00  0.00    +0.000 A 
ATOM     24  C   UNL     1       1.256   7.538  20.870  0.00  0.00    +0.000 A 
ATOM     25  C   UNL     1       2.155   6.840  20.066  0.00  0.00    +0.000 A 
ATOM     26  C   UNL     1       2.573   7.391  18.853  0.00  0.00    +0.000 A 
ATOM     27  C   UNL     1       2.091   8.643  18.458  0.00  0.00    +0.000 A 
BRANCH  26  28
ATOM     28  C   UNL     1       3.539   6.656  17.976  0.00  0.00    +0.000 C 
ATOM     29  N   UNL     1       3.440   5.379  17.951  0.00  0.00    +0.000 NA
ATOM     30  C   UNL     1       4.299   4.575  17.100  0.00  0.00    +0.000 C 
ATOM     31  C   UNL     1       5.469   5.287  16.390  0.00  0.00    +0.000 C 
ATOM     32  C   UNL     1       5.263   5.184  14.864  0.00  0.00    +0.000 C 
ATOM     33  C   UNL     1       6.772   4.544  16.754  0.00  0.00    +0.000 C 
ATOM     34  C   UNL     1       5.660   6.761  16.770  0.00  0.00    +0.000 C 
ATOM     35  N   UNL     1       4.457   7.378  17.259  0.00  0.00    +0.000 N 
ATOM     36  H   UNL     1       4.642   8.307  17.626  0.00  0.00    +0.000 HD
ENDBRANCH  26  28
ENDBRANCH   5  22
TORSDOF 4
ENDMDL
MODEL 8
REMARK VINA RESULT:      -9.0      2.829     11.731
REMARK  Name = 
REMARK  8 active torsions:
REMARK  status: ('A' for Active; 'I' for Inactive)
REMARK    1  A    between atoms: C_1  and  C_2
REMARK    2  A    between atoms: C_2  and  C_3
REMARK    3  A    between atoms: C_6  and  C_7
REMARK    4  A    between atoms: C_11  and  C_12
REMARK    5  A    between atoms: C_16  and  C_17
REMARK    6  A    between atoms: C_21  and  C_22
REMARK    7  A    between atoms: C_25  and  C_26
REMARK    8  A    between atoms: C_25  and  C_27
REMARK                            x       y       z     vdW  Elec       q    Type
REMARK                         _______ _______ _______ _____ _____    ______ ____
ROOT
ATOM      1  C   UNL     1      -0.640  11.422  21.968  0.00  0.00    +0.000 A 
ATOM      2  C   UNL     1      -0.827  10.653  23.130  0.00  0.00    +0.000 A 
ATOM      3  C   UNL     1      -0.335   9.356  23.226  0.00  0.00    +0.000 A 
ATOM      4  C   UNL     1       0.352   8.787  22.166  0.00  0.00    +0.000 A 
ATOM      5  C   UNL     1       0.551   9.496  20.967  0.00  0.00    +0.000 A 
ATOM      6  C   UNL     1       0.029  10.811  20.899  0.00  0.00    +0.000 A 
ENDROOT
BRANCH   1  11
ATOM      7  C   UNL     1      -2.897  14.475  22.168  0.00  0.00    +0.000 A 
ATOM      8  C   UNL     1      -2.057  15.491  21.708  0.00  0.00    +0.000 A 
ATOM      9  C   UNL     1      -0.750  15.187  21.340  0.00  0.00    +0.000 A 
ATOM     10  C   UNL     1      -0.292  13.868  21.418  0.00  0.00    +0.000 A 
ATOM     11  C   UNL     1      -1.111  12.822  21.885  0.00  0.00    +0.000 A 
ATOM     12  C   UNL     1      -2.416  13.167  22.287  0.00  0.00    +0.000 A 
BRANCH   7  18
ATOM     13  C   UNL     1      -7.916  14.330  24.234  0.00  0.00    +0.000 C 
ATOM     14  C   UNL     1      -7.051  15.140  23.244  0.00  0.00    +0.000 C 
ATOM     15  C   UNL     1      -7.916  16.285  22.675  0.00  0.00    +0.000 C 
ATOM     16  C   UNL     1      -5.876  15.763  24.025  0.00  0.00    +0.000 C 
ATOM     17  N   UNL     1      -4.531  15.370  23.638  0.00  0.00    +0.000 NA
ATOM     18  C   UNL     1      -4.319  14.767  22.526  0.00  0.00    +0.000 C 
ATOM     19  N   UNL     1      -5.296  14.368  21.655  0.00  0.00    +0.000 N 
ATOM     20  C   UNL     1      -6.657  14.204  22.093  0.00  0.00    +0.000 C 
ATOM     21  H   UNL     1      -5.009  13.620  21.029  0.00  0.00    +0.000 HD
ENDBRANCH   7  18
ENDBRANCH   1  11
BRANCH   5  22
ATOM     22  C   UNL     1       1.348   8.917  19.860  0.00  0.00    +0.000 A 
ATOM     23  C   UNL     1       1.628   9.634  18.685  0.00  0.00    +0.000 A 
ATOM     24  C   UNL     1       2.304   9.042  17.615  0.00  0.00    +0.000 A 
ATOM     25  C   UNL     1       2.724   7.715  17.704  0.00  0.00    +0.000 A 
ATOM     26  C   UNL     1       2.484   6.988  18.872  0.00  0.00    +0.000 A 
ATOM     27  C   UNL     1       1.817   7.596  19.941  0.00  0.00    +0.000 A 
BRANCH  26  28
ATOM     28  C   UNL     1       2.927   5.563  18.986  0.00  0.00    +0.000 C 
ATOM     29  N   UNL     1       4.028   5.252  18.409  0.00  0.00    +0.000 NA
ATOM     30  C   UNL     1       4.569   3.907  18.496  0.00  0.00    +0.000 C 
ATOM     31  C   UNL     1       3.675   2.817  19.123  0.00  0.00    +0.000 C 
ATOM     32  C   UNL     1       4.363   2.281  20.396  0.00  0.00    +0.000 C 
ATOM     33  C   UNL     1       3.555   1.658  18.111  0.00  0.00    +0.000 C 
ATOM     34  C   UNL     1       2.252   3.267  19.476  0.00  0.00    +0.000 C 
ATOM     35  N   UNL     1       2.145   4.686  19.690  0.00  0.00    +0.000 N 
ATOM     36  H   UNL     1       1.175   4.971  19.790  0.00  0.00    +0.000 HD
ENDBRANCH  26  28
ENDBRANCH   5  22
TORSDOF 4
ENDMDL
MODEL 9
REMARK VINA RESULT:      -8.9      4.470      9.987
REMARK  Name = 
REMARK  8 active torsions:
REMARK  status: ('A' for Active; 'I' for Inactive)
REMARK    1  A    between atoms: C_1  and  C_2
REMARK    2  A    between atoms: C_2  and  C_3
REMARK    3  A    between atoms: C_6  and  C_7
REMARK    4  A    between atoms: C_11  and  C_12
REMARK    5  A    between atoms: C_16  and  C_17
REMARK    6  A    between atoms: C_21  and  C_22
REMARK    7  A    between atoms: C_25  and  C_26
REMARK    8  A    between atoms: C_25  and  C_27
REMARK                            x       y       z     vdW  Elec       q    Type
REMARK                         _______ _______ _______ _____ _____    ______ ____
ROOT
ATOM      1  C   UNL     1       0.935  13.005  18.562  0.00  0.00    +0.000 A 
ATOM      2  C   UNL     1      -0.416  13.108  18.183  0.00  0.00    +0.000 A 
ATOM      3  C   UNL     1      -1.245  11.992  18.151  0.00  0.00    +0.000 A 
ATOM      4  C   UNL     1      -0.750  10.743  18.489  0.00  0.00    +0.000 A 
ATOM      5  C   UNL     1       0.598  10.570  18.854  0.00  0.00    +0.000 A 
ATOM      6  C   UNL     1       1.416  11.725  18.867  0.00  0.00    +0.000 A 
ENDROOT
BRANCH   1  11
ATOM      7  C   UNL     1       4.039  15.185  18.824  0.00  0.00    +0.000 A 
ATOM      8  C   UNL     1       3.493  16.469  18.864  0.00  0.00    +0.000 A 
ATOM      9  C   UNL     1       2.113  16.630  18.796  0.00  0.00    +0.000 A 
ATOM     10  C   UNL     1       1.283  15.509  18.705  0.00  0.00    +0.000 A 
ATOM     11  C   UNL     1       1.802  14.200  18.654  0.00  0.00    +0.000 A 
ATOM     12  C   UNL     1       3.204  14.071  18.685  0.00  0.00    +0.000 A 
BRANCH   7  18
ATOM     13  C   UNL     1       9.419  15.874  19.089  0.00  0.00    +0.000 C 
ATOM     14  C   UNL     1       8.354  14.756  19.070  0.00  0.00    +0.000 C 
ATOM     15  C   UNL     1       9.081  13.398  19.172  0.00  0.00    +0.000 C 
ATOM     16  C   UNL     1       7.458  14.919  20.316  0.00  0.00    +0.000 C 
ATOM     17  N   UNL     1       6.043  15.172  20.095  0.00  0.00    +0.000 NA
ATOM     18  C   UNL     1       5.517  14.981  18.942  0.00  0.00    +0.000 C 
ATOM     19  N   UNL     1       6.206  14.617  17.818  0.00  0.00    +0.000 N 
ATOM     20  C   UNL     1       7.627  14.824  17.721  0.00  0.00    +0.000 C 
ATOM     21  H   UNL     1       5.731  14.849  16.949  0.00  0.00    +0.000 HD
ENDBRANCH   7  18
ENDBRANCH   1  11
BRANCH   5  22
ATOM     22  C   UNL     1       1.109   9.249  19.286  0.00  0.00    +0.000 A 
ATOM     23  C   UNL     1       0.772   8.685  20.527  0.00  0.00    +0.000 A 
ATOM     24  C   UNL     1       1.334   7.480  20.957  0.00  0.00    +0.000 A 
ATOM     25  C   UNL     1       2.243   6.806  20.143  0.00  0.00    +0.000 A 
ATOM     26  C   UNL     1       2.574   7.328  18.891  0.00  0.00    +0.000 A 
ATOM     27  C   UNL     1       1.996   8.530  18.467  0.00  0.00    +0.000 A 
BRANCH  26  28
ATOM     28  C   UNL     1       3.548   6.618  18.003  0.00  0.00    +0.000 C 
ATOM     29  N   UNL     1       3.422   5.347  17.906  0.00  0.00    +0.000 NA
ATOM     30  C   UNL     1       4.287   4.569  17.037  0.00  0.00    +0.000 C 
ATOM     31  C   UNL     1       5.493   5.291  16.400  0.00  0.00    +0.000 C 
ATOM     32  C   UNL     1       5.330   5.274  14.866  0.00  0.00    +0.000 C 
ATOM     33  C   UNL     1       6.768   4.497  16.761  0.00  0.00    +0.000 C 
ATOM     34  C   UNL     1       5.706   6.736  16.865  0.00  0.00    +0.000 C 
ATOM     35  N   UNL     1       4.503   7.356  17.353  0.00  0.00    +0.000 N 
ATOM     36  H   UNL     1       4.699   8.259  17.775  0.00  0.00    +0.000 HD
ENDBRANCH  26  28
ENDBRANCH   5  22
TORSDOF 4
ENDMDL
