MODEL 1
REMARK VINA RESULT:      -7.0      0.000      0.000
REMARK  Name = 
REMARK  5 active torsions:
REMARK  status: ('A' for Active; 'I' for Inactive)
REMARK    1  A    between atoms: C_1  and  O_2
REMARK    2  A    between atoms: O_2  and  C_3
REMARK    3  A    between atoms: C_6  and  C_7
REMARK    4  A    between atoms: C_20  and  O_21
REMARK    5  A    between atoms: O_21  and  C_22
REMARK                            x       y       z     vdW  Elec       q    Type
REMARK                         _______ _______ _______ _____ _____    ______ ____
ROOT
ATOM      1  C   UNL     1       3.992   5.176  17.589  0.00  0.00    +0.000 C 
ATOM      2  O   UNL     1       3.074   5.956  17.389  0.00  0.00    +0.000 OA
ATOM      3  N   UNL     1       3.880   4.265  18.672  0.00  0.00    +0.000 N 
ATOM      4  C   UNL     1       4.971   3.632  19.165  0.00  0.00    +0.000 A 
ATOM      5  N   UNL     1       6.038   4.470  19.520  0.00  0.00    +0.000 N 
ATOM      6  N   UNL     1       4.690   2.640  20.018  0.00  0.00    +0.000 NA
ATOM      7  C   UNL     1       3.409   2.809  20.298  0.00  0.00    +0.000 A 
ATOM      8  C   UNL     1       2.743   2.113  21.286  0.00  0.00    +0.000 A 
ATOM      9  C   UNL     1       1.493   2.593  21.654  0.00  0.00    +0.000 A 
ATOM     10  C   UNL     1       0.943   3.725  21.011  0.00  0.00    +0.000 A 
ATOM     11  C   UNL     1       1.625   4.371  19.922  0.00  0.00    +0.000 A 
ATOM     12  C   UNL     1       2.914   3.880  19.574  0.00  0.00    +0.000 A 
ATOM     13  H   UNL     1       6.002   5.459  19.234  0.00  0.00    +0.000 HD
ATOM     14  H   UNL     1       6.279   4.385  20.527  0.00  0.00    +0.000 HD
ENDROOT
BRANCH   1  18
ATOM     15  C   UNL     1       7.255   5.235  14.474  0.00  0.00    +0.000 A 
ATOM     16  C   UNL     1       7.233   6.132  15.548  0.00  0.00    +0.000 A 
ATOM     17  C   UNL     1       6.213   6.080  16.536  0.00  0.00    +0.000 A 
ATOM     18  C   UNL     1       5.160   5.121  16.519  0.00  0.00    +0.000 A 
ATOM     19  C   UNL     1       5.214   4.208  15.415  0.00  0.00    +0.000 A 
ATOM     20  C   UNL     1       6.241   4.263  14.413  0.00  0.00    +0.000 A 
BRANCH  15  22
ATOM     21  C   UNL     1       8.282   6.000  12.292  0.00  0.00    +0.000 C 
ATOM     22  O   UNL     1       8.205   5.257  13.472  0.00  0.00    +0.000 OA
ENDBRANCH  15  22
BRANCH  20  23
ATOM     23  O   UNL     1       6.275   3.415  13.351  0.00  0.00    +0.000 OA
ATOM     24  C   UNL     1       5.436   3.407  12.254  0.00  0.00    +0.000 C 
ENDBRANCH  20  23
ENDBRANCH   1  18
TORSDOF 3
ENDMDL
MODEL 2
REMARK VINA RESULT:      -6.6      4.152      5.542
REMARK  Name = 
REMARK  5 active torsions:
REMARK  status: ('A' for Active; 'I' for Inactive)
REMARK    1  A    between atoms: C_1  and  O_2
REMARK    2  A    between atoms: O_2  and  C_3
REMARK    3  A    between atoms: C_6  and  C_7
REMARK    4  A    between atoms: C_20  and  O_21
REMARK    5  A    between atoms: O_21  and  C_22
REMARK                            x       y       z     vdW  Elec       q    Type
REMARK                         _______ _______ _______ _____ _____    ______ ____
ROOT
ATOM      1  C   UNL     1       2.276   6.812  19.508  0.00  0.00    +0.000 C 
ATOM      2  O   UNL     1       1.994   6.011  20.385  0.00  0.00    +0.000 OA
ATOM      3  N   UNL     1       1.780   8.137  19.617  0.00  0.00    +0.000 N 
ATOM      4  C   UNL     1       1.748   8.960  18.543  0.00  0.00    +0.000 A 
ATOM      5  N   UNL     1       1.109   8.438  17.410  0.00  0.00    +0.000 N 
ATOM      6  N   UNL     1       1.477  10.237  18.839  0.00  0.00    +0.000 NA
ATOM      7  C   UNL     1       1.054  10.195  20.090  0.00  0.00    +0.000 A 
ATOM      8  C   UNL     1       0.491  11.272  20.744  0.00  0.00    +0.000 A 
ATOM      9  C   UNL     1      -0.161  11.005  21.941  0.00  0.00    +0.000 A 
ATOM     10  C   UNL     1      -0.204   9.688  22.454  0.00  0.00    +0.000 A 
ATOM     11  C   UNL     1       0.472   8.606  21.793  0.00  0.00    +0.000 A 
ATOM     12  C   UNL     1       1.114   8.893  20.556  0.00  0.00    +0.000 A 
ATOM     13  H   UNL     1       0.865   7.438  17.400  0.00  0.00    +0.000 HD
ATOM     14  H   UNL     1       0.296   9.019  17.121  0.00  0.00    +0.000 HD
ENDROOT
BRANCH   1  18
ATOM     15  C   UNL     1       5.304   5.343  16.503  0.00  0.00    +0.000 A 
ATOM     16  C   UNL     1       4.180   4.589  16.858  0.00  0.00    +0.000 A 
ATOM     17  C   UNL     1       3.221   5.080  17.785  0.00  0.00    +0.000 A 
ATOM     18  C   UNL     1       3.320   6.360  18.403  0.00  0.00    +0.000 A 
ATOM     19  C   UNL     1       4.474   7.114  18.013  0.00  0.00    +0.000 A 
ATOM     20  C   UNL     1       5.447   6.617  17.080  0.00  0.00    +0.000 A 
BRANCH  15  22
ATOM     21  C   UNL     1       6.195   4.184  14.437  0.00  0.00    +0.000 C 
ATOM     22  O   UNL     1       6.280   4.904  15.630  0.00  0.00    +0.000 OA
ENDBRANCH  15  22
BRANCH  20  23
ATOM     23  O   UNL     1       6.556   7.322  16.733  0.00  0.00    +0.000 OA
ATOM     24  C   UNL     1       7.614   7.679  17.544  0.00  0.00    +0.000 C 
ENDBRANCH  20  23
ENDBRANCH   1  18
TORSDOF 3
ENDMDL
MODEL 3
REMARK VINA RESULT:      -6.5      1.800      2.635
REMARK  Name = 
REMARK  5 active torsions:
REMARK  status: ('A' for Active; 'I' for Inactive)
REMARK    1  A    between atoms: C_1  and  O_2
REMARK    2  A    between atoms: O_2  and  C_3
REMARK    3  A    between atoms: C_6  and  C_7
REMARK    4  A    between atoms: C_20  and  O_21
REMARK    5  A    between atoms: O_21  and  C_22
REMARK                            x       y       z     vdW  Elec       q    Type
REMARK                         _______ _______ _______ _____ _____    ______ ____
ROOT
ATOM      1  C   UNL     1       5.033   5.916  15.935  0.00  0.00    +0.000 C 
ATOM      2  O   UNL     1       4.955   7.127  15.798  0.00  0.00    +0.000 OA
ATOM      3  N   UNL     1       4.427   5.324  17.073  0.00  0.00    +0.000 N 
ATOM      4  C   UNL     1       4.766   4.075  17.473  0.00  0.00    +0.000 A 
ATOM      5  N   UNL     1       6.139   3.857  17.652  0.00  0.00    +0.000 N 
ATOM      6  N   UNL     1       3.958   3.561  18.408  0.00  0.00    +0.000 NA
ATOM      7  C   UNL     1       3.248   4.595  18.824  0.00  0.00    +0.000 A 
ATOM      8  C   UNL     1       2.412   4.557  19.922  0.00  0.00    +0.000 A 
ATOM      9  C   UNL     1       1.959   5.779  20.404  0.00  0.00    +0.000 A 
ATOM     10  C   UNL     1       2.331   6.983  19.765  0.00  0.00    +0.000 A 
ATOM     11  C   UNL     1       3.130   6.979  18.570  0.00  0.00    +0.000 A 
ATOM     12  C   UNL     1       3.603   5.722  18.103  0.00  0.00    +0.000 A 
ATOM     13  H   UNL     1       6.798   4.574  17.316  0.00  0.00    +0.000 HD
ATOM     14  H   UNL     1       6.362   3.578  18.628  0.00  0.00    +0.000 HD
ENDROOT
BRANCH   1  18
ATOM     15  C   UNL     1       6.861   3.732  12.436  0.00  0.00    +0.000 A 
ATOM     16  C   UNL     1       7.623   4.530  13.298  0.00  0.00    +0.000 A 
ATOM     17  C   UNL     1       7.036   5.187  14.413  0.00  0.00    +0.000 A 
ATOM     18  C   UNL     1       5.654   5.078  14.741  0.00  0.00    +0.000 A 
ATOM     19  C   UNL     1       4.901   4.248  13.848  0.00  0.00    +0.000 A 
ATOM     20  C   UNL     1       5.492   3.587  12.719  0.00  0.00    +0.000 A 
BRANCH  15  22
ATOM     21  C   UNL     1       7.502   1.738  11.015  0.00  0.00    +0.000 C 
ATOM     22  O   UNL     1       7.374   3.094  11.324  0.00  0.00    +0.000 OA
ENDBRANCH  15  22
BRANCH  20  23
ATOM     23  O   UNL     1       4.771   2.822  11.857  0.00  0.00    +0.000 OA
ATOM     24  C   UNL     1       3.804   3.244  10.966  0.00  0.00    +0.000 C 
ENDBRANCH  20  23
ENDBRANCH   1  18
TORSDOF 3
ENDMDL
MODEL 4
REMARK VINA RESULT:      -6.4      5.379      7.506
REMARK  Name = 
REMARK  5 active torsions:
REMARK  status: ('A' for Active; 'I' for Inactive)
REMARK    1  A    between atoms: C_1  and  O_2
REMARK    2  A    between atoms: O_2  and  C_3
REMARK    3  A    between atoms: C_6  and  C_7
REMARK    4  A    between atoms: C_20  and  O_21
REMARK    5  A    between atoms: O_21  and  C_22
REMARK                            x       y       z     vdW  Elec       q    Type
REMARK                         _______ _______ _______ _____ _____    ______ ____
ROOT
ATOM      1  C   UNL     1       1.251   8.918  19.754  0.00  0.00    +0.000 C 
ATOM      2  O   UNL     1       1.099   9.514  18.700  0.00  0.00    +0.000 OA
ATOM      3  N   UNL     1       0.612   9.425  20.915  0.00  0.00    +0.000 N 
ATOM      4  C   UNL     1       1.008   9.042  22.153  0.00  0.00    +0.000 A 
ATOM      5  N   UNL     1       2.377   9.190  22.413  0.00  0.00    +0.000 N 
ATOM      6  N   UNL     1       0.176   9.412  23.133  0.00  0.00    +0.000 NA
ATOM      7  C   UNL     1      -0.631  10.287  22.558  0.00  0.00    +0.000 A 
ATOM      8  C   UNL     1      -1.535  11.065  23.252  0.00  0.00    +0.000 A 
ATOM      9  C   UNL     1      -2.104  12.127  22.562  0.00  0.00    +0.000 A 
ATOM     10  C   UNL     1      -1.773  12.360  21.207  0.00  0.00    +0.000 A 
ATOM     11  C   UNL     1      -0.897  11.475  20.489  0.00  0.00    +0.000 A 
ATOM     12  C   UNL     1      -0.306  10.406  21.218  0.00  0.00    +0.000 A 
ATOM     13  H   UNL     1       3.007   9.406  21.627  0.00  0.00    +0.000 HD
ATOM     14  H   UNL     1       2.553   9.830  23.213  0.00  0.00    +0.000 HD
ENDROOT
BRANCH   1  18
ATOM     15  C   UNL     1       3.320   4.922  19.419  0.00  0.00    +0.000 A 
ATOM     16  C   UNL     1       3.620   5.992  18.567  0.00  0.00    +0.000 A 
ATOM     17  C   UNL     1       2.980   7.252  18.706  0.00  0.00    +0.000 A 
ATOM     18  C   UNL     1       2.009   7.526  19.712  0.00  0.00    +0.000 A 
ATOM     19  C   UNL     1       1.729   6.418  20.576  0.00  0.00    +0.000 A 
ATOM     20  C   UNL     1       2.372   5.141  20.434  0.00  0.00    +0.000 A 
BRANCH  15  22
ATOM     21  C   UNL     1       3.744   2.669  18.348  0.00  0.00    +0.000 C 
ATOM     22  O   UNL     1       3.890   3.669  19.312  0.00  0.00    +0.000 OA
ENDBRANCH  15  22
BRANCH  20  23
ATOM     23  O   UNL     1       2.085   4.083  21.237  0.00  0.00    +0.000 OA
ATOM     24  C   UNL     1       1.138   3.100  21.026  0.00  0.00    +0.000 C 
ENDBRANCH  20  23
ENDBRANCH   1  18
TORSDOF 3
ENDMDL
MODEL 5
REMARK VINA RESULT:      -6.3      2.873      7.290
REMARK  Name = 
REMARK  5 active torsions:
REMARK  status: ('A' for Active; 'I' for Inactive)
REMARK    1  A    between atoms: C_1  and  O_2
REMARK    2  A    between atoms: O_2  and  C_3
REMARK    3  A    between atoms: C_6  and  C_7
REMARK    4  A    between atoms: C_20  and  O_21
REMARK    5  A    between atoms: O_21  and  C_22
REMARK                            x       y       z     vdW  Elec       q    Type
REMARK                         _______ _______ _______ _____ _____    ______ ____
ROOT
ATOM      1  C   UNL     1       3.450   5.072  17.478  0.00  0.00    +0.000 C 
ATOM      2  O   UNL     1       2.754   4.149  17.084  0.00  0.00    +0.000 OA
ATOM      3  N   UNL     1       4.681   5.319  16.819  0.00  0.00    +0.000 N 
ATOM      4  C   UNL     1       5.647   6.069  17.402  0.00  0.00    +0.000 A 
ATOM      5  N   UNL     1       6.014   5.668  18.694  0.00  0.00    +0.000 N 
ATOM      6  N   UNL     1       6.647   6.410  16.581  0.00  0.00    +0.000 NA
ATOM      7  C   UNL     1       6.470   5.640  15.521  0.00  0.00    +0.000 A 
ATOM      8  C   UNL     1       7.387   5.528  14.496  0.00  0.00    +0.000 A 
ATOM      9  C   UNL     1       7.201   4.480  13.603  0.00  0.00    +0.000 A 
ATOM     10  C   UNL     1       6.102   3.603  13.748  0.00  0.00    +0.000 A 
ATOM     11  C   UNL     1       5.116   3.804  14.775  0.00  0.00    +0.000 A 
ATOM     12  C   UNL     1       5.335   4.868  15.693  0.00  0.00    +0.000 A 
ATOM     13  H   UNL     1       5.434   4.966  19.174  0.00  0.00    +0.000 HD
ATOM     14  H   UNL     1       7.021   5.416  18.749  0.00  0.00    +0.000 HD
ENDROOT
BRANCH   1  18
ATOM     15  C   UNL     1       1.533   7.670  20.630  0.00  0.00    +0.000 A 
ATOM     16  C   UNL     1       1.860   6.330  20.866  0.00  0.00    +0.000 A 
ATOM     17  C   UNL     1       2.490   5.534  19.872  0.00  0.00    +0.000 A 
ATOM     18  C   UNL     1       2.844   6.033  18.584  0.00  0.00    +0.000 A 
ATOM     19  C   UNL     1       2.507   7.410  18.374  0.00  0.00    +0.000 A 
ATOM     20  C   UNL     1       1.866   8.213  19.377  0.00  0.00    +0.000 A 
BRANCH  15  22
ATOM     21  C   UNL     1      -0.454   8.619  21.876  0.00  0.00    +0.000 C 
ATOM     22  O   UNL     1       0.896   8.480  21.549  0.00  0.00    +0.000 OA
ENDBRANCH  15  22
BRANCH  20  23
ATOM     23  O   UNL     1       1.522   9.512  19.166  0.00  0.00    +0.000 OA
ATOM     24  C   UNL     1       0.506   9.992  18.363  0.00  0.00    +0.000 C 
ENDBRANCH  20  23
ENDBRANCH   1  18
TORSDOF 3
ENDMDL
MODEL 6
REMARK VINA RESULT:      -6.2      2.354      7.154
REMARK  Name = 
REMARK  5 active torsions:
REMARK  status: ('A' for Active; 'I' for Inactive)
REMARK    1  A    between atoms: C_1  and  O_2
REMARK    2  A    between atoms: O_2  and  C_3
REMARK    3  A    between atoms: C_6  and  C_7
REMARK    4  A    between atoms: C_20  and  O_21
REMARK    5  A    between atoms: O_21  and  C_22
REMARK                            x       y       z     vdW  Elec       q    Type
REMARK                         _______ _______ _______ _____ _____    ______ ____
ROOT
ATOM      1  C   UNL     1       3.878   4.272  16.541  0.00  0.00    +0.000 C 
ATOM      2  O   UNL     1       3.222   3.376  16.032  0.00  0.00    +0.000 OA
ATOM      3  N   UNL     1       5.075   4.681  15.899  0.00  0.00    +0.000 N 
ATOM      4  C   UNL     1       6.014   5.395  16.564  0.00  0.00    +0.000 A 
ATOM      5  N   UNL     1       6.438   4.838  17.779  0.00  0.00    +0.000 N 
ATOM      6  N   UNL     1       6.972   5.905  15.781  0.00  0.00    +0.000 NA
ATOM      7  C   UNL     1       6.808   5.284  14.626  0.00  0.00    +0.000 A 
ATOM      8  C   UNL     1       7.702   5.371  13.578  0.00  0.00    +0.000 A 
ATOM      9  C   UNL     1       7.548   4.450  12.549  0.00  0.00    +0.000 A 
ATOM     10  C   UNL     1       6.503   3.500  12.588  0.00  0.00    +0.000 A 
ATOM     11  C   UNL     1       5.535   3.497  13.652  0.00  0.00    +0.000 A 
ATOM     12  C   UNL     1       5.721   4.432  14.708  0.00  0.00    +0.000 A 
ATOM     13  H   UNL     1       5.910   4.043  18.166  0.00  0.00    +0.000 HD
ATOM     14  H   UNL     1       7.459   4.638  17.778  0.00  0.00    +0.000 HD
ENDROOT
BRANCH   1  18
ATOM     15  C   UNL     1       2.286   6.566  20.085  0.00  0.00    +0.000 A 
ATOM     16  C   UNL     1       2.529   7.177  18.849  0.00  0.00    +0.000 A 
ATOM     17  C   UNL     1       3.003   6.433  17.735  0.00  0.00    +0.000 A 
ATOM     18  C   UNL     1       3.251   5.031  17.784  0.00  0.00    +0.000 A 
ATOM     19  C   UNL     1       2.983   4.430  19.057  0.00  0.00    +0.000 A 
ATOM     20  C   UNL     1       2.509   5.182  20.185  0.00  0.00    +0.000 A 
BRANCH  15  22
ATOM     21  C   UNL     1       1.074   8.396  21.345  0.00  0.00    +0.000 C 
ATOM     22  O   UNL     1       1.853   7.245  21.207  0.00  0.00    +0.000 OA
ENDBRANCH  15  22
BRANCH  20  23
ATOM     23  O   UNL     1       2.282   4.615  21.400  0.00  0.00    +0.000 OA
ATOM     24  C   UNL     1       2.081   3.279  21.680  0.00  0.00    +0.000 C 
ENDBRANCH  20  23
ENDBRANCH   1  18
TORSDOF 3
ENDMDL
MODEL 7
REMARK VINA RESULT:      -6.1      4.609      6.560
REMARK  Name = 
REMARK  5 active torsions:
REMARK  status: ('A' for Active; 'I' for Inactive)
REMARK    1  A    between atoms: C_1  and  O_2
REMARK    2  A    between atoms: O_2  and  C_3
REMARK    3  A    between atoms: C_6  and  C_7
REMARK    4  A    between atoms: C_20  and  O_21
REMARK    5  A    between atoms: O_21  and  C_22
REMARK                            x       y       z     vdW  Elec       q    Type
REMARK                         _______ _______ _______ _____ _____    ______ ____
ROOT
ATOM      1  C   UNL     1       2.396   8.196  18.282  0.00  0.00    +0.000 C 
ATOM      2  O   UNL     1       2.885   8.908  17.418  0.00  0.00    +0.000 OA
ATOM      3  N   UNL     1       1.479   8.776  19.196  0.00  0.00    +0.000 N 
ATOM      4  C   UNL     1       1.177   8.162  20.364  0.00  0.00    +0.000 A 
ATOM      5  N   UNL     1       2.280   7.805  21.153  0.00  0.00    +0.000 N 
ATOM      6  N   UNL     1       0.136   8.698  21.012  0.00  0.00    +0.000 NA
ATOM      7  C   UNL     1      -0.071   9.848  20.394  0.00  0.00    +0.000 A 
ATOM      8  C   UNL     1      -0.939  10.817  20.853  0.00  0.00    +0.000 A 
ATOM      9  C   UNL     1      -0.840  12.072  20.267  0.00  0.00    +0.000 A 
ATOM     10  C   UNL     1       0.096  12.308  19.234  0.00  0.00    +0.000 A 
ATOM     11  C   UNL     1       0.923  11.250  18.718  0.00  0.00    +0.000 A 
ATOM     12  C   UNL     1       0.824   9.978  19.346  0.00  0.00    +0.000 A 
ATOM     13  H   UNL     1       3.221   7.867  20.738  0.00  0.00    +0.000 HD
ATOM     14  H   UNL     1       2.256   8.265  22.085  0.00  0.00    +0.000 HD
ENDROOT
BRANCH   1  18
ATOM     15  C   UNL     1       3.332   3.802  17.863  0.00  0.00    +0.000 A 
ATOM     16  C   UNL     1       4.336   4.775  17.940  0.00  0.00    +0.000 A 
ATOM     17  C   UNL     1       4.024   6.151  18.101  0.00  0.00    +0.000 A 
ATOM     18  C   UNL     1       2.689   6.640  18.208  0.00  0.00    +0.000 A 
ATOM     19  C   UNL     1       1.683   5.622  18.135  0.00  0.00    +0.000 A 
ATOM     20  C   UNL     1       1.997   4.231  17.968  0.00  0.00    +0.000 A 
BRANCH  15  22
ATOM     21  C   UNL     1       3.898   1.444  18.586  0.00  0.00    +0.000 C 
ATOM     22  O   UNL     1       3.577   2.456  17.678  0.00  0.00    +0.000 OA
ENDBRANCH  15  22
BRANCH  20  23
ATOM     23  O   UNL     1       1.041   3.270  17.871  0.00  0.00    +0.000 OA
ATOM     24  C   UNL     1       0.458   2.557  18.900  0.00  0.00    +0.000 C 
ENDBRANCH  20  23
ENDBRANCH   1  18
TORSDOF 3
ENDMDL
MODEL 8
REMARK VINA RESULT:      -6.0      5.423      7.536
REMARK  Name = 
REMARK  5 active torsions:
REMARK  status: ('A' for Active; 'I' for Inactive)
REMARK    1  A    between atoms: C_1  and  O_2
REMARK    2  A    between atoms: O_2  and  C_3
REMARK    3  A    between atoms: C_6  and  C_7
REMARK    4  A    between atoms: C_20  and  O_21
REMARK    5  A    between atoms: O_21  and  C_22
REMARK                            x       y       z     vdW  Elec       q    Type
REMARK                         _______ _______ _______ _____ _____    ______ ____
ROOT
ATOM      1  C   UNL     1       1.257   8.886  19.878  0.00  0.00    +0.000 C 
ATOM      2  O   UNL     1       1.264   9.504  18.825  0.00  0.00    +0.000 OA
ATOM      3  N   UNL     1       0.583   9.455  20.990  0.00  0.00    +0.000 N 
ATOM      4  C   UNL     1       0.826   9.019  22.249  0.00  0.00    +0.000 A 
ATOM      5  N   UNL     1       2.176   9.005  22.626  0.00  0.00    +0.000 N 
ATOM      6  N   UNL     1      -0.039   9.476  23.163  0.00  0.00    +0.000 NA
ATOM      7  C   UNL     1      -0.688  10.443  22.538  0.00  0.00    +0.000 A 
ATOM      8  C   UNL     1      -1.552  11.315  23.168  0.00  0.00    +0.000 A 
ATOM      9  C   UNL     1      -1.933  12.442  22.451  0.00  0.00    +0.000 A 
ATOM     10  C   UNL     1      -1.464  12.645  21.133  0.00  0.00    +0.000 A 
ATOM     11  C   UNL     1      -0.637  11.670  20.476  0.00  0.00    +0.000 A 
ATOM     12  C   UNL     1      -0.238  10.533  21.233  0.00  0.00    +0.000 A 
ATOM     13  H   UNL     1       2.890   9.152  21.899  0.00  0.00    +0.000 HD
ATOM     14  H   UNL     1       2.355   9.614  23.449  0.00  0.00    +0.000 HD
ENDROOT
BRANCH   1  18
ATOM     15  C   UNL     1       2.980   4.722  20.101  0.00  0.00    +0.000 A 
ATOM     16  C   UNL     1       1.806   5.081  20.774  0.00  0.00    +0.000 A 
ATOM     17  C   UNL     1       1.261   6.389  20.669  0.00  0.00    +0.000 A 
ATOM     18  C   UNL     1       1.850   7.416  19.875  0.00  0.00    +0.000 A 
ATOM     19  C   UNL     1       3.043   7.018  19.189  0.00  0.00    +0.000 A 
ATOM     20  C   UNL     1       3.597   5.698  19.298  0.00  0.00    +0.000 A 
BRANCH  15  22
ATOM     21  C   UNL     1       3.273   2.270  19.551  0.00  0.00    +0.000 C 
ATOM     22  O   UNL     1       3.568   3.476  20.189  0.00  0.00    +0.000 OA
ENDBRANCH  15  22
BRANCH  20  23
ATOM     23  O   UNL     1       4.745   5.330  18.670  0.00  0.00    +0.000 OA
ATOM     24  C   UNL     1       6.038   5.460  19.136  0.00  0.00    +0.000 C 
ENDBRANCH  20  23
ENDBRANCH   1  18
TORSDOF 3
ENDMDL
MODEL 9
REMARK VINA RESULT:      -6.0      2.507      7.139
REMARK  Name = 
REMARK  5 active torsions:
REMARK  status: ('A' for Active; 'I' for Inactive)
REMARK    1  A    between atoms: C_1  and  O_2
REMARK    2  A    between atoms: O_2  and  C_3
REMARK    3  A    between atoms: C_6  and  C_7
REMARK    4  A    between atoms: C_20  and  O_21
REMARK    5  A    between atoms: O_21  and  C_22
REMARK                            x       y       z     vdW  Elec       q    Type
REMARK                         _______ _______ _______ _____ _____    ______ ____
ROOT
ATOM      1  C   UNL     1       3.953   4.464  16.727  0.00  0.00    +0.000 C 
ATOM      2  O   UNL     1       3.256   3.565  16.282  0.00  0.00    +0.000 OA
ATOM      3  N   UNL     1       5.134   4.813  16.022  0.00  0.00    +0.000 N 
ATOM      4  C   UNL     1       6.116   5.529  16.620  0.00  0.00    +0.000 A 
ATOM      5  N   UNL     1       6.574   5.011  17.840  0.00  0.00    +0.000 N 
ATOM      6  N   UNL     1       7.054   5.981  15.779  0.00  0.00    +0.000 NA
ATOM      7  C   UNL     1       6.829   5.318  14.659  0.00  0.00    +0.000 A 
ATOM      8  C   UNL     1       7.682   5.338  13.574  0.00  0.00    +0.000 A 
ATOM      9  C   UNL     1       7.465   4.380  12.591  0.00  0.00    +0.000 A 
ATOM     10  C   UNL     1       6.398   3.461  12.711  0.00  0.00    +0.000 A 
ATOM     11  C   UNL     1       5.474   3.527  13.811  0.00  0.00    +0.000 A 
ATOM     12  C   UNL     1       5.725   4.499  14.819  0.00  0.00    +0.000 A 
ATOM     13  H   UNL     1       6.042   4.247  18.280  0.00  0.00    +0.000 HD
ATOM     14  H   UNL     1       7.589   4.784  17.808  0.00  0.00    +0.000 HD
ENDROOT
BRANCH   1  18
ATOM     15  C   UNL     1       2.174   6.677  20.233  0.00  0.00    +0.000 A 
ATOM     16  C   UNL     1       2.503   5.318  20.298  0.00  0.00    +0.000 A 
ATOM     17  C   UNL     1       3.089   4.643  19.193  0.00  0.00    +0.000 A 
ATOM     18  C   UNL     1       3.395   5.289  17.960  0.00  0.00    +0.000 A 
ATOM     19  C   UNL     1       3.059   6.681  17.926  0.00  0.00    +0.000 A 
ATOM     20  C   UNL     1       2.461   7.363  19.040  0.00  0.00    +0.000 A 
BRANCH  15  22
ATOM     21  C   UNL     1       0.465   8.218  21.285  0.00  0.00    +0.000 C 
ATOM     22  O   UNL     1       1.578   7.374  21.265  0.00  0.00    +0.000 OA
ENDBRANCH  15  22
BRANCH  20  23
ATOM     23  O   UNL     1       2.117   8.677  18.996  0.00  0.00    +0.000 OA
ATOM     24  C   UNL     1       1.792   9.425  17.881  0.00  0.00    +0.000 C 
ENDBRANCH  20  23
ENDBRANCH   1  18
TORSDOF 3
ENDMDL
