MODEL 1
REMARK VINA RESULT:      -7.3      0.000      0.000
REMARK  Name = 
REMARK  3 active torsions:
REMARK  status: ('A' for Active; 'I' for Inactive)
REMARK    1  A    between atoms: C_1  and  C_2
REMARK    2  A    between atoms: C_2  and  N_3
REMARK    3  A    between atoms: C_4  and  C_5
REMARK                            x       y       z     vdW  Elec       q    Type
REMARK                         _______ _______ _______ _____ _____    ______ ____
ROOT
ATOM      1  N   UNL     1       2.159   7.297  19.273  0.00  0.00    +0.000 N 
ATOM      2  C   UNL     1       2.612   8.206  18.349  0.00  0.00    +0.000 A 
ATOM      3  C   UNL     1       3.760   7.721  17.735  0.00  0.00    +0.000 A 
ATOM      4  C   UNL     1       3.989   6.466  18.247  0.00  0.00    +0.000 A 
ATOM      5  C   UNL     1       3.029   6.227  19.204  0.00  0.00    +0.000 A 
ATOM      6  C   UNL     1       3.042   4.926  19.943  0.00  0.00    +0.000 A 
ATOM      7  C   UNL     1       2.185   4.552  20.998  0.00  0.00    +0.000 A 
ATOM      8  C   UNL     1       2.362   3.328  21.649  0.00  0.00    +0.000 A 
ATOM      9  N   UNL     1       3.359   2.489  21.272  0.00  0.00    +0.000 NA
ATOM     10  C   UNL     1       4.190   2.797  20.246  0.00  0.00    +0.000 A 
ATOM     11  C   UNL     1       4.043   4.004  19.553  0.00  0.00    +0.000 A 
ATOM     12  O   UNL     1       4.866   4.245  18.501  0.00  0.00    +0.000 OA
ATOM     13  C   UNL     1       4.960   5.405  17.733  0.00  0.00    +0.000 C 
ATOM     14  C   UNL     1       4.449   5.137  16.297  0.00  0.00    +0.000 C 
ATOM     15  C   UNL     1       5.198   4.023  15.583  0.00  0.00    +0.000 C 
ATOM     16  C   UNL     1       6.696   4.324  15.542  0.00  0.00    +0.000 C 
ATOM     17  C   UNL     1       7.239   4.591  16.957  0.00  0.00    +0.000 C 
ATOM     18  C   UNL     1       6.471   5.765  17.643  0.00  0.00    +0.000 C 
ENDROOT
BRANCH   2  19
ATOM     19  C   UNL     1       1.929   9.478  17.931  0.00  0.00    +0.000 C 
ATOM     20  N   UNL     1       0.614   9.501  17.618  0.00  0.00    +0.000 N 
ATOM     21  O   UNL     1       2.539  10.536  17.917  0.00  0.00    +0.000 OA
ATOM     22  H   UNL     1       0.030   8.657  17.620  0.00  0.00    +0.000 HD
ATOM     23  H   UNL     1       0.161  10.396  17.373  0.00  0.00    +0.000 HD
ENDBRANCH   2  19
BRANCH   1  25
ATOM     24  C   UNL     1       1.179   8.267  21.328  0.00  0.00    +0.000 C 
ATOM     25  C   UNL     1       0.925   7.432  20.063  0.00  0.00    +0.000 C 
ENDBRANCH   1  25
TORSDOF 2
ENDMDL
MODEL 2
REMARK VINA RESULT:      -6.9      2.409      5.711
REMARK  Name = 
REMARK  3 active torsions:
REMARK  status: ('A' for Active; 'I' for Inactive)
REMARK    1  A    between atoms: C_1  and  C_2
REMARK    2  A    between atoms: C_2  and  N_3
REMARK    3  A    between atoms: C_4  and  C_5
REMARK                            x       y       z     vdW  Elec       q    Type
REMARK                         _______ _______ _______ _____ _____    ______ ____
ROOT
ATOM      1  N   UNL     1       5.668   6.250  17.531  0.00  0.00    +0.000 N 
ATOM      2  C   UNL     1       6.218   5.015  17.770  0.00  0.00    +0.000 A 
ATOM      3  C   UNL     1       5.352   4.256  18.547  0.00  0.00    +0.000 A 
ATOM      4  C   UNL     1       4.222   5.013  18.744  0.00  0.00    +0.000 A 
ATOM      5  C   UNL     1       4.433   6.236  18.149  0.00  0.00    +0.000 A 
ATOM      6  C   UNL     1       3.360   7.277  18.218  0.00  0.00    +0.000 A 
ATOM      7  C   UNL     1       3.440   8.598  17.732  0.00  0.00    +0.000 A 
ATOM      8  C   UNL     1       2.382   9.488  17.934  0.00  0.00    +0.000 A 
ATOM      9  N   UNL     1       1.269   9.090  18.599  0.00  0.00    +0.000 NA
ATOM     10  C   UNL     1       1.139   7.822  19.061  0.00  0.00    +0.000 A 
ATOM     11  C   UNL     1       2.164   6.889  18.870  0.00  0.00    +0.000 A 
ATOM     12  O   UNL     1       1.967   5.619  19.305  0.00  0.00    +0.000 OA
ATOM     13  C   UNL     1       2.875   4.560  19.304  0.00  0.00    +0.000 C 
ATOM     14  C   UNL     1       2.428   3.476  18.294  0.00  0.00    +0.000 C 
ATOM     15  C   UNL     1       1.041   2.922  18.571  0.00  0.00    +0.000 C 
ATOM     16  C   UNL     1       0.960   2.359  19.990  0.00  0.00    +0.000 C 
ATOM     17  C   UNL     1       1.393   3.415  21.023  0.00  0.00    +0.000 C 
ATOM     18  C   UNL     1       2.837   3.933  20.727  0.00  0.00    +0.000 C 
ENDROOT
BRANCH   2  19
ATOM     19  C   UNL     1       7.493   4.472  17.187  0.00  0.00    +0.000 C 
ATOM     20  N   UNL     1       7.690   4.421  15.851  0.00  0.00    +0.000 N 
ATOM     21  O   UNL     1       8.406   4.114  17.915  0.00  0.00    +0.000 OA
ATOM     22  H   UNL     1       6.977   4.717  15.174  0.00  0.00    +0.000 HD
ATOM     23  H   UNL     1       8.591   4.081  15.478  0.00  0.00    +0.000 HD
ENDBRANCH   2  19
BRANCH   1  25
ATOM     24  C   UNL     1       7.434   7.978  17.402  0.00  0.00    +0.000 C 
ATOM     25  C   UNL     1       6.261   7.295  16.681  0.00  0.00    +0.000 C 
ENDBRANCH   1  25
TORSDOF 2
ENDMDL
MODEL 3
REMARK VINA RESULT:      -6.5      8.741     10.454
REMARK  Name = 
REMARK  3 active torsions:
REMARK  status: ('A' for Active; 'I' for Inactive)
REMARK    1  A    between atoms: C_1  and  C_2
REMARK    2  A    between atoms: C_2  and  N_3
REMARK    3  A    between atoms: C_4  and  C_5
REMARK                            x       y       z     vdW  Elec       q    Type
REMARK                         _______ _______ _______ _____ _____    ______ ____
ROOT
ATOM      1  N   UNL     1       7.454  13.732  22.721  0.00  0.00    +0.000 N 
ATOM      2  C   UNL     1       7.907  12.505  23.139  0.00  0.00    +0.000 A 
ATOM      3  C   UNL     1       8.629  11.896  22.120  0.00  0.00    +0.000 A 
ATOM      4  C   UNL     1       8.672  12.786  21.073  0.00  0.00    +0.000 A 
ATOM      5  C   UNL     1       7.930  13.888  21.435  0.00  0.00    +0.000 A 
ATOM      6  C   UNL     1       7.792  15.025  20.471  0.00  0.00    +0.000 A 
ATOM      7  C   UNL     1       7.013  16.186  20.649  0.00  0.00    +0.000 A 
ATOM      8  C   UNL     1       6.919  17.134  19.626  0.00  0.00    +0.000 A 
ATOM      9  N   UNL     1       7.576  16.946  18.454  0.00  0.00    +0.000 NA
ATOM     10  C   UNL     1       8.357  15.857  18.250  0.00  0.00    +0.000 A 
ATOM     11  C   UNL     1       8.495  14.887  19.249  0.00  0.00    +0.000 A 
ATOM     12  O   UNL     1       9.328  13.840  19.018  0.00  0.00    +0.000 OA
ATOM     13  C   UNL     1       9.546  12.723  19.822  0.00  0.00    +0.000 C 
ATOM     14  C   UNL     1      10.981  12.755  20.402  0.00  0.00    +0.000 C 
ATOM     15  C   UNL     1      12.065  12.804  19.338  0.00  0.00    +0.000 C 
ATOM     16  C   UNL     1      11.931  11.621  18.380  0.00  0.00    +0.000 C 
ATOM     17  C   UNL     1      10.515  11.561  17.779  0.00  0.00    +0.000 C 
ATOM     18  C   UNL     1       9.431  11.474  18.901  0.00  0.00    +0.000 C 
ENDROOT
BRANCH   2  19
ATOM     19  C   UNL     1       7.785  11.926  24.521  0.00  0.00    +0.000 C 
ATOM     20  N   UNL     1       8.606  12.315  25.522  0.00  0.00    +0.000 N 
ATOM     21  O   UNL     1       6.900  11.127  24.785  0.00  0.00    +0.000 OA
ATOM     22  H   UNL     1       9.365  12.993  25.384  0.00  0.00    +0.000 HD
ATOM     23  H   UNL     1       8.475  11.931  26.471  0.00  0.00    +0.000 HD
ENDBRANCH   2  19
BRANCH   1  25
ATOM     24  C   UNL     1       5.205  14.450  23.462  0.00  0.00    +0.000 C 
ATOM     25  C   UNL     1       6.719  14.696  23.556  0.00  0.00    +0.000 C 
ENDBRANCH   1  25
TORSDOF 2
ENDMDL
MODEL 4
REMARK VINA RESULT:      -6.4      2.311      5.700
REMARK  Name = 
REMARK  3 active torsions:
REMARK  status: ('A' for Active; 'I' for Inactive)
REMARK    1  A    between atoms: C_1  and  C_2
REMARK    2  A    between atoms: C_2  and  N_3
REMARK    3  A    between atoms: C_4  and  C_5
REMARK                            x       y       z     vdW  Elec       q    Type
REMARK                         _______ _______ _______ _____ _____    ______ ____
ROOT
ATOM      1  N   UNL     1       5.130   6.045  17.111  0.00  0.00    +0.000 N 
ATOM      2  C   UNL     1       5.681   4.795  17.246  0.00  0.00    +0.000 A 
ATOM      3  C   UNL     1       5.032   4.101  18.259  0.00  0.00    +0.000 A 
ATOM      4  C   UNL     1       4.025   4.914  18.720  0.00  0.00    +0.000 A 
ATOM      5  C   UNL     1       4.109   6.107  18.038  0.00  0.00    +0.000 A 
ATOM      6  C   UNL     1       3.131   7.196  18.348  0.00  0.00    +0.000 A 
ATOM      7  C   UNL     1       3.122   8.496  17.802  0.00  0.00    +0.000 A 
ATOM      8  C   UNL     1       2.189   9.438  18.243  0.00  0.00    +0.000 A 
ATOM      9  N   UNL     1       1.285   9.112  19.199  0.00  0.00    +0.000 NA
ATOM     10  C   UNL     1       1.241   7.867  19.733  0.00  0.00    +0.000 A 
ATOM     11  C   UNL     1       2.143   6.884  19.313  0.00  0.00    +0.000 A 
ATOM     12  O   UNL     1       2.028   5.638  19.840  0.00  0.00    +0.000 OA
ATOM     13  C   UNL     1       2.864   4.540  19.640  0.00  0.00    +0.000 C 
ATOM     14  C   UNL     1       2.124   3.445  18.835  0.00  0.00    +0.000 C 
ATOM     15  C   UNL     1       0.845   2.963  19.498  0.00  0.00    +0.000 C 
ATOM     16  C   UNL     1       1.131   2.450  20.910  0.00  0.00    +0.000 C 
ATOM     17  C   UNL     1       1.864   3.518  21.742  0.00  0.00    +0.000 C 
ATOM     18  C   UNL     1       3.191   3.961  21.047  0.00  0.00    +0.000 C 
ENDROOT
BRANCH   2  19
ATOM     19  C   UNL     1       6.732   4.178  16.366  0.00  0.00    +0.000 C 
ATOM     20  N   UNL     1       6.400   3.366  15.337  0.00  0.00    +0.000 N 
ATOM     21  O   UNL     1       7.913   4.441  16.528  0.00  0.00    +0.000 OA
ATOM     22  H   UNL     1       5.429   3.108  15.126  0.00  0.00    +0.000 HD
ATOM     23  H   UNL     1       7.139   2.987  14.724  0.00  0.00    +0.000 HD
ENDBRANCH   2  19
BRANCH   1  25
ATOM     24  C   UNL     1       4.898   6.668  14.727  0.00  0.00    +0.000 C 
ATOM     25  C   UNL     1       5.508   7.035  16.089  0.00  0.00    +0.000 C 
ENDBRANCH   1  25
TORSDOF 2
ENDMDL
MODEL 5
REMARK VINA RESULT:      -6.2      6.813     11.084
REMARK  Name = 
REMARK  3 active torsions:
REMARK  status: ('A' for Active; 'I' for Inactive)
REMARK    1  A    between atoms: C_1  and  C_2
REMARK    2  A    between atoms: C_2  and  N_3
REMARK    3  A    between atoms: C_4  and  C_5
REMARK                            x       y       z     vdW  Elec       q    Type
REMARK                         _______ _______ _______ _____ _____    ______ ____
ROOT
ATOM      1  N   UNL     1      -2.341  11.199  18.589  0.00  0.00    +0.000 N 
ATOM      2  C   UNL     1      -1.137  11.488  19.183  0.00  0.00    +0.000 A 
ATOM      3  C   UNL     1      -1.330  12.381  20.229  0.00  0.00    +0.000 A 
ATOM      4  C   UNL     1      -2.683  12.604  20.321  0.00  0.00    +0.000 A 
ATOM      5  C   UNL     1      -3.289  11.905  19.301  0.00  0.00    +0.000 A 
ATOM      6  C   UNL     1      -4.777  11.974  19.151  0.00  0.00    +0.000 A 
ATOM      7  C   UNL     1      -5.544  11.386  18.125  0.00  0.00    +0.000 A 
ATOM      8  C   UNL     1      -6.925  11.599  18.069  0.00  0.00    +0.000 A 
ATOM      9  N   UNL     1      -7.538  12.372  19.000  0.00  0.00    +0.000 NA
ATOM     10  C   UNL     1      -6.842  12.935  20.018  0.00  0.00    +0.000 A 
ATOM     11  C   UNL     1      -5.461  12.739  20.126  0.00  0.00    +0.000 A 
ATOM     12  O   UNL     1      -4.817  13.281  21.191  0.00  0.00    +0.000 OA
ATOM     13  C   UNL     1      -3.447  13.293  21.451  0.00  0.00    +0.000 C 
ATOM     14  C   UNL     1      -3.129  12.402  22.676  0.00  0.00    +0.000 C 
ATOM     15  C   UNL     1      -3.863  12.821  23.938  0.00  0.00    +0.000 C 
ATOM     16  C   UNL     1      -3.559  14.280  24.278  0.00  0.00    +0.000 C 
ATOM     17  C   UNL     1      -3.869  15.196  23.081  0.00  0.00    +0.000 C 
ATOM     18  C   UNL     1      -3.069  14.758  21.814  0.00  0.00    +0.000 C 
ENDROOT
BRANCH   2  19
ATOM     19  C   UNL     1       0.191  10.855  18.874  0.00  0.00    +0.000 C 
ATOM     20  N   UNL     1       1.168  11.543  18.243  0.00  0.00    +0.000 N 
ATOM     21  O   UNL     1       0.437   9.715  19.238  0.00  0.00    +0.000 OA
ATOM     22  H   UNL     1       1.045  12.509  17.918  0.00  0.00    +0.000 HD
ATOM     23  H   UNL     1       2.085  11.097  18.078  0.00  0.00    +0.000 HD
ENDBRANCH   2  19
BRANCH   1  25
ATOM     24  C   UNL     1      -2.573  10.949  16.138  0.00  0.00    +0.000 C 
ATOM     25  C   UNL     1      -2.539  10.232  17.496  0.00  0.00    +0.000 C 
ENDBRANCH   1  25
TORSDOF 2
ENDMDL
MODEL 6
REMARK VINA RESULT:      -6.0      7.148     11.007
REMARK  Name = 
REMARK  3 active torsions:
REMARK  status: ('A' for Active; 'I' for Inactive)
REMARK    1  A    between atoms: C_1  and  C_2
REMARK    2  A    between atoms: C_2  and  N_3
REMARK    3  A    between atoms: C_4  and  C_5
REMARK                            x       y       z     vdW  Elec       q    Type
REMARK                         _______ _______ _______ _____ _____    ______ ____
ROOT
ATOM      1  N   UNL     1      -1.426  12.120  20.096  0.00  0.00    +0.000 N 
ATOM      2  C   UNL     1      -1.666  12.836  21.243  0.00  0.00    +0.000 A 
ATOM      3  C   UNL     1      -2.968  13.320  21.233  0.00  0.00    +0.000 A 
ATOM      4  C   UNL     1      -3.562  12.847  20.088  0.00  0.00    +0.000 A 
ATOM      5  C   UNL     1      -2.610  12.143  19.386  0.00  0.00    +0.000 A 
ATOM      6  C   UNL     1      -2.980  11.519  18.077  0.00  0.00    +0.000 A 
ATOM      7  C   UNL     1      -2.114  10.834  17.200  0.00  0.00    +0.000 A 
ATOM      8  C   UNL     1      -2.584  10.366  15.970  0.00  0.00    +0.000 A 
ATOM      9  N   UNL     1      -3.876  10.567  15.608  0.00  0.00    +0.000 NA
ATOM     10  C   UNL     1      -4.749  11.198  16.431  0.00  0.00    +0.000 A 
ATOM     11  C   UNL     1      -4.331  11.670  17.680  0.00  0.00    +0.000 A 
ATOM     12  O   UNL     1      -5.253  12.250  18.490  0.00  0.00    +0.000 OA
ATOM     13  C   UNL     1      -5.046  12.868  19.723  0.00  0.00    +0.000 C 
ATOM     14  C   UNL     1      -5.691  12.031  20.854  0.00  0.00    +0.000 C 
ATOM     15  C   UNL     1      -7.183  11.809  20.669  0.00  0.00    +0.000 C 
ATOM     16  C   UNL     1      -7.914  13.146  20.545  0.00  0.00    +0.000 C 
ATOM     17  C   UNL     1      -7.300  14.003  19.424  0.00  0.00    +0.000 C 
ATOM     18  C   UNL     1      -5.776  14.241  19.667  0.00  0.00    +0.000 C 
ENDROOT
BRANCH   2  19
ATOM     19  C   UNL     1      -0.740  12.984  22.418  0.00  0.00    +0.000 C 
ATOM     20  N   UNL     1      -0.044  14.124  22.627  0.00  0.00    +0.000 N 
ATOM     21  O   UNL     1      -0.638  12.092  23.246  0.00  0.00    +0.000 OA
ATOM     22  H   UNL     1      -0.087  14.924  21.985  0.00  0.00    +0.000 HD
ATOM     23  H   UNL     1       0.554  14.214  23.464  0.00  0.00    +0.000 HD
ENDBRANCH   2  19
BRANCH   1  25
ATOM     24  C   UNL     1      -0.258   9.949  20.308  0.00  0.00    +0.000 C 
ATOM     25  C   UNL     1      -0.183  11.394  19.791  0.00  0.00    +0.000 C 
ENDBRANCH   1  25
TORSDOF 2
ENDMDL
MODEL 7
REMARK VINA RESULT:      -6.0      7.538     10.216
REMARK  Name = 
REMARK  3 active torsions:
REMARK  status: ('A' for Active; 'I' for Inactive)
REMARK    1  A    between atoms: C_1  and  C_2
REMARK    2  A    between atoms: C_2  and  N_3
REMARK    3  A    between atoms: C_4  and  C_5
REMARK                            x       y       z     vdW  Elec       q    Type
REMARK                         _______ _______ _______ _____ _____    ______ ____
ROOT
ATOM      1  N   UNL     1      -4.933  12.728  21.190  0.00  0.00    +0.000 N 
ATOM      2  C   UNL     1      -4.405  12.981  22.432  0.00  0.00    +0.000 A 
ATOM      3  C   UNL     1      -3.037  12.743  22.421  0.00  0.00    +0.000 A 
ATOM      4  C   UNL     1      -2.702  12.393  21.134  0.00  0.00    +0.000 A 
ATOM      5  C   UNL     1      -3.865  12.356  20.398  0.00  0.00    +0.000 A 
ATOM      6  C   UNL     1      -3.801  11.989  18.949  0.00  0.00    +0.000 A 
ATOM      7  C   UNL     1      -4.896  11.831  18.075  0.00  0.00    +0.000 A 
ATOM      8  C   UNL     1      -4.690  11.409  16.759  0.00  0.00    +0.000 A 
ATOM      9  N   UNL     1      -3.437  11.146  16.310  0.00  0.00    +0.000 NA
ATOM     10  C   UNL     1      -2.354  11.309  17.109  0.00  0.00    +0.000 A 
ATOM     11  C   UNL     1      -2.507  11.745  18.430  0.00  0.00    +0.000 A 
ATOM     12  O   UNL     1      -1.389  11.942  19.175  0.00  0.00    +0.000 OA
ATOM     13  C   UNL     1      -1.306  12.281  20.525  0.00  0.00    +0.000 C 
ATOM     14  C   UNL     1      -0.745  13.715  20.682  0.00  0.00    +0.000 C 
ATOM     15  C   UNL     1       0.625  13.904  20.051  0.00  0.00    +0.000 C 
ATOM     16  C   UNL     1       1.624  12.901  20.627  0.00  0.00    +0.000 C 
ATOM     17  C   UNL     1       1.100  11.461  20.483  0.00  0.00    +0.000 C 
ATOM     18  C   UNL     1      -0.291  11.296  21.174  0.00  0.00    +0.000 C 
ENDROOT
BRANCH   2  19
ATOM     19  C   UNL     1      -5.131  13.559  23.615  0.00  0.00    +0.000 C 
ATOM     20  N   UNL     1      -5.677  12.766  24.563  0.00  0.00    +0.000 N 
ATOM     21  O   UNL     1      -5.195  14.769  23.775  0.00  0.00    +0.000 OA
ATOM     22  H   UNL     1      -5.652  11.740  24.509  0.00  0.00    +0.000 HD
ATOM     23  H   UNL     1      -6.135  13.190  25.386  0.00  0.00    +0.000 HD
ENDBRANCH   2  19
BRANCH   1  25
ATOM     24  C   UNL     1      -7.172  11.681  21.069  0.00  0.00    +0.000 C 
ATOM     25  C   UNL     1      -6.337  12.943  20.803  0.00  0.00    +0.000 C 
ENDBRANCH   1  25
TORSDOF 2
ENDMDL
MODEL 8
REMARK VINA RESULT:      -6.0      9.070     10.944
REMARK  Name = 
REMARK  3 active torsions:
REMARK  status: ('A' for Active; 'I' for Inactive)
REMARK    1  A    between atoms: C_1  and  C_2
REMARK    2  A    between atoms: C_2  and  N_3
REMARK    3  A    between atoms: C_4  and  C_5
REMARK                            x       y       z     vdW  Elec       q    Type
REMARK                         _______ _______ _______ _____ _____    ______ ____
ROOT
ATOM      1  N   UNL     1       7.950  13.971  22.981  0.00  0.00    +0.000 N 
ATOM      2  C   UNL     1       8.083  12.632  23.253  0.00  0.00    +0.000 A 
ATOM      3  C   UNL     1       8.638  11.981  22.159  0.00  0.00    +0.000 A 
ATOM      4  C   UNL     1       8.907  12.943  21.214  0.00  0.00    +0.000 A 
ATOM      5  C   UNL     1       8.458  14.147  21.709  0.00  0.00    +0.000 A 
ATOM      6  C   UNL     1       8.613  15.382  20.878  0.00  0.00    +0.000 A 
ATOM      7  C   UNL     1       8.145  16.673  21.198  0.00  0.00    +0.000 A 
ATOM      8  C   UNL     1       8.295  17.722  20.287  0.00  0.00    +0.000 A 
ATOM      9  N   UNL     1       8.892  17.509  19.088  0.00  0.00    +0.000 NA
ATOM     10  C   UNL     1       9.380  16.290  18.750  0.00  0.00    +0.000 A 
ATOM     11  C   UNL     1       9.268  15.212  19.634  0.00  0.00    +0.000 A 
ATOM     12  O   UNL     1       9.816  14.024  19.273  0.00  0.00    +0.000 OA
ATOM     13  C   UNL     1       9.746  12.805  19.946  0.00  0.00    +0.000 C 
ATOM     14  C   UNL     1      11.140  12.417  20.495  0.00  0.00    +0.000 C 
ATOM     15  C   UNL     1      12.209  12.314  19.420  0.00  0.00    +0.000 C 
ATOM     16  C   UNL     1      11.792  11.315  18.341  0.00  0.00    +0.000 C 
ATOM     17  C   UNL     1      10.410  11.674  17.768  0.00  0.00    +0.000 C 
ATOM     18  C   UNL     1       9.331  11.734  18.896  0.00  0.00    +0.000 C 
ENDROOT
BRANCH   2  19
ATOM     19  C   UNL     1       7.813  11.952  24.566  0.00  0.00    +0.000 C 
ATOM     20  N   UNL     1       8.508  12.270  25.680  0.00  0.00    +0.000 N 
ATOM     21  O   UNL     1       6.915  11.130  24.668  0.00  0.00    +0.000 OA
ATOM     22  H   UNL     1       9.268  12.961  25.680  0.00  0.00    +0.000 HD
ATOM     23  H   UNL     1       8.276  11.816  26.578  0.00  0.00    +0.000 HD
ENDBRANCH   2  19
BRANCH   1  25
ATOM     24  C   UNL     1       8.651  15.638  24.670  0.00  0.00    +0.000 C 
ATOM     25  C   UNL     1       7.471  14.988  23.931  0.00  0.00    +0.000 C 
ENDBRANCH   1  25
TORSDOF 2
ENDMDL
MODEL 9
REMARK VINA RESULT:      -6.0      7.013      9.826
REMARK  Name = 
REMARK  3 active torsions:
REMARK  status: ('A' for Active; 'I' for Inactive)
REMARK    1  A    between atoms: C_1  and  C_2
REMARK    2  A    between atoms: C_2  and  N_3
REMARK    3  A    between atoms: C_4  and  C_5
REMARK                            x       y       z     vdW  Elec       q    Type
REMARK                         _______ _______ _______ _____ _____    ______ ____
ROOT
ATOM      1  N   UNL     1      -4.950  12.459  20.233  0.00  0.00    +0.000 N 
ATOM      2  C   UNL     1      -4.958  11.932  18.966  0.00  0.00    +0.000 A 
ATOM      3  C   UNL     1      -3.657  11.823  18.492  0.00  0.00    +0.000 A 
ATOM      4  C   UNL     1      -2.826  12.236  19.506  0.00  0.00    +0.000 A 
ATOM      5  C   UNL     1      -3.620  12.650  20.551  0.00  0.00    +0.000 A 
ATOM      6  C   UNL     1      -2.975  13.166  21.799  0.00  0.00    +0.000 A 
ATOM      7  C   UNL     1      -3.634  13.697  22.926  0.00  0.00    +0.000 A 
ATOM      8  C   UNL     1      -2.896  14.215  23.994  0.00  0.00    +0.000 A 
ATOM      9  N   UNL     1      -1.540  14.211  23.956  0.00  0.00    +0.000 NA
ATOM     10  C   UNL     1      -0.866  13.688  22.904  0.00  0.00    +0.000 A 
ATOM     11  C   UNL     1      -1.559  13.143  21.817  0.00  0.00    +0.000 A 
ATOM     12  O   UNL     1      -0.840  12.585  20.810  0.00  0.00    +0.000 OA
ATOM     13  C   UNL     1      -1.310  12.072  19.602  0.00  0.00    +0.000 C 
ATOM     14  C   UNL     1      -1.125  10.536  19.567  0.00  0.00    +0.000 C 
ATOM     15  C   UNL     1       0.316  10.092  19.751  0.00  0.00    +0.000 C 
ATOM     16  C   UNL     1       1.216  10.737  18.697  0.00  0.00    +0.000 C 
ATOM     17  C   UNL     1       1.062  12.268  18.708  0.00  0.00    +0.000 C 
ATOM     18  C   UNL     1      -0.426  12.686  18.478  0.00  0.00    +0.000 C 
ENDROOT
BRANCH   2  19
ATOM     19  C   UNL     1      -6.153  11.410  18.219  0.00  0.00    +0.000 C 
ATOM     20  N   UNL     1      -6.646  12.056  17.139  0.00  0.00    +0.000 N 
ATOM     21  O   UNL     1      -6.676  10.354  18.541  0.00  0.00    +0.000 OA
ATOM     22  H   UNL     1      -6.254  12.942  16.796  0.00  0.00    +0.000 HD
ATOM     23  H   UNL     1      -7.444  11.655  16.620  0.00  0.00    +0.000 HD
ENDBRANCH   2  19
BRANCH   1  25
ATOM     24  C   UNL     1      -6.780  14.019  20.819  0.00  0.00    +0.000 C 
ATOM     25  C   UNL     1      -6.137  12.649  21.083  0.00  0.00    +0.000 C 
ENDBRANCH   1  25
TORSDOF 2
ENDMDL
