MODEL 1
REMARK VINA RESULT:      -6.6      0.000      0.000
REMARK  Name = 
REMARK  15 active torsions:
REMARK  status: ('A' for Active; 'I' for Inactive)
REMARK    1  A    between atoms: N_1  and  CA_2
REMARK    2  A    between atoms: CA_2  and  CB_3
REMARK    3  A    between atoms: CA_2  and  C_8
REMARK    4  A    between atoms: CB_3  and  CG_4
REMARK    5  A    between atoms: CG_4  and  CD_5
REMARK    6  A    between atoms: CD_5  and  OE2_7
REMARK    7  A    between atoms: N_10  and  C_11
REMARK    8  A    between atoms: C_11  and  C_12
REMARK    9  A    between atoms: C_11  and  C_22
REMARK   10  A    between atoms: C_12  and  S_13
REMARK   11  A    between atoms: S_13  and  C_14
REMARK   12  A    between atoms: C_14  and  C_15
REMARK   13  A    between atoms: N_24  and  CA_25
REMARK   14  A    between atoms: CA_25  and  C_26
REMARK   15  A    between atoms: C_26  and  OXT_28
REMARK                            x       y       z     vdW  Elec       q    Type
REMARK                         _______ _______ _______ _____ _____    ______ ____
ROOT
ATOM      1  C   UNK A   2       2.661   6.317  18.155  0.00  0.00    +0.000 C 
ENDROOT
BRANCH   1   4
ATOM      2  C   GLU A   1       1.428   4.160  18.344  0.00  0.00    +0.000 C 
ATOM      3  O   GLU A   1       1.316   4.059  17.125  0.00  0.00    +0.000 OA
ATOM      4  N   UNK A   2       2.033   5.239  18.940  0.00  0.00    +0.000 N 
ATOM      5  H   UNK A   2       2.214   5.241  19.939  0.00  0.00    +0.000 HD
BRANCH   2   6
ATOM      6  CA  GLU A   1       0.971   3.041  19.322  0.00  0.00    +0.000 C 
BRANCH   6   7
ATOM      7  N   GLU A   1       0.385   1.937  18.538  0.00  0.00    +0.000 NA
ATOM      8  H1  GLU A   1      -0.501   2.214  18.118  0.00  0.00    +0.000 HD
ATOM      9  H2  GLU A   1       0.163   1.171  19.184  0.00  0.00    +0.000 HD
ENDBRANCH   6   7
BRANCH   6  10
ATOM     10  CB  GLU A   1       2.152   2.539  20.167  0.00  0.00    +0.000 C 
BRANCH  10  11
ATOM     11  CG  GLU A   1       3.322   2.008  19.331  0.00  0.00    +0.000 C 
BRANCH  11  12
ATOM     12  CD  GLU A   1       4.652   2.237  20.005  0.00  0.00    +0.000 C 
ATOM     13  OE1 GLU A   1       4.986   1.767  21.082  0.00  0.00    +0.000 OA
BRANCH  12  14
ATOM     14  OE2 GLU A   1       5.469   3.031  19.274  0.00  0.00    +0.000 OA
ATOM     15  HE2 GLU A   1       6.230   3.390  19.769  0.00  0.00    +0.000 HD
ENDBRANCH  12  14
ENDBRANCH  11  12
ENDBRANCH  10  11
ENDBRANCH   6  10
ENDBRANCH   2   6
ENDBRANCH   1   4
BRANCH   1  16
ATOM     16  C   UNK A   2       4.162   5.962  18.064  0.00  0.00    +0.000 C 
ATOM     17  O   UNK A   2       4.846   5.735  19.065  0.00  0.00    +0.000 OA
ATOM     18  N   GLY A   3       4.677   5.905  16.793  0.00  0.00    +0.000 N 
ATOM     19  H   GLY A   3       4.075   6.073  15.987  0.00  0.00    +0.000 HD
BRANCH  18  20
ATOM     20  CA  GLY A   3       6.080   5.644  16.519  0.00  0.00    +0.000 C 
BRANCH  20  21
ATOM     21  C   GLY A   3       6.237   4.341  15.742  0.00  0.00    +0.000 C 
ATOM     22  O   GLY A   3       6.778   4.263  14.648  0.00  0.00    +0.000 OA
BRANCH  21  23
ATOM     23  OXT GLY A   3       5.718   3.263  16.373  0.00  0.00    +0.000 OA
ATOM     24  HXT GLY A   3       6.093   2.403  16.105  0.00  0.00    +0.000 HD
ENDBRANCH  21  23
ENDBRANCH  20  21
ENDBRANCH  18  20
ENDBRANCH   1  16
BRANCH   1  25
ATOM     25  C   UNK A   2       2.415   7.692  18.805  0.00  0.00    +0.000 C 
BRANCH  25  26
ATOM     26  S   UNK A   2       1.481   8.850  17.721  0.00  0.00    +0.000 S 
BRANCH  26  27
ATOM     27  C   UNK A   2       2.077  10.445  18.366  0.00  0.00    +0.000 C 
BRANCH  27  28
ATOM     28  C   UNK A   2       0.950  11.246  19.019  0.00  0.00    +0.000 C 
ATOM     29  O   UNK A   2       0.608  12.353  18.606  0.00  0.00    +0.000 OA
ATOM     30  N   UNK A   2       0.273  10.601  20.042  0.00  0.00    +0.000 N 
ATOM     31  C   UNK A   2      -0.903  11.181  20.738  0.00  0.00    +0.000 C 
ATOM     32  C   UNK A   2      -0.226  10.814  22.068  0.00  0.00    +0.000 C 
ATOM     33  O   UNK A   2      -0.486  10.972  23.237  0.00  0.00    +0.000 OA
ATOM     34  C   UNK A   2       0.911  10.124  21.296  0.00  0.00    +0.000 C 
ENDBRANCH  27  28
ENDBRANCH  26  27
ENDBRANCH  25  26
ENDBRANCH   1  25
TORSDOF 15
ENDMDL
MODEL 2
REMARK VINA RESULT:      -6.6      1.795      2.146
REMARK  Name = 
REMARK  15 active torsions:
REMARK  status: ('A' for Active; 'I' for Inactive)
REMARK    1  A    between atoms: N_1  and  CA_2
REMARK    2  A    between atoms: CA_2  and  CB_3
REMARK    3  A    between atoms: CA_2  and  C_8
REMARK    4  A    between atoms: CB_3  and  CG_4
REMARK    5  A    between atoms: CG_4  and  CD_5
REMARK    6  A    between atoms: CD_5  and  OE2_7
REMARK    7  A    between atoms: N_10  and  C_11
REMARK    8  A    between atoms: C_11  and  C_12
REMARK    9  A    between atoms: C_11  and  C_22
REMARK   10  A    between atoms: C_12  and  S_13
REMARK   11  A    between atoms: S_13  and  C_14
REMARK   12  A    between atoms: C_14  and  C_15
REMARK   13  A    between atoms: N_24  and  CA_25
REMARK   14  A    between atoms: CA_25  and  C_26
REMARK   15  A    between atoms: C_26  and  OXT_28
REMARK                            x       y       z     vdW  Elec       q    Type
REMARK                         _______ _______ _______ _____ _____    ______ ____
ROOT
ATOM      1  C   UNK A   2       3.107   6.037  17.734  0.00  0.00    +0.000 C 
ENDROOT
BRANCH   1   4
ATOM      2  C   GLU A   1       2.685   3.585  17.859  0.00  0.00    +0.000 C 
ATOM      3  O   GLU A   1       2.173   3.565  16.742  0.00  0.00    +0.000 OA
ATOM      4  N   UNK A   2       3.134   4.745  18.441  0.00  0.00    +0.000 N 
ATOM      5  H   UNK A   2       3.655   4.715  19.312  0.00  0.00    +0.000 HD
BRANCH   2   6
ATOM      6  CA  GLU A   1       2.946   2.293  18.683  0.00  0.00    +0.000 C 
BRANCH   6   7
ATOM      7  N   GLU A   1       4.099   2.524  19.574  0.00  0.00    +0.000 NA
ATOM      8  H1  GLU A   1       4.837   1.842  19.404  0.00  0.00    +0.000 HD
ATOM      9  H2  GLU A   1       3.791   2.369  20.541  0.00  0.00    +0.000 HD
ENDBRANCH   6   7
BRANCH   6  10
ATOM     10  CB  GLU A   1       1.701   1.905  19.497  0.00  0.00    +0.000 C 
BRANCH  10  11
ATOM     11  CG  GLU A   1       0.983   3.104  20.128  0.00  0.00    +0.000 C 
BRANCH  11  12
ATOM     12  CD  GLU A   1       1.778   3.713  21.256  0.00  0.00    +0.000 C 
ATOM     13  OE1 GLU A   1       2.110   4.886  21.330  0.00  0.00    +0.000 OA
BRANCH  12  14
ATOM     14  OE2 GLU A   1       2.091   2.807  22.212  0.00  0.00    +0.000 OA
ATOM     15  HE2 GLU A   1       3.018   2.845  22.514  0.00  0.00    +0.000 HD
ENDBRANCH  12  14
ENDBRANCH  11  12
ENDBRANCH  10  11
ENDBRANCH   6  10
ENDBRANCH   2   6
ENDBRANCH   1   4
BRANCH   1  16
ATOM     16  C   UNK A   2       4.545   6.276  17.220  0.00  0.00    +0.000 C 
ATOM     17  O   UNK A   2       4.772   6.797  16.125  0.00  0.00    +0.000 OA
ATOM     18  N   GLY A   3       5.547   5.881  18.069  0.00  0.00    +0.000 N 
ATOM     19  H   GLY A   3       5.320   5.478  18.978  0.00  0.00    +0.000 HD
BRANCH  18  20
ATOM     20  CA  GLY A   3       6.956   5.975  17.728  0.00  0.00    +0.000 C 
BRANCH  20  21
ATOM     21  C   GLY A   3       7.427   4.691  17.053  0.00  0.00    +0.000 C 
ATOM     22  O   GLY A   3       7.000   4.294  15.977  0.00  0.00    +0.000 OA
BRANCH  21  23
ATOM     23  OXT GLY A   3       8.367   4.019  17.754  0.00  0.00    +0.000 OA
ATOM     24  HXT GLY A   3       9.232   4.466  17.826  0.00  0.00    +0.000 HD
ENDBRANCH  21  23
ENDBRANCH  20  21
ENDBRANCH  18  20
ENDBRANCH   1  16
BRANCH   1  25
ATOM     25  C   UNK A   2       2.614   7.165  18.661  0.00  0.00    +0.000 C 
BRANCH  25  26
ATOM     26  S   UNK A   2       2.505   8.799  17.819  0.00  0.00    +0.000 S 
BRANCH  26  27
ATOM     27  C   UNK A   2       0.794   9.261  18.235  0.00  0.00    +0.000 C 
BRANCH  27  28
ATOM     28  C   UNK A   2       0.748  10.330  19.329  0.00  0.00    +0.000 C 
ATOM     29  O   UNK A   2       1.255  11.440  19.183  0.00  0.00    +0.000 OA
ATOM     30  N   UNK A   2       0.011  10.000  20.456  0.00  0.00    +0.000 N 
ATOM     31  C   UNK A   2      -0.222  10.937  21.584  0.00  0.00    +0.000 C 
ATOM     32  C   UNK A   2       0.194   9.803  22.536  0.00  0.00    +0.000 C 
ATOM     33  O   UNK A   2       0.344   9.695  23.729  0.00  0.00    +0.000 OA
ATOM     34  C   UNK A   2       0.307   8.844  21.339  0.00  0.00    +0.000 C 
ENDBRANCH  27  28
ENDBRANCH  26  27
ENDBRANCH  25  26
ENDBRANCH   1  25
TORSDOF 15
ENDMDL
MODEL 3
REMARK VINA RESULT:      -6.4      2.035      2.496
REMARK  Name = 
REMARK  15 active torsions:
REMARK  status: ('A' for Active; 'I' for Inactive)
REMARK    1  A    between atoms: N_1  and  CA_2
REMARK    2  A    between atoms: CA_2  and  CB_3
REMARK    3  A    between atoms: CA_2  and  C_8
REMARK    4  A    between atoms: CB_3  and  CG_4
REMARK    5  A    between atoms: CG_4  and  CD_5
REMARK    6  A    between atoms: CD_5  and  OE2_7
REMARK    7  A    between atoms: N_10  and  C_11
REMARK    8  A    between atoms: C_11  and  C_12
REMARK    9  A    between atoms: C_11  and  C_22
REMARK   10  A    between atoms: C_12  and  S_13
REMARK   11  A    between atoms: S_13  and  C_14
REMARK   12  A    between atoms: C_14  and  C_15
REMARK   13  A    between atoms: N_24  and  CA_25
REMARK   14  A    between atoms: CA_25  and  C_26
REMARK   15  A    between atoms: C_26  and  OXT_28
REMARK                            x       y       z     vdW  Elec       q    Type
REMARK                         _______ _______ _______ _____ _____    ______ ____
ROOT
ATOM      1  C   UNK A   2       3.310   5.559  17.544  0.00  0.00    +0.000 C 
ENDROOT
BRANCH   1   4
ATOM      2  C   GLU A   1       2.605   3.261  18.201  0.00  0.00    +0.000 C 
ATOM      3  O   GLU A   1       1.612   3.304  17.478  0.00  0.00    +0.000 OA
ATOM      4  N   UNK A   2       3.468   4.322  18.328  0.00  0.00    +0.000 N 
ATOM      5  H   UNK A   2       4.339   4.218  18.840  0.00  0.00    +0.000 HD
BRANCH   2   6
ATOM      6  CA  GLU A   1       3.021   1.980  18.977  0.00  0.00    +0.000 C 
BRANCH   6   7
ATOM      7  N   GLU A   1       4.162   1.355  18.282  0.00  0.00    +0.000 NA
ATOM      8  H1  GLU A   1       3.976   0.375  18.077  0.00  0.00    +0.000 HD
ATOM      9  H2  GLU A   1       4.966   1.360  18.922  0.00  0.00    +0.000 HD
ENDBRANCH   6   7
BRANCH   6  10
ATOM     10  CB  GLU A   1       3.388   2.318  20.431  0.00  0.00    +0.000 C 
BRANCH  10  11
ATOM     11  CG  GLU A   1       2.178   2.666  21.304  0.00  0.00    +0.000 C 
BRANCH  11  12
ATOM     12  CD  GLU A   1       1.672   4.063  21.043  0.00  0.00    +0.000 C 
ATOM     13  OE1 GLU A   1       0.584   4.339  20.562  0.00  0.00    +0.000 OA
BRANCH  12  14
ATOM     14  OE2 GLU A   1       2.565   5.011  21.412  0.00  0.00    +0.000 OA
ATOM     15  HE2 GLU A   1       3.104   5.363  20.678  0.00  0.00    +0.000 HD
ENDBRANCH  12  14
ENDBRANCH  11  12
ENDBRANCH  10  11
ENDBRANCH   6  10
ENDBRANCH   2   6
ENDBRANCH   1   4
BRANCH   1  16
ATOM     16  C   UNK A   2       4.738   6.024  17.181  0.00  0.00    +0.000 C 
ATOM     17  O   UNK A   2       5.026   6.449  16.060  0.00  0.00    +0.000 OA
ATOM     18  N   GLY A   3       5.659   5.943  18.195  0.00  0.00    +0.000 N 
ATOM     19  H   GLY A   3       5.378   5.610  19.118  0.00  0.00    +0.000 HD
BRANCH  18  20
ATOM     20  CA  GLY A   3       7.061   6.281  18.021  0.00  0.00    +0.000 C 
BRANCH  20  21
ATOM     21  C   GLY A   3       7.949   5.148  18.525  0.00  0.00    +0.000 C 
ATOM     22  O   GLY A   3       8.301   4.203  17.833  0.00  0.00    +0.000 OA
BRANCH  21  23
ATOM     23  OXT GLY A   3       8.317   5.278  19.820  0.00  0.00    +0.000 OA
ATOM     24  HXT GLY A   3       7.639   5.019  20.472  0.00  0.00    +0.000 HD
ENDBRANCH  21  23
ENDBRANCH  20  21
ENDBRANCH  18  20
ENDBRANCH   1  16
BRANCH   1  25
ATOM     25  C   UNK A   2       2.524   6.621  18.336  0.00  0.00    +0.000 C 
BRANCH  25  26
ATOM     26  S   UNK A   2       2.885   8.343  17.795  0.00  0.00    +0.000 S 
BRANCH  26  27
ATOM     27  C   UNK A   2       1.216   9.064  17.882  0.00  0.00    +0.000 C 
BRANCH  27  28
ATOM     28  C   UNK A   2       1.131  10.165  18.940  0.00  0.00    +0.000 C 
ATOM     29  O   UNK A   2       1.588  11.291  18.753  0.00  0.00    +0.000 OA
ATOM     30  N   UNK A   2       0.418   9.842  20.084  0.00  0.00    +0.000 N 
ATOM     31  C   UNK A   2       0.153  10.805  21.183  0.00  0.00    +0.000 C 
ATOM     32  C   UNK A   2       0.625   9.723  22.168  0.00  0.00    +0.000 C 
ATOM     33  O   UNK A   2       0.789   9.663  23.363  0.00  0.00    +0.000 OA
ATOM     34  C   UNK A   2       0.771   8.730  21.003  0.00  0.00    +0.000 C 
ENDBRANCH  27  28
ENDBRANCH  26  27
ENDBRANCH  25  26
ENDBRANCH   1  25
TORSDOF 15
ENDMDL
MODEL 4
REMARK VINA RESULT:      -6.4      1.276      1.422
REMARK  Name = 
REMARK  15 active torsions:
REMARK  status: ('A' for Active; 'I' for Inactive)
REMARK    1  A    between atoms: N_1  and  CA_2
REMARK    2  A    between atoms: CA_2  and  CB_3
REMARK    3  A    between atoms: CA_2  and  C_8
REMARK    4  A    between atoms: CB_3  and  CG_4
REMARK    5  A    between atoms: CG_4  and  CD_5
REMARK    6  A    between atoms: CD_5  and  OE2_7
REMARK    7  A    between atoms: N_10  and  C_11
REMARK    8  A    between atoms: C_11  and  C_12
REMARK    9  A    between atoms: C_11  and  C_22
REMARK   10  A    between atoms: C_12  and  S_13
REMARK   11  A    between atoms: S_13  and  C_14
REMARK   12  A    between atoms: C_14  and  C_15
REMARK   13  A    between atoms: N_24  and  CA_25
REMARK   14  A    between atoms: CA_25  and  C_26
REMARK   15  A    between atoms: C_26  and  OXT_28
REMARK                            x       y       z     vdW  Elec       q    Type
REMARK                         _______ _______ _______ _____ _____    ______ ____
ROOT
ATOM      1  C   UNK A   2       2.924   5.977  18.144  0.00  0.00    +0.000 C 
ENDROOT
BRANCH   1   4
ATOM      2  C   GLU A   1       1.337   4.069  17.930  0.00  0.00    +0.000 C 
ATOM      3  O   GLU A   1       0.951   4.447  16.826  0.00  0.00    +0.000 OA
ATOM      4  N   UNK A   2       2.264   4.766  18.664  0.00  0.00    +0.000 N 
ATOM      5  H   UNK A   2       2.648   4.372  19.517  0.00  0.00    +0.000 HD
BRANCH   2   6
ATOM      6  CA  GLU A   1       0.872   2.727  18.564  0.00  0.00    +0.000 C 
BRANCH   6   7
ATOM      7  N   GLU A   1       1.943   1.727  18.394  0.00  0.00    +0.000 NA
ATOM      8  H1  GLU A   1       2.084   1.502  17.411  0.00  0.00    +0.000 HD
ATOM      9  H2  GLU A   1       1.638   0.855  18.841  0.00  0.00    +0.000 HD
ENDBRANCH   6   7
BRANCH   6  10
ATOM     10  CB  GLU A   1       0.535   2.915  20.051  0.00  0.00    +0.000 C 
BRANCH  10  11
ATOM     11  CG  GLU A   1       1.476   2.156  20.994  0.00  0.00    +0.000 C 
BRANCH  11  12
ATOM     12  CD  GLU A   1       2.596   3.030  21.503  0.00  0.00    +0.000 C 
ATOM     13  OE1 GLU A   1       2.580   3.654  22.553  0.00  0.00    +0.000 OA
BRANCH  12  14
ATOM     14  OE2 GLU A   1       3.656   3.049  20.662  0.00  0.00    +0.000 OA
ATOM     15  HE2 GLU A   1       4.113   3.910  20.610  0.00  0.00    +0.000 HD
ENDBRANCH  12  14
ENDBRANCH  11  12
ENDBRANCH  10  11
ENDBRANCH   6  10
ENDBRANCH   2   6
ENDBRANCH   1   4
BRANCH   1  16
ATOM     16  C   UNK A   2       4.444   5.720  18.255  0.00  0.00    +0.000 C 
ATOM     17  O   UNK A   2       5.000   5.526  19.339  0.00  0.00    +0.000 OA
ATOM     18  N   GLY A   3       5.127   5.708  17.066  0.00  0.00    +0.000 N 
ATOM     19  H   GLY A   3       4.629   5.847  16.186  0.00  0.00    +0.000 HD
BRANCH  18  20
ATOM     20  CA  GLY A   3       6.568   5.540  16.982  0.00  0.00    +0.000 C 
BRANCH  20  21
ATOM     21  C   GLY A   3       6.944   4.794  15.706  0.00  0.00    +0.000 C 
ATOM     22  O   GLY A   3       7.654   5.264  14.829  0.00  0.00    +0.000 OA
BRANCH  21  23
ATOM     23  OXT GLY A   3       6.415   3.552  15.625  0.00  0.00    +0.000 OA
ATOM     24  HXT GLY A   3       6.020   3.323  14.762  0.00  0.00    +0.000 HD
ENDBRANCH  21  23
ENDBRANCH  20  21
ENDBRANCH  18  20
ENDBRANCH   1  16
BRANCH   1  25
ATOM     25  C   UNK A   2       2.477   7.229  18.922  0.00  0.00    +0.000 C 
BRANCH  25  26
ATOM     26  S   UNK A   2       2.437   8.751  17.887  0.00  0.00    +0.000 S 
BRANCH  26  27
ATOM     27  C   UNK A   2       0.765   9.358  18.272  0.00  0.00    +0.000 C 
BRANCH  27  28
ATOM     28  C   UNK A   2       0.786  10.398  19.394  0.00  0.00    +0.000 C 
ATOM     29  O   UNK A   2       1.367  11.475  19.278  0.00  0.00    +0.000 OA
ATOM     30  N   UNK A   2       0.025  10.088  20.510  0.00  0.00    +0.000 N 
ATOM     31  C   UNK A   2      -0.149  11.008  21.663  0.00  0.00    +0.000 C 
ATOM     32  C   UNK A   2       0.188   9.824  22.584  0.00  0.00    +0.000 C 
ATOM     33  O   UNK A   2       0.326   9.675  23.775  0.00  0.00    +0.000 OA
ATOM     34  C   UNK A   2       0.241   8.891  21.363  0.00  0.00    +0.000 C 
ENDBRANCH  27  28
ENDBRANCH  26  27
ENDBRANCH  25  26
ENDBRANCH   1  25
TORSDOF 15
ENDMDL
MODEL 5
REMARK VINA RESULT:      -6.4      2.188      2.804
REMARK  Name = 
REMARK  15 active torsions:
REMARK  status: ('A' for Active; 'I' for Inactive)
REMARK    1  A    between atoms: N_1  and  CA_2
REMARK    2  A    between atoms: CA_2  and  CB_3
REMARK    3  A    between atoms: CA_2  and  C_8
REMARK    4  A    between atoms: CB_3  and  CG_4
REMARK    5  A    between atoms: CG_4  and  CD_5
REMARK    6  A    between atoms: CD_5  and  OE2_7
REMARK    7  A    between atoms: N_10  and  C_11
REMARK    8  A    between atoms: C_11  and  C_12
REMARK    9  A    between atoms: C_11  and  C_22
REMARK   10  A    between atoms: C_12  and  S_13
REMARK   11  A    between atoms: S_13  and  C_14
REMARK   12  A    between atoms: C_14  and  C_15
REMARK   13  A    between atoms: N_24  and  CA_25
REMARK   14  A    between atoms: CA_25  and  C_26
REMARK   15  A    between atoms: C_26  and  OXT_28
REMARK                            x       y       z     vdW  Elec       q    Type
REMARK                         _______ _______ _______ _____ _____    ______ ____
ROOT
ATOM      1  C   UNK A   2       3.278   5.939  17.533  0.00  0.00    +0.000 C 
ENDROOT
BRANCH   1   4
ATOM      2  C   GLU A   1       2.019   3.799  17.738  0.00  0.00    +0.000 C 
ATOM      3  O   GLU A   1       1.093   4.219  17.049  0.00  0.00    +0.000 OA
ATOM      4  N   UNK A   2       3.107   4.574  18.059  0.00  0.00    +0.000 N 
ATOM      5  H   UNK A   2       3.908   4.166  18.531  0.00  0.00    +0.000 HD
BRANCH   2   6
ATOM      6  CA  GLU A   1       2.087   2.330  18.244  0.00  0.00    +0.000 C 
BRANCH   6   7
ATOM      7  N   GLU A   1       3.423   2.089  18.821  0.00  0.00    +0.000 NA
ATOM      8  H1  GLU A   1       3.431   1.245  19.391  0.00  0.00    +0.000 HD
ATOM      9  H2  GLU A   1       3.637   2.863  19.462  0.00  0.00    +0.000 HD
ENDBRANCH   6   7
BRANCH   6  10
ATOM     10  CB  GLU A   1       0.989   2.061  19.285  0.00  0.00    +0.000 C 
BRANCH  10  11
ATOM     11  CG  GLU A   1       0.698   3.262  20.193  0.00  0.00    +0.000 C 
BRANCH  11  12
ATOM     12  CD  GLU A   1       1.756   3.441  21.254  0.00  0.00    +0.000 C 
ATOM     13  OE1 GLU A   1       2.658   4.264  21.217  0.00  0.00    +0.000 OA
BRANCH  12  14
ATOM     14  OE2 GLU A   1       1.599   2.580  22.287  0.00  0.00    +0.000 OA
ATOM     15  HE2 GLU A   1       0.743   2.659  22.750  0.00  0.00    +0.000 HD
ENDBRANCH  12  14
ENDBRANCH  11  12
ENDBRANCH  10  11
ENDBRANCH   6  10
ENDBRANCH   2   6
ENDBRANCH   1   4
BRANCH   1  16
ATOM     16  C   UNK A   2       4.783   6.091  17.213  0.00  0.00    +0.000 C 
ATOM     17  O   UNK A   2       5.187   6.749  16.252  0.00  0.00    +0.000 OA
ATOM     18  N   GLY A   3       5.635   5.455  18.080  0.00  0.00    +0.000 N 
ATOM     19  H   GLY A   3       5.265   4.940  18.879  0.00  0.00    +0.000 HD
BRANCH  18  20
ATOM     20  CA  GLY A   3       7.077   5.440  17.903  0.00  0.00    +0.000 C 
BRANCH  20  21
ATOM     21  C   GLY A   3       7.775   5.913  19.174  0.00  0.00    +0.000 C 
ATOM     22  O   GLY A   3       7.723   5.316  20.240  0.00  0.00    +0.000 OA
BRANCH  21  23
ATOM     23  OXT GLY A   3       8.463   7.068  19.021  0.00  0.00    +0.000 OA
ATOM     24  HXT GLY A   3       8.959   7.148  18.185  0.00  0.00    +0.000 HD
ENDBRANCH  21  23
ENDBRANCH  20  21
ENDBRANCH  18  20
ENDBRANCH   1  16
BRANCH   1  25
ATOM     25  C   UNK A   2       2.778   6.989  18.543  0.00  0.00    +0.000 C 
BRANCH  25  26
ATOM     26  S   UNK A   2       2.414   8.621  17.772  0.00  0.00    +0.000 S 
BRANCH  26  27
ATOM     27  C   UNK A   2       1.345   9.350  19.053  0.00  0.00    +0.000 C 
BRANCH  27  28
ATOM     28  C   UNK A   2       1.074  10.832  18.785  0.00  0.00    +0.000 C 
ATOM     29  O   UNK A   2       1.970  11.620  18.491  0.00  0.00    +0.000 OA
ATOM     30  N   UNK A   2      -0.261  11.206  18.798  0.00  0.00    +0.000 N 
ATOM     31  C   UNK A   2      -0.728  12.578  18.476  0.00  0.00    +0.000 C 
ATOM     32  C   UNK A   2      -1.585  12.524  19.752  0.00  0.00    +0.000 C 
ATOM     33  O   UNK A   2      -2.315  13.293  20.330  0.00  0.00    +0.000 OA
ATOM     34  C   UNK A   2      -1.157  11.063  19.973  0.00  0.00    +0.000 C 
ENDBRANCH  27  28
ENDBRANCH  26  27
ENDBRANCH  25  26
ENDBRANCH   1  25
TORSDOF 15
ENDMDL
MODEL 6
REMARK VINA RESULT:      -6.3      2.349      5.259
REMARK  Name = 
REMARK  15 active torsions:
REMARK  status: ('A' for Active; 'I' for Inactive)
REMARK    1  A    between atoms: N_1  and  CA_2
REMARK    2  A    between atoms: CA_2  and  CB_3
REMARK    3  A    between atoms: CA_2  and  C_8
REMARK    4  A    between atoms: CB_3  and  CG_4
REMARK    5  A    between atoms: CG_4  and  CD_5
REMARK    6  A    between atoms: CD_5  and  OE2_7
REMARK    7  A    between atoms: N_10  and  C_11
REMARK    8  A    between atoms: C_11  and  C_12
REMARK    9  A    between atoms: C_11  and  C_22
REMARK   10  A    between atoms: C_12  and  S_13
REMARK   11  A    between atoms: S_13  and  C_14
REMARK   12  A    between atoms: C_14  and  C_15
REMARK   13  A    between atoms: N_24  and  CA_25
REMARK   14  A    between atoms: CA_25  and  C_26
REMARK   15  A    between atoms: C_26  and  OXT_28
REMARK                            x       y       z     vdW  Elec       q    Type
REMARK                         _______ _______ _______ _____ _____    ______ ____
ROOT
ATOM      1  C   UNK A   2       4.388   3.848  19.742  0.00  0.00    +0.000 C 
ENDROOT
BRANCH   1   4
ATOM      2  C   GLU A   1       6.460   5.011  18.992  0.00  0.00    +0.000 C 
ATOM      3  O   GLU A   1       6.766   5.315  20.142  0.00  0.00    +0.000 OA
ATOM      4  N   UNK A   2       5.305   4.331  18.694  0.00  0.00    +0.000 N 
ATOM      5  H   UNK A   2       5.135   3.993  17.752  0.00  0.00    +0.000 HD
BRANCH   2   6
ATOM      6  CA  GLU A   1       7.387   5.294  17.776  0.00  0.00    +0.000 C 
BRANCH   6   7
ATOM      7  N   GLU A   1       8.176   4.081  17.488  0.00  0.00    +0.000 NA
ATOM      8  H1  GLU A   1       8.286   3.944  16.485  0.00  0.00    +0.000 HD
ATOM      9  H2  GLU A   1       7.646   3.269  17.827  0.00  0.00    +0.000 HD
ENDBRANCH   6   7
BRANCH   6  10
ATOM     10  CB  GLU A   1       6.562   5.709  16.547  0.00  0.00    +0.000 C 
BRANCH  10  11
ATOM     11  CG  GLU A   1       7.072   5.106  15.234  0.00  0.00    +0.000 C 
BRANCH  11  12
ATOM     12  CD  GLU A   1       6.249   3.920  14.796  0.00  0.00    +0.000 C 
ATOM     13  OE1 GLU A   1       6.013   3.616  13.637  0.00  0.00    +0.000 OA
BRANCH  12  14
ATOM     14  OE2 GLU A   1       5.790   3.197  15.845  0.00  0.00    +0.000 OA
ATOM     15  HE2 GLU A   1       5.371   2.351  15.597  0.00  0.00    +0.000 HD
ENDBRANCH  12  14
ENDBRANCH  11  12
ENDBRANCH  10  11
ENDBRANCH   6  10
ENDBRANCH   2   6
ENDBRANCH   1   4
BRANCH   1  16
ATOM     16  C   UNK A   2       4.451   2.304  19.689  0.00  0.00    +0.000 C 
ATOM     17  O   UNK A   2       3.845   1.651  18.836  0.00  0.00    +0.000 OA
ATOM     18  N   GLY A   3       5.237   1.713  20.646  0.00  0.00    +0.000 N 
ATOM     19  H   GLY A   3       5.744   2.288  21.319  0.00  0.00    +0.000 HD
BRANCH  18  20
ATOM     20  CA  GLY A   3       5.367   0.273  20.784  0.00  0.00    +0.000 C 
BRANCH  20  21
ATOM     21  C   GLY A   3       6.211  -0.070  22.007  0.00  0.00    +0.000 C 
ATOM     22  O   GLY A   3       6.414  -1.213  22.394  0.00  0.00    +0.000 OA
BRANCH  21  23
ATOM     23  OXT GLY A   3       6.721   1.011  22.639  0.00  0.00    +0.000 OA
ATOM     24  HXT GLY A   3       6.254   1.276  23.454  0.00  0.00    +0.000 HD
ENDBRANCH  21  23
ENDBRANCH  20  21
ENDBRANCH  18  20
ENDBRANCH   1  16
BRANCH   1  25
ATOM     25  C   UNK A   2       2.963   4.391  19.526  0.00  0.00    +0.000 C 
BRANCH  25  26
ATOM     26  S   UNK A   2       2.928   5.996  18.626  0.00  0.00    +0.000 S 
BRANCH  26  27
ATOM     27  C   UNK A   2       2.115   7.045  19.872  0.00  0.00    +0.000 C 
BRANCH  27  28
ATOM     28  C   UNK A   2       1.774   8.427  19.311  0.00  0.00    +0.000 C 
ATOM     29  O   UNK A   2       2.188   8.812  18.220  0.00  0.00    +0.000 OA
ATOM     30  N   UNK A   2       0.887   9.177  20.069  0.00  0.00    +0.000 N 
ATOM     31  C   UNK A   2       0.371  10.504  19.647  0.00  0.00    +0.000 C 
ATOM     32  C   UNK A   2       0.723  11.023  21.051  0.00  0.00    +0.000 C 
ATOM     33  O   UNK A   2       0.672  12.093  21.608  0.00  0.00    +0.000 OA
ATOM     34  C   UNK A   2       1.137   9.602  21.469  0.00  0.00    +0.000 C 
ENDBRANCH  27  28
ENDBRANCH  26  27
ENDBRANCH  25  26
ENDBRANCH   1  25
TORSDOF 15
ENDMDL
MODEL 7
REMARK VINA RESULT:      -6.3      1.982      2.655
REMARK  Name = 
REMARK  15 active torsions:
REMARK  status: ('A' for Active; 'I' for Inactive)
REMARK    1  A    between atoms: N_1  and  CA_2
REMARK    2  A    between atoms: CA_2  and  CB_3
REMARK    3  A    between atoms: CA_2  and  C_8
REMARK    4  A    between atoms: CB_3  and  CG_4
REMARK    5  A    between atoms: CG_4  and  CD_5
REMARK    6  A    between atoms: CD_5  and  OE2_7
REMARK    7  A    between atoms: N_10  and  C_11
REMARK    8  A    between atoms: C_11  and  C_12
REMARK    9  A    between atoms: C_11  and  C_22
REMARK   10  A    between atoms: C_12  and  S_13
REMARK   11  A    between atoms: S_13  and  C_14
REMARK   12  A    between atoms: C_14  and  C_15
REMARK   13  A    between atoms: N_24  and  CA_25
REMARK   14  A    between atoms: CA_25  and  C_26
REMARK   15  A    between atoms: C_26  and  OXT_28
REMARK                            x       y       z     vdW  Elec       q    Type
REMARK                         _______ _______ _______ _____ _____    ______ ____
ROOT
ATOM      1  C   UNK A   2       3.620   5.578  17.185  0.00  0.00    +0.000 C 
ENDROOT
BRANCH   1   4
ATOM      2  C   GLU A   1       3.680   3.329  18.256  0.00  0.00    +0.000 C 
ATOM      3  O   GLU A   1       4.537   3.680  19.063  0.00  0.00    +0.000 OA
ATOM      4  N   UNK A   2       3.199   4.169  17.282  0.00  0.00    +0.000 N 
ATOM      5  H   UNK A   2       2.411   3.890  16.705  0.00  0.00    +0.000 HD
BRANCH   2   6
ATOM      6  CA  GLU A   1       3.002   1.931  18.311  0.00  0.00    +0.000 C 
BRANCH   6   7
ATOM      7  N   GLU A   1       4.045   0.894  18.202  0.00  0.00    +0.000 NA
ATOM      8  H1  GLU A   1       3.677   0.045  17.776  0.00  0.00    +0.000 HD
ATOM      9  H2  GLU A   1       4.333   0.630  19.151  0.00  0.00    +0.000 HD
ENDBRANCH   6   7
BRANCH   6  10
ATOM     10  CB  GLU A   1       2.203   1.763  19.613  0.00  0.00    +0.000 C 
BRANCH  10  11
ATOM     11  CG  GLU A   1       1.294   2.955  19.933  0.00  0.00    +0.000 C 
BRANCH  11  12
ATOM     12  CD  GLU A   1       1.706   3.659  21.202  0.00  0.00    +0.000 C 
ATOM     13  OE1 GLU A   1       1.982   4.846  21.291  0.00  0.00    +0.000 OA
BRANCH  12  14
ATOM     14  OE2 GLU A   1       1.734   2.824  22.267  0.00  0.00    +0.000 OA
ATOM     15  HE2 GLU A   1       2.459   2.170  22.247  0.00  0.00    +0.000 HD
ENDBRANCH  12  14
ENDBRANCH  11  12
ENDBRANCH  10  11
ENDBRANCH   6  10
ENDBRANCH   2   6
ENDBRANCH   1   4
BRANCH   1  16
ATOM     16  C   UNK A   2       5.145   5.554  16.934  0.00  0.00    +0.000 C 
ATOM     17  O   UNK A   2       5.646   4.927  15.998  0.00  0.00    +0.000 OA
ATOM     18  N   GLY A   3       5.898   6.290  17.814  0.00  0.00    +0.000 N 
ATOM     19  H   GLY A   3       5.445   6.817  18.560  0.00  0.00    +0.000 HD
BRANCH  18  20
ATOM     20  CA  GLY A   3       7.349   6.337  17.766  0.00  0.00    +0.000 C 
BRANCH  20  21
ATOM     21  C   GLY A   3       7.945   5.152  18.518  0.00  0.00    +0.000 C 
ATOM     22  O   GLY A   3       8.172   5.154  19.720  0.00  0.00    +0.000 OA
BRANCH  21  23
ATOM     23  OXT GLY A   3       8.210   4.084  17.731  0.00  0.00    +0.000 OA
ATOM     24  HXT GLY A   3       8.719   4.279  16.922  0.00  0.00    +0.000 HD
ENDBRANCH  21  23
ENDBRANCH  20  21
ENDBRANCH  18  20
ENDBRANCH   1  16
BRANCH   1  25
ATOM     25  C   UNK A   2       3.241   6.358  18.459  0.00  0.00    +0.000 C 
BRANCH  25  26
ATOM     26  S   UNK A   2       2.497   8.004  18.106  0.00  0.00    +0.000 S 
BRANCH  26  27
ATOM     27  C   UNK A   2       1.637   8.312  19.680  0.00  0.00    +0.000 C 
BRANCH  27  28
ATOM     28  C   UNK A   2       0.963   9.685  19.697  0.00  0.00    +0.000 C 
ATOM     29  O   UNK A   2       1.196  10.540  18.845  0.00  0.00    +0.000 OA
ATOM     30  N   UNK A   2      -0.002   9.865  20.676  0.00  0.00    +0.000 N 
ATOM     31  C   UNK A   2      -0.824  11.096  20.797  0.00  0.00    +0.000 C 
ATOM     32  C   UNK A   2      -0.481  11.108  22.296  0.00  0.00    +0.000 C 
ATOM     33  O   UNK A   2      -0.717  11.843  23.225  0.00  0.00    +0.000 OA
ATOM     34  C   UNK A   2       0.261   9.771  22.135  0.00  0.00    +0.000 C 
ENDBRANCH  27  28
ENDBRANCH  26  27
ENDBRANCH  25  26
ENDBRANCH   1  25
TORSDOF 15
ENDMDL
MODEL 8
REMARK VINA RESULT:      -6.3      1.955      2.449
REMARK  Name = 
REMARK  15 active torsions:
REMARK  status: ('A' for Active; 'I' for Inactive)
REMARK    1  A    between atoms: N_1  and  CA_2
REMARK    2  A    between atoms: CA_2  and  CB_3
REMARK    3  A    between atoms: CA_2  and  C_8
REMARK    4  A    between atoms: CB_3  and  CG_4
REMARK    5  A    between atoms: CG_4  and  CD_5
REMARK    6  A    between atoms: CD_5  and  OE2_7
REMARK    7  A    between atoms: N_10  and  C_11
REMARK    8  A    between atoms: C_11  and  C_12
REMARK    9  A    between atoms: C_11  and  C_22
REMARK   10  A    between atoms: C_12  and  S_13
REMARK   11  A    between atoms: S_13  and  C_14
REMARK   12  A    between atoms: C_14  and  C_15
REMARK   13  A    between atoms: N_24  and  CA_25
REMARK   14  A    between atoms: CA_25  and  C_26
REMARK   15  A    between atoms: C_26  and  OXT_28
REMARK                            x       y       z     vdW  Elec       q    Type
REMARK                         _______ _______ _______ _____ _____    ______ ____
ROOT
ATOM      1  C   UNK A   2       4.142   5.228  17.003  0.00  0.00    +0.000 C 
ENDROOT
BRANCH   1   4
ATOM      2  C   GLU A   1       2.695   3.325  17.707  0.00  0.00    +0.000 C 
ATOM      3  O   GLU A   1       1.791   3.667  16.949  0.00  0.00    +0.000 OA
ATOM      4  N   UNK A   2       3.860   4.042  17.830  0.00  0.00    +0.000 N 
ATOM      5  H   UNK A   2       4.635   3.675  18.375  0.00  0.00    +0.000 HD
BRANCH   2   6
ATOM      6  CA  GLU A   1       2.642   2.010  18.535  0.00  0.00    +0.000 C 
BRANCH   6   7
ATOM      7  N   GLU A   1       3.922   1.849  19.251  0.00  0.00    +0.000 NA
ATOM      8  H1  GLU A   1       4.679   2.321  18.760  0.00  0.00    +0.000 HD
ATOM      9  H2  GLU A   1       4.164   0.851  19.249  0.00  0.00    +0.000 HD
ENDBRANCH   6   7
BRANCH   6  10
ATOM     10  CB  GLU A   1       1.466   2.038  19.525  0.00  0.00    +0.000 C 
BRANCH  10  11
ATOM     11  CG  GLU A   1       1.234   3.412  20.163  0.00  0.00    +0.000 C 
BRANCH  11  12
ATOM     12  CD  GLU A   1       2.183   3.676  21.305  0.00  0.00    +0.000 C 
ATOM     13  OE1 GLU A   1       2.622   2.827  22.066  0.00  0.00    +0.000 OA
BRANCH  12  14
ATOM     14  OE2 GLU A   1       2.517   4.984  21.404  0.00  0.00    +0.000 OA
ATOM     15  HE2 GLU A   1       3.477   5.150  21.469  0.00  0.00    +0.000 HD
ENDBRANCH  12  14
ENDBRANCH  11  12
ENDBRANCH  10  11
ENDBRANCH   6  10
ENDBRANCH   2   6
ENDBRANCH   1   4
BRANCH   1  16
ATOM     16  C   UNK A   2       5.488   4.950  16.297  0.00  0.00    +0.000 C 
ATOM     17  O   UNK A   2       6.571   5.087  16.871  0.00  0.00    +0.000 OA
ATOM     18  N   GLY A   3       5.394   4.529  14.995  0.00  0.00    +0.000 N 
ATOM     19  H   GLY A   3       4.480   4.402  14.561  0.00  0.00    +0.000 HD
BRANCH  18  20
ATOM     20  CA  GLY A   3       6.556   4.277  14.159  0.00  0.00    +0.000 C 
BRANCH  20  21
ATOM     21  C   GLY A   3       6.132   3.658  12.831  0.00  0.00    +0.000 C 
ATOM     22  O   GLY A   3       6.919   3.241  11.994  0.00  0.00    +0.000 OA
BRANCH  21  23
ATOM     23  OXT GLY A   3       4.792   3.613  12.654  0.00  0.00    +0.000 OA
ATOM     24  HXT GLY A   3       4.407   2.716  12.620  0.00  0.00    +0.000 HD
ENDBRANCH  21  23
ENDBRANCH  20  21
ENDBRANCH  18  20
ENDBRANCH   1  16
BRANCH   1  25
ATOM     25  C   UNK A   2       4.175   6.507  17.862  0.00  0.00    +0.000 C 
BRANCH  25  26
ATOM     26  S   UNK A   2       2.696   7.578  17.626  0.00  0.00    +0.000 S 
BRANCH  26  27
ATOM     27  C   UNK A   2       2.182   7.800  19.358  0.00  0.00    +0.000 C 
BRANCH  27  28
ATOM     28  C   UNK A   2       1.364   9.079  19.544  0.00  0.00    +0.000 C 
ATOM     29  O   UNK A   2       1.448  10.030  18.769  0.00  0.00    +0.000 OA
ATOM     30  N   UNK A   2       0.448   9.057  20.584  0.00  0.00    +0.000 N 
ATOM     31  C   UNK A   2      -0.495  10.168  20.868  0.00  0.00    +0.000 C 
ATOM     32  C   UNK A   2      -0.063  10.082  22.341  0.00  0.00    +0.000 C 
ATOM     33  O   UNK A   2      -0.321  10.696  23.349  0.00  0.00    +0.000 OA
ATOM     34  C   UNK A   2       0.809   8.859  22.011  0.00  0.00    +0.000 C 
ENDBRANCH  27  28
ENDBRANCH  26  27
ENDBRANCH  25  26
ENDBRANCH   1  25
TORSDOF 15
ENDMDL
MODEL 9
REMARK VINA RESULT:      -6.3      1.487      1.871
REMARK  Name = 
REMARK  15 active torsions:
REMARK  status: ('A' for Active; 'I' for Inactive)
REMARK    1  A    between atoms: N_1  and  CA_2
REMARK    2  A    between atoms: CA_2  and  CB_3
REMARK    3  A    between atoms: CA_2  and  C_8
REMARK    4  A    between atoms: CB_3  and  CG_4
REMARK    5  A    between atoms: CG_4  and  CD_5
REMARK    6  A    between atoms: CD_5  and  OE2_7
REMARK    7  A    between atoms: N_10  and  C_11
REMARK    8  A    between atoms: C_11  and  C_12
REMARK    9  A    between atoms: C_11  and  C_22
REMARK   10  A    between atoms: C_12  and  S_13
REMARK   11  A    between atoms: S_13  and  C_14
REMARK   12  A    between atoms: C_14  and  C_15
REMARK   13  A    between atoms: N_24  and  CA_25
REMARK   14  A    between atoms: CA_25  and  C_26
REMARK   15  A    between atoms: C_26  and  OXT_28
REMARK                            x       y       z     vdW  Elec       q    Type
REMARK                         _______ _______ _______ _____ _____    ______ ____
ROOT
ATOM      1  C   UNK A   2       3.100   6.496  17.578  0.00  0.00    +0.000 C 
ENDROOT
BRANCH   1   4
ATOM      2  C   GLU A   1       1.657   4.781  18.666  0.00  0.00    +0.000 C 
ATOM      3  O   GLU A   1       1.325   4.302  17.584  0.00  0.00    +0.000 OA
ATOM      4  N   UNK A   2       2.486   5.872  18.762  0.00  0.00    +0.000 N 
ATOM      5  H   UNK A   2       2.835   6.174  19.667  0.00  0.00    +0.000 HD
BRANCH   2   6
ATOM      6  CA  GLU A   1       1.238   4.152  20.024  0.00  0.00    +0.000 C 
BRANCH   6   7
ATOM      7  N   GLU A   1       0.535   2.882  19.761  0.00  0.00    +0.000 NA
ATOM      8  H1  GLU A   1       0.615   2.247  20.554  0.00  0.00    +0.000 HD
ATOM      9  H2  GLU A   1       1.006   2.414  18.978  0.00  0.00    +0.000 HD
ENDBRANCH   6   7
BRANCH   6  10
ATOM     10  CB  GLU A   1       2.465   3.919  20.919  0.00  0.00    +0.000 C 
BRANCH  10  11
ATOM     11  CG  GLU A   1       2.876   2.445  21.024  0.00  0.00    +0.000 C 
BRANCH  11  12
ATOM     12  CD  GLU A   1       4.218   2.183  20.387  0.00  0.00    +0.000 C 
ATOM     13  OE1 GLU A   1       5.216   1.803  20.980  0.00  0.00    +0.000 OA
BRANCH  12  14
ATOM     14  OE2 GLU A   1       4.206   2.408  19.052  0.00  0.00    +0.000 OA
ATOM     15  HE2 GLU A   1       5.063   2.700  18.686  0.00  0.00    +0.000 HD
ENDBRANCH  12  14
ENDBRANCH  11  12
ENDBRANCH  10  11
ENDBRANCH   6  10
ENDBRANCH   2   6
ENDBRANCH   1   4
BRANCH   1  16
ATOM     16  C   UNK A   2       4.511   5.877  17.448  0.00  0.00    +0.000 C 
ATOM     17  O   UNK A   2       5.091   5.785  16.364  0.00  0.00    +0.000 OA
ATOM     18  N   GLY A   3       5.076   5.451  18.623  0.00  0.00    +0.000 N 
ATOM     19  H   GLY A   3       4.577   5.567  19.505  0.00  0.00    +0.000 HD
BRANCH  18  20
ATOM     20  CA  GLY A   3       6.370   4.792  18.686  0.00  0.00    +0.000 C 
BRANCH  20  21
ATOM     21  C   GLY A   3       7.433   5.755  19.204  0.00  0.00    +0.000 C 
ATOM     22  O   GLY A   3       7.847   6.715  18.569  0.00  0.00    +0.000 OA
BRANCH  21  23
ATOM     23  OXT GLY A   3       7.889   5.451  20.440  0.00  0.00    +0.000 OA
ATOM     24  HXT GLY A   3       8.770   5.034  20.468  0.00  0.00    +0.000 HD
ENDBRANCH  21  23
ENDBRANCH  20  21
ENDBRANCH  18  20
ENDBRANCH   1  16
BRANCH   1  25
ATOM     25  C   UNK A   2       3.137   8.030  17.715  0.00  0.00    +0.000 C 
BRANCH  25  26
ATOM     26  S   UNK A   2       1.508   8.756  18.171  0.00  0.00    +0.000 S 
BRANCH  26  27
ATOM     27  C   UNK A   2       1.952  10.520  18.248  0.00  0.00    +0.000 C 
BRANCH  27  28
ATOM     28  C   UNK A   2       0.843  11.355  18.889  0.00  0.00    +0.000 C 
ATOM     29  O   UNK A   2       0.498  12.444  18.438  0.00  0.00    +0.000 OA
ATOM     30  N   UNK A   2       0.184  10.757  19.953  0.00  0.00    +0.000 N 
ATOM     31  C   UNK A   2      -0.975  11.372  20.647  0.00  0.00    +0.000 C 
ATOM     32  C   UNK A   2      -0.272  11.058  21.977  0.00  0.00    +0.000 C 
ATOM     33  O   UNK A   2      -0.507  11.267  23.144  0.00  0.00    +0.000 OA
ATOM     34  C   UNK A   2       0.846  10.330  21.212  0.00  0.00    +0.000 C 
ENDBRANCH  27  28
ENDBRANCH  26  27
ENDBRANCH  25  26
ENDBRANCH   1  25
TORSDOF 15
ENDMDL
