MODEL 1
REMARK VINA RESULT:      -7.9      0.000      0.000
REMARK  Name = 
REMARK  4 active torsions:
REMARK  status: ('A' for Active; 'I' for Inactive)
REMARK    1  A    between atoms: C_1  and  N_2
REMARK    2  A    between atoms: N_5  and  C_6
REMARK    3  A    between atoms: C_9  and  C_10
REMARK    4  A    between atoms: N_24  and  C_25
REMARK                            x       y       z     vdW  Elec       q    Type
REMARK                         _______ _______ _______ _____ _____    ______ ____
ROOT
ATOM      1  C   UNL     1      -0.208  10.773  19.018  0.00  0.00    +0.000 A 
ATOM      2  N   UNL     1       0.231  11.960  19.526  0.00  0.00    +0.000 NA
ATOM      3  C   UNL     1      -0.602  13.013  19.653  0.00  0.00    +0.000 A 
ATOM      4  N   UNL     1      -0.100  14.180  20.168  0.00  0.00    +0.000 N 
ATOM      5  C   UNL     1       1.319  14.360  20.462  0.00  0.00    +0.000 C 
ATOM      6  C   UNL     1       1.489  14.793  21.927  0.00  0.00    +0.000 C 
ATOM      7  O   UNL     1       0.693  15.953  22.233  0.00  0.00    +0.000 OA
ATOM      8  C   UNL     1      -0.701  15.681  22.000  0.00  0.00    +0.000 C 
ATOM      9  C   UNL     1      -0.966  15.297  20.535  0.00  0.00    +0.000 C 
ATOM     10  N   UNL     1      -1.893  12.981  19.306  0.00  0.00    +0.000 NA
ATOM     11  C   UNL     1      -2.306  11.809  18.802  0.00  0.00    +0.000 A 
ATOM     12  C   UNL     1      -1.541  10.673  18.633  0.00  0.00    +0.000 A 
ATOM     13  C   UNL     1      -2.445   9.719  18.121  0.00  0.00    +0.000 A 
ATOM     14  N   UNL     1      -3.674  10.211  17.931  0.00  0.00    +0.000 NA
ATOM     15  N   UNL     1      -3.564  11.492  18.357  0.00  0.00    +0.000 N 
ENDROOT
BRANCH   1  19
ATOM     16  C   UNL     1       2.541   7.458  18.852  0.00  0.00    +0.000 A 
ATOM     17  C   UNL     1       1.889   7.798  20.036  0.00  0.00    +0.000 A 
ATOM     18  C   UNL     1       1.004   8.880  20.079  0.00  0.00    +0.000 A 
ATOM     19  C   UNL     1       0.745   9.661  18.943  0.00  0.00    +0.000 A 
ATOM     20  C   UNL     1       1.441   9.330  17.767  0.00  0.00    +0.000 A 
ATOM     21  C   UNL     1       2.325   8.243  17.720  0.00  0.00    +0.000 A 
BRANCH  16  26
ATOM     22  C   UNL     1       3.973   2.865  18.032  0.00  0.00    +0.000 C 
ATOM     23  N   UNL     1       4.172   4.236  18.440  0.00  0.00    +0.000 N 
ATOM     24  C   UNL     1       3.107   5.107  18.305  0.00  0.00    +0.000 C 
ATOM     25  O   UNL     1       2.040   4.759  17.815  0.00  0.00    +0.000 OA
ATOM     26  N   UNL     1       3.430   6.367  18.753  0.00  0.00    +0.000 N 
ATOM     27  H   UNL     1       4.757   4.394  19.248  0.00  0.00    +0.000 HD
ATOM     28  H   UNL     1       4.417   6.570  18.800  0.00  0.00    +0.000 HD
ENDBRANCH  16  26
ENDBRANCH   1  19
BRANCH  15  29
ATOM     29  C   UNL     1      -4.743  12.350  18.336  0.00  0.00    +0.000 C 
ATOM     30  C   UNL     1      -5.596  12.206  19.599  0.00  0.00    +0.000 C 
ATOM     31  C   UNL     1      -6.877  13.016  19.475  0.00  0.00    +0.000 C 
ATOM     32  O   UNL     1      -7.580  12.663  18.286  0.00  0.00    +0.000 OA
ATOM     33  C   UNL     1      -6.838  12.971  17.109  0.00  0.00    +0.000 C 
ATOM     34  C   UNL     1      -5.560  12.153  17.056  0.00  0.00    +0.000 C 
ENDBRANCH  15  29
TORSDOF 3
ENDMDL
MODEL 2
REMARK VINA RESULT:      -7.5      3.567      4.044
REMARK  Name = 
REMARK  4 active torsions:
REMARK  status: ('A' for Active; 'I' for Inactive)
REMARK    1  A    between atoms: C_1  and  N_2
REMARK    2  A    between atoms: N_5  and  C_6
REMARK    3  A    between atoms: C_9  and  C_10
REMARK    4  A    between atoms: N_24  and  C_25
REMARK                            x       y       z     vdW  Elec       q    Type
REMARK                         _______ _______ _______ _____ _____    ______ ____
ROOT
ATOM      1  C   UNL     1       0.822  10.556  20.178  0.00  0.00    +0.000 A 
ATOM      2  N   UNL     1       1.257  11.633  19.461  0.00  0.00    +0.000 NA
ATOM      3  C   UNL     1       0.806  12.874  19.731  0.00  0.00    +0.000 A 
ATOM      4  N   UNL     1       1.278  13.915  18.974  0.00  0.00    +0.000 N 
ATOM      5  C   UNL     1       2.146  13.712  17.817  0.00  0.00    +0.000 C 
ATOM      6  C   UNL     1       3.427  14.544  17.984  0.00  0.00    +0.000 C 
ATOM      7  O   UNL     1       3.131  15.930  18.235  0.00  0.00    +0.000 OA
ATOM      8  C   UNL     1       2.345  16.066  19.433  0.00  0.00    +0.000 C 
ATOM      9  C   UNL     1       1.011  15.308  19.323  0.00  0.00    +0.000 C 
ATOM     10  N   UNL     1      -0.076  13.148  20.698  0.00  0.00    +0.000 NA
ATOM     11  C   UNL     1      -0.497  12.078  21.387  0.00  0.00    +0.000 A 
ATOM     12  C   UNL     1      -0.100  10.771  21.197  0.00  0.00    +0.000 A 
ATOM     13  C   UNL     1      -0.789  10.050  22.194  0.00  0.00    +0.000 A 
ATOM     14  N   UNL     1      -1.597  10.818  22.931  0.00  0.00    +0.000 NA
ATOM     15  N   UNL     1      -1.401  12.056  22.420  0.00  0.00    +0.000 N 
ENDROOT
BRANCH   1  19
ATOM     16  C   UNL     1       2.530   6.729  19.168  0.00  0.00    +0.000 A 
ATOM     17  C   UNL     1       2.404   7.739  18.216  0.00  0.00    +0.000 A 
ATOM     18  C   UNL     1       1.843   8.975  18.554  0.00  0.00    +0.000 A 
ATOM     19  C   UNL     1       1.383   9.240  19.852  0.00  0.00    +0.000 A 
ATOM     20  C   UNL     1       1.478   8.197  20.791  0.00  0.00    +0.000 A 
ATOM     21  C   UNL     1       2.045   6.960  20.456  0.00  0.00    +0.000 A 
BRANCH  16  26
ATOM     22  C   UNL     1       2.690   2.065  17.743  0.00  0.00    +0.000 C 
ATOM     23  N   UNL     1       3.254   3.280  18.281  0.00  0.00    +0.000 N 
ATOM     24  C   UNL     1       2.444   4.399  18.326  0.00  0.00    +0.000 C 
ATOM     25  O   UNL     1       1.301   4.394  17.886  0.00  0.00    +0.000 OA
ATOM     26  N   UNL     1       3.103   5.473  18.882  0.00  0.00    +0.000 N 
ATOM     27  H   UNL     1       3.899   3.185  19.053  0.00  0.00    +0.000 HD
ATOM     28  H   UNL     1       4.110   5.415  18.873  0.00  0.00    +0.000 HD
ENDBRANCH  16  26
ENDBRANCH   1  19
BRANCH  15  29
ATOM     29  C   UNL     1      -2.102  13.188  23.012  0.00  0.00    +0.000 C 
ATOM     30  C   UNL     1      -1.173  14.097  23.821  0.00  0.00    +0.000 C 
ATOM     31  C   UNL     1      -1.969  15.184  24.525  0.00  0.00    +0.000 C 
ATOM     32  O   UNL     1      -3.011  14.613  25.313  0.00  0.00    +0.000 OA
ATOM     33  C   UNL     1      -3.968  13.917  24.517  0.00  0.00    +0.000 C 
ATOM     34  C   UNL     1      -3.321  12.734  23.820  0.00  0.00    +0.000 C 
ENDBRANCH  15  29
TORSDOF 3
ENDMDL
MODEL 3
REMARK VINA RESULT:      -7.5      1.028      1.341
REMARK  Name = 
REMARK  4 active torsions:
REMARK  status: ('A' for Active; 'I' for Inactive)
REMARK    1  A    between atoms: C_1  and  N_2
REMARK    2  A    between atoms: N_5  and  C_6
REMARK    3  A    between atoms: C_9  and  C_10
REMARK    4  A    between atoms: N_24  and  C_25
REMARK                            x       y       z     vdW  Elec       q    Type
REMARK                         _______ _______ _______ _____ _____    ______ ____
ROOT
ATOM      1  C   UNL     1       0.301  10.492  18.715  0.00  0.00    +0.000 A 
ATOM      2  N   UNL     1       0.866  11.720  18.899  0.00  0.00    +0.000 NA
ATOM      3  C   UNL     1       0.118  12.841  18.865  0.00  0.00    +0.000 A 
ATOM      4  N   UNL     1       0.745  14.046  19.054  0.00  0.00    +0.000 N 
ATOM      5  C   UNL     1       2.196  14.165  19.164  0.00  0.00    +0.000 C 
ATOM      6  C   UNL     1       2.554  14.890  20.472  0.00  0.00    +0.000 C 
ATOM      7  O   UNL     1       1.870  16.152  20.583  0.00  0.00    +0.000 OA
ATOM      8  C   UNL     1       0.445  15.954  20.551  0.00  0.00    +0.000 C 
ATOM      9  C   UNL     1      -0.005  15.285  19.242  0.00  0.00    +0.000 C 
ATOM     10  N   UNL     1      -1.203  12.844  18.658  0.00  0.00    +0.000 NA
ATOM     11  C   UNL     1      -1.740  11.629  18.473  0.00  0.00    +0.000 A 
ATOM     12  C   UNL     1      -1.070  10.424  18.491  0.00  0.00    +0.000 A 
ATOM     13  C   UNL     1      -2.082   9.461  18.294  0.00  0.00    +0.000 A 
ATOM     14  N   UNL     1      -3.291  10.002  18.117  0.00  0.00    +0.000 NA
ATOM     15  N   UNL     1      -3.057  11.331  18.232  0.00  0.00    +0.000 N 
ENDROOT
BRANCH   1  19
ATOM     16  C   UNL     1       2.917   7.073  18.918  0.00  0.00    +0.000 A 
ATOM     17  C   UNL     1       2.815   7.837  17.756  0.00  0.00    +0.000 A 
ATOM     18  C   UNL     1       1.958   8.941  17.702  0.00  0.00    +0.000 A 
ATOM     19  C   UNL     1       1.171   9.314  18.801  0.00  0.00    +0.000 A 
ATOM     20  C   UNL     1       1.254   8.508  19.950  0.00  0.00    +0.000 A 
ATOM     21  C   UNL     1       2.116   7.405  20.011  0.00  0.00    +0.000 A 
BRANCH  16  26
ATOM     22  C   UNL     1       4.202   2.413  19.590  0.00  0.00    +0.000 C 
ATOM     23  N   UNL     1       4.465   3.817  19.383  0.00  0.00    +0.000 N 
ATOM     24  C   UNL     1       3.381   4.652  19.190  0.00  0.00    +0.000 C 
ATOM     25  O   UNL     1       2.233   4.228  19.143  0.00  0.00    +0.000 OA
ATOM     26  N   UNL     1       3.778   5.961  19.030  0.00  0.00    +0.000 N 
ATOM     27  H   UNL     1       5.232   4.222  19.901  0.00  0.00    +0.000 HD
ATOM     28  H   UNL     1       4.739   6.091  18.755  0.00  0.00    +0.000 HD
ENDBRANCH  16  26
ENDBRANCH   1  19
BRANCH  15  29
ATOM     29  C   UNL     1      -4.177  12.259  18.132  0.00  0.00    +0.000 C 
ATOM     30  C   UNL     1      -4.882  12.476  19.473  0.00  0.00    +0.000 C 
ATOM     31  C   UNL     1      -6.117  13.344  19.294  0.00  0.00    +0.000 C 
ATOM     32  O   UNL     1      -6.976  12.794  18.297  0.00  0.00    +0.000 OA
ATOM     33  C   UNL     1      -6.360  12.766  17.011  0.00  0.00    +0.000 C 
ATOM     34  C   UNL     1      -5.149  11.850  17.022  0.00  0.00    +0.000 C 
ENDBRANCH  15  29
TORSDOF 3
ENDMDL
MODEL 4
REMARK VINA RESULT:      -7.4      3.336      3.925
REMARK  Name = 
REMARK  4 active torsions:
REMARK  status: ('A' for Active; 'I' for Inactive)
REMARK    1  A    between atoms: C_1  and  N_2
REMARK    2  A    between atoms: N_5  and  C_6
REMARK    3  A    between atoms: C_9  and  C_10
REMARK    4  A    between atoms: N_24  and  C_25
REMARK                            x       y       z     vdW  Elec       q    Type
REMARK                         _______ _______ _______ _____ _____    ______ ____
ROOT
ATOM      1  C   UNL     1       0.851  10.401  20.245  0.00  0.00    +0.000 A 
ATOM      2  N   UNL     1       1.181  11.539  19.568  0.00  0.00    +0.000 NA
ATOM      3  C   UNL     1       0.722  12.743  19.966  0.00  0.00    +0.000 A 
ATOM      4  N   UNL     1       1.087  13.849  19.243  0.00  0.00    +0.000 N 
ATOM      5  C   UNL     1       1.843  13.756  17.997  0.00  0.00    +0.000 C 
ATOM      6  C   UNL     1       3.110  14.621  18.100  0.00  0.00    +0.000 C 
ATOM      7  O   UNL     1       2.798  15.975  18.476  0.00  0.00    +0.000 OA
ATOM      8  C   UNL     1       2.129  16.001  19.750  0.00  0.00    +0.000 C 
ATOM      9  C   UNL     1       0.814  15.204  19.714  0.00  0.00    +0.000 C 
ATOM     10  N   UNL     1      -0.070  12.919  21.030  0.00  0.00    +0.000 NA
ATOM     11  C   UNL     1      -0.390  11.789  21.679  0.00  0.00    +0.000 A 
ATOM     12  C   UNL     1       0.026  10.513  21.360  0.00  0.00    +0.000 A 
ATOM     13  C   UNL     1      -0.541   9.702  22.364  0.00  0.00    +0.000 A 
ATOM     14  N   UNL     1      -1.296  10.389  23.228  0.00  0.00    +0.000 NA
ATOM     15  N   UNL     1      -1.187  11.665  22.788  0.00  0.00    +0.000 N 
ENDROOT
BRANCH   1  19
ATOM     16  C   UNL     1       2.566   6.717  18.812  0.00  0.00    +0.000 A 
ATOM     17  C   UNL     1       2.361   7.799  17.958  0.00  0.00    +0.000 A 
ATOM     18  C   UNL     1       1.798   8.987  18.434  0.00  0.00    +0.000 A 
ATOM     19  C   UNL     1       1.416   9.132  19.775  0.00  0.00    +0.000 A 
ATOM     20  C   UNL     1       1.591   8.018  20.614  0.00  0.00    +0.000 A 
ATOM     21  C   UNL     1       2.160   6.827  20.142  0.00  0.00    +0.000 A 
BRANCH  16  26
ATOM     22  C   UNL     1       2.846   1.934  17.884  0.00  0.00    +0.000 C 
ATOM     23  N   UNL     1       3.375   3.275  17.971  0.00  0.00    +0.000 N 
ATOM     24  C   UNL     1       2.501   4.288  18.318  0.00  0.00    +0.000 C 
ATOM     25  O   UNL     1       1.308   4.085  18.500  0.00  0.00    +0.000 OA
ATOM     26  N   UNL     1       3.145   5.503  18.385  0.00  0.00    +0.000 N 
ATOM     27  H   UNL     1       4.315   3.375  18.330  0.00  0.00    +0.000 HD
ATOM     28  H   UNL     1       4.020   5.558  17.886  0.00  0.00    +0.000 HD
ENDBRANCH  16  26
ENDBRANCH   1  19
BRANCH  15  29
ATOM     29  C   UNL     1      -1.861  12.729  23.523  0.00  0.00    +0.000 C 
ATOM     30  C   UNL     1      -3.309  12.930  23.070  0.00  0.00    +0.000 C 
ATOM     31  C   UNL     1      -3.926  14.131  23.768  0.00  0.00    +0.000 C 
ATOM     32  O   UNL     1      -3.118  15.291  23.580  0.00  0.00    +0.000 OA
ATOM     33  C   UNL     1      -1.827  15.150  24.168  0.00  0.00    +0.000 C 
ATOM     34  C   UNL     1      -1.055  14.030  23.494  0.00  0.00    +0.000 C 
ENDBRANCH  15  29
TORSDOF 3
ENDMDL
MODEL 5
REMARK VINA RESULT:      -7.3      3.545      4.018
REMARK  Name = 
REMARK  4 active torsions:
REMARK  status: ('A' for Active; 'I' for Inactive)
REMARK    1  A    between atoms: C_1  and  N_2
REMARK    2  A    between atoms: N_5  and  C_6
REMARK    3  A    between atoms: C_9  and  C_10
REMARK    4  A    between atoms: N_24  and  C_25
REMARK                            x       y       z     vdW  Elec       q    Type
REMARK                         _______ _______ _______ _____ _____    ______ ____
ROOT
ATOM      1  C   UNL     1       0.998  10.245  20.056  0.00  0.00    +0.000 A 
ATOM      2  N   UNL     1       1.323  11.424  19.449  0.00  0.00    +0.000 NA
ATOM      3  C   UNL     1       0.882  12.601  19.936  0.00  0.00    +0.000 A 
ATOM      4  N   UNL     1       1.240  13.750  19.281  0.00  0.00    +0.000 N 
ATOM      5  C   UNL     1       1.970  13.735  18.015  0.00  0.00    +0.000 C 
ATOM      6  C   UNL     1       3.245  14.583  18.148  0.00  0.00    +0.000 C 
ATOM      7  O   UNL     1       2.952  15.912  18.620  0.00  0.00    +0.000 OA
ATOM      8  C   UNL     1       2.310  15.857  19.906  0.00  0.00    +0.000 C 
ATOM      9  C   UNL     1       0.988  15.073  19.846  0.00  0.00    +0.000 C 
ATOM     10  N   UNL     1       0.114  12.711  21.026  0.00  0.00    +0.000 NA
ATOM     11  C   UNL     1      -0.201  11.543  21.605  0.00  0.00    +0.000 A 
ATOM     12  C   UNL     1       0.198  10.288  21.193  0.00  0.00    +0.000 A 
ATOM     13  C   UNL     1      -0.354   9.416  22.153  0.00  0.00    +0.000 A 
ATOM     14  N   UNL     1      -1.085  10.048  23.077  0.00  0.00    +0.000 NA
ATOM     15  N   UNL     1      -0.976  11.350  22.721  0.00  0.00    +0.000 N 
ENDROOT
BRANCH   1  19
ATOM     16  C   UNL     1       2.647   6.653  18.339  0.00  0.00    +0.000 A 
ATOM     17  C   UNL     1       2.327   7.753  17.545  0.00  0.00    +0.000 A 
ATOM     18  C   UNL     1       1.787   8.911  18.113  0.00  0.00    +0.000 A 
ATOM     19  C   UNL     1       1.543   9.007  19.491  0.00  0.00    +0.000 A 
ATOM     20  C   UNL     1       1.832   7.874  20.272  0.00  0.00    +0.000 A 
ATOM     21  C   UNL     1       2.379   6.714  19.706  0.00  0.00    +0.000 A 
BRANCH  16  26
ATOM     22  C   UNL     1       5.817   3.859  15.898  0.00  0.00    +0.000 C 
ATOM     23  N   UNL     1       4.613   4.101  16.657  0.00  0.00    +0.000 N 
ATOM     24  C   UNL     1       4.402   5.379  17.137  0.00  0.00    +0.000 C 
ATOM     25  O   UNL     1       5.219   6.277  16.977  0.00  0.00    +0.000 OA
ATOM     26  N   UNL     1       3.209   5.469  17.817  0.00  0.00    +0.000 N 
ATOM     27  H   UNL     1       3.780   3.608  16.365  0.00  0.00    +0.000 HD
ATOM     28  H   UNL     1       2.832   4.594  18.148  0.00  0.00    +0.000 HD
ENDBRANCH  16  26
ENDBRANCH   1  19
BRANCH  15  29
ATOM     29  C   UNL     1      -1.626  12.367  23.539  0.00  0.00    +0.000 C 
ATOM     30  C   UNL     1      -3.153  12.311  23.443  0.00  0.00    +0.000 C 
ATOM     31  C   UNL     1      -3.779  13.468  24.205  0.00  0.00    +0.000 C 
ATOM     32  O   UNL     1      -3.239  14.711  23.762  0.00  0.00    +0.000 OA
ATOM     33  C   UNL     1      -1.842  14.816  24.023  0.00  0.00    +0.000 C 
ATOM     34  C   UNL     1      -1.074  13.764  23.243  0.00  0.00    +0.000 C 
ENDBRANCH  15  29
TORSDOF 3
ENDMDL
MODEL 6
REMARK VINA RESULT:      -7.3      0.970      1.288
REMARK  Name = 
REMARK  4 active torsions:
REMARK  status: ('A' for Active; 'I' for Inactive)
REMARK    1  A    between atoms: C_1  and  N_2
REMARK    2  A    between atoms: N_5  and  C_6
REMARK    3  A    between atoms: C_9  and  C_10
REMARK    4  A    between atoms: N_24  and  C_25
REMARK                            x       y       z     vdW  Elec       q    Type
REMARK                         _______ _______ _______ _____ _____    ______ ____
ROOT
ATOM      1  C   UNL     1      -0.141  10.642  18.992  0.00  0.00    +0.000 A 
ATOM      2  N   UNL     1       0.327  11.830  19.472  0.00  0.00    +0.000 NA
ATOM      3  C   UNL     1      -0.481  12.905  19.575  0.00  0.00    +0.000 A 
ATOM      4  N   UNL     1       0.049  14.072  20.062  0.00  0.00    +0.000 N 
ATOM      5  C   UNL     1       1.472  14.225  20.352  0.00  0.00    +0.000 C 
ATOM      6  C   UNL     1       1.652  14.688  21.807  0.00  0.00    +0.000 C 
ATOM      7  O   UNL     1       0.885  15.873  22.085  0.00  0.00    +0.000 OA
ATOM      8  C   UNL     1      -0.515  15.629  21.858  0.00  0.00    +0.000 C 
ATOM      9  C   UNL     1      -0.790  15.217  20.402  0.00  0.00    +0.000 C 
ATOM     10  N   UNL     1      -1.773  12.896  19.228  0.00  0.00    +0.000 NA
ATOM     11  C   UNL     1      -2.213  11.722  18.752  0.00  0.00    +0.000 A 
ATOM     12  C   UNL     1      -1.476  10.565  18.610  0.00  0.00    +0.000 A 
ATOM     13  C   UNL     1      -2.402   9.621  18.120  0.00  0.00    +0.000 A 
ATOM     14  N   UNL     1      -3.619  10.137  17.918  0.00  0.00    +0.000 NA
ATOM     15  N   UNL     1      -3.479  11.425  18.314  0.00  0.00    +0.000 N 
ENDROOT
BRANCH   1  19
ATOM     16  C   UNL     1       2.632   7.348  18.789  0.00  0.00    +0.000 A 
ATOM     17  C   UNL     1       2.300   8.086  17.654  0.00  0.00    +0.000 A 
ATOM     18  C   UNL     1       1.395   9.149  17.732  0.00  0.00    +0.000 A 
ATOM     19  C   UNL     1       0.786   9.506  18.943  0.00  0.00    +0.000 A 
ATOM     20  C   UNL     1       1.098   8.726  20.071  0.00  0.00    +0.000 A 
ATOM     21  C   UNL     1       2.010   7.664  19.998  0.00  0.00    +0.000 A 
BRANCH  16  26
ATOM     22  C   UNL     1       6.377   4.652  17.203  0.00  0.00    +0.000 C 
ATOM     23  N   UNL     1       5.252   4.938  18.062  0.00  0.00    +0.000 N 
ATOM     24  C   UNL     1       4.614   6.153  17.902  0.00  0.00    +0.000 C 
ATOM     25  O   UNL     1       5.004   6.992  17.100  0.00  0.00    +0.000 OA
ATOM     26  N   UNL     1       3.551   6.279  18.767  0.00  0.00    +0.000 N 
ATOM     27  H   UNL     1       4.648   4.163  18.300  0.00  0.00    +0.000 HD
ATOM     28  H   UNL     1       3.573   5.672  19.572  0.00  0.00    +0.000 HD
ENDBRANCH  16  26
ENDBRANCH   1  19
BRANCH  15  29
ATOM     29  C   UNL     1      -4.637  12.310  18.273  0.00  0.00    +0.000 C 
ATOM     30  C   UNL     1      -5.455  12.266  19.566  0.00  0.00    +0.000 C 
ATOM     31  C   UNL     1      -6.719  13.099  19.428  0.00  0.00    +0.000 C 
ATOM     32  O   UNL     1      -7.466  12.691  18.284  0.00  0.00    +0.000 OA
ATOM     33  C   UNL     1      -6.752  12.907  17.069  0.00  0.00    +0.000 C 
ATOM     34  C   UNL     1      -5.496  12.054  17.032  0.00  0.00    +0.000 C 
ENDBRANCH  15  29
TORSDOF 3
ENDMDL
MODEL 7
REMARK VINA RESULT:      -7.1      3.600      4.144
REMARK  Name = 
REMARK  4 active torsions:
REMARK  status: ('A' for Active; 'I' for Inactive)
REMARK    1  A    between atoms: C_1  and  N_2
REMARK    2  A    between atoms: N_5  and  C_6
REMARK    3  A    between atoms: C_9  and  C_10
REMARK    4  A    between atoms: N_24  and  C_25
REMARK                            x       y       z     vdW  Elec       q    Type
REMARK                         _______ _______ _______ _____ _____    ______ ____
ROOT
ATOM      1  C   UNL     1       0.831  11.295  20.045  0.00  0.00    +0.000 A 
ATOM      2  N   UNL     1       1.408  12.385  19.461  0.00  0.00    +0.000 NA
ATOM      3  C   UNL     1       1.066  13.635  19.831  0.00  0.00    +0.000 A 
ATOM      4  N   UNL     1       1.679  14.689  19.205  0.00  0.00    +0.000 N 
ATOM      5  C   UNL     1       2.587  14.508  18.076  0.00  0.00    +0.000 C 
ATOM      6  C   UNL     1       3.932  15.185  18.385  0.00  0.00    +0.000 C 
ATOM      7  O   UNL     1       3.758  16.565  18.759  0.00  0.00    +0.000 OA
ATOM      8  C   UNL     1       2.921  16.666  19.926  0.00  0.00    +0.000 C 
ATOM      9  C   UNL     1       1.529  16.062  19.678  0.00  0.00    +0.000 C 
ATOM     10  N   UNL     1       0.160  13.905  20.778  0.00  0.00    +0.000 NA
ATOM     11  C   UNL     1      -0.401  12.823  21.336  0.00  0.00    +0.000 A 
ATOM     12  C   UNL     1      -0.122  11.506  21.036  0.00  0.00    +0.000 A 
ATOM     13  C   UNL     1      -0.934  10.768  21.923  0.00  0.00    +0.000 A 
ATOM     14  N   UNL     1      -1.704  11.542  22.694  0.00  0.00    +0.000 NA
ATOM     15  N   UNL     1      -1.360  12.797  22.318  0.00  0.00    +0.000 N 
ENDROOT
BRANCH   1  19
ATOM     16  C   UNL     1       2.201   7.427  18.728  0.00  0.00    +0.000 A 
ATOM     17  C   UNL     1       2.000   8.469  17.824  0.00  0.00    +0.000 A 
ATOM     18  C   UNL     1       1.550   9.718  18.264  0.00  0.00    +0.000 A 
ATOM     19  C   UNL     1       1.279   9.966  19.617  0.00  0.00    +0.000 A 
ATOM     20  C   UNL     1       1.447   8.893  20.510  0.00  0.00    +0.000 A 
ATOM     21  C   UNL     1       1.903   7.641  20.074  0.00  0.00    +0.000 A 
BRANCH  16  26
ATOM     22  C   UNL     1       5.191   4.148  16.698  0.00  0.00    +0.000 C 
ATOM     23  N   UNL     1       3.984   4.566  17.371  0.00  0.00    +0.000 N 
ATOM     24  C   UNL     1       3.876   5.896  17.729  0.00  0.00    +0.000 C 
ATOM     25  O   UNL     1       4.780   6.698  17.534  0.00  0.00    +0.000 OA
ATOM     26  N   UNL     1       2.669   6.155  18.338  0.00  0.00    +0.000 N 
ATOM     27  H   UNL     1       3.122   4.126  17.082  0.00  0.00    +0.000 HD
ATOM     28  H   UNL     1       2.198   5.351  18.724  0.00  0.00    +0.000 HD
ENDBRANCH  16  26
ENDBRANCH   1  19
BRANCH  15  29
ATOM     29  C   UNL     1      -1.981  13.934  22.986  0.00  0.00    +0.000 C 
ATOM     30  C   UNL     1      -1.102  14.513  24.098  0.00  0.00    +0.000 C 
ATOM     31  C   UNL     1      -1.844  15.606  24.850  0.00  0.00    +0.000 C 
ATOM     32  O   UNL     1      -3.098  15.125  25.327  0.00  0.00    +0.000 OA
ATOM     33  C   UNL     1      -3.973  14.756  24.264  0.00  0.00    +0.000 C 
ATOM     34  C   UNL     1      -3.392  13.596  23.475  0.00  0.00    +0.000 C 
ENDBRANCH  15  29
TORSDOF 3
ENDMDL
MODEL 8
REMARK VINA RESULT:      -6.9      1.389      1.709
REMARK  Name = 
REMARK  4 active torsions:
REMARK  status: ('A' for Active; 'I' for Inactive)
REMARK    1  A    between atoms: C_1  and  N_2
REMARK    2  A    between atoms: N_5  and  C_6
REMARK    3  A    between atoms: C_9  and  C_10
REMARK    4  A    between atoms: N_24  and  C_25
REMARK                            x       y       z     vdW  Elec       q    Type
REMARK                         _______ _______ _______ _____ _____    ______ ____
ROOT
ATOM      1  C   UNL     1      -1.216  10.798  19.193  0.00  0.00    +0.000 A 
ATOM      2  N   UNL     1      -1.127  11.881  20.018  0.00  0.00    +0.000 NA
ATOM      3  C   UNL     1      -2.171  12.718  20.180  0.00  0.00    +0.000 A 
ATOM      4  N   UNL     1      -2.020  13.790  21.021  0.00  0.00    +0.000 N 
ATOM      5  C   UNL     1      -0.741  14.123  21.642  0.00  0.00    +0.000 C 
ATOM      6  C   UNL     1      -0.917  14.206  23.167  0.00  0.00    +0.000 C 
ATOM      7  O   UNL     1      -1.978  15.110  23.530  0.00  0.00    +0.000 OA
ATOM      8  C   UNL     1      -3.224  14.677  22.954  0.00  0.00    +0.000 C 
ATOM      9  C   UNL     1      -3.150  14.626  21.418  0.00  0.00    +0.000 C 
ATOM     10  N   UNL     1      -3.350  12.561  19.566  0.00  0.00    +0.000 NA
ATOM     11  C   UNL     1      -3.416  11.496  18.754  0.00  0.00    +0.000 A 
ATOM     12  C   UNL     1      -2.414  10.578  18.520  0.00  0.00    +0.000 A 
ATOM     13  C   UNL     1      -2.997   9.643  17.640  0.00  0.00    +0.000 A 
ATOM     14  N   UNL     1      -4.251   9.957  17.299  0.00  0.00    +0.000 NA
ATOM     15  N   UNL     1      -4.486  11.095  17.994  0.00  0.00    +0.000 N 
ENDROOT
BRANCH   1  19
ATOM     16  C   UNL     1       2.165   8.136  18.960  0.00  0.00    +0.000 A 
ATOM     17  C   UNL     1       1.523   8.385  20.173  0.00  0.00    +0.000 A 
ATOM     18  C   UNL     1       0.431   9.256  20.236  0.00  0.00    +0.000 A 
ATOM     19  C   UNL     1      -0.053   9.910  19.093  0.00  0.00    +0.000 A 
ATOM     20  C   UNL     1       0.632   9.680  17.886  0.00  0.00    +0.000 A 
ATOM     21  C   UNL     1       1.724   8.804  17.819  0.00  0.00    +0.000 A 
BRANCH  16  26
ATOM     22  C   UNL     1       4.553   3.879  18.970  0.00  0.00    +0.000 C 
ATOM     23  N   UNL     1       4.458   5.317  18.876  0.00  0.00    +0.000 N 
ATOM     24  C   UNL     1       3.197   5.882  18.916  0.00  0.00    +0.000 C 
ATOM     25  O   UNL     1       2.181   5.202  18.979  0.00  0.00    +0.000 OA
ATOM     26  N   UNL     1       3.261   7.255  18.841  0.00  0.00    +0.000 N 
ATOM     27  H   UNL     1       5.185   5.855  19.327  0.00  0.00    +0.000 HD
ATOM     28  H   UNL     1       4.115   7.629  18.455  0.00  0.00    +0.000 HD
ENDBRANCH  16  26
ENDBRANCH   1  19
BRANCH  15  29
ATOM     29  C   UNL     1      -5.797  11.726  17.901  0.00  0.00    +0.000 C 
ATOM     30  C   UNL     1      -5.797  12.949  16.981  0.00  0.00    +0.000 C 
ATOM     31  C   UNL     1      -7.147  13.648  17.019  0.00  0.00    +0.000 C 
ATOM     32  O   UNL     1      -7.510  13.962  18.362  0.00  0.00    +0.000 OA
ATOM     33  C   UNL     1      -7.681  12.795  19.162  0.00  0.00    +0.000 C 
ATOM     34  C   UNL     1      -6.369  12.039  19.286  0.00  0.00    +0.000 C 
ENDBRANCH  15  29
TORSDOF 3
ENDMDL
MODEL 9
REMARK VINA RESULT:      -6.8      3.682      4.156
REMARK  Name = 
REMARK  4 active torsions:
REMARK  status: ('A' for Active; 'I' for Inactive)
REMARK    1  A    between atoms: C_1  and  N_2
REMARK    2  A    between atoms: N_5  and  C_6
REMARK    3  A    between atoms: C_9  and  C_10
REMARK    4  A    between atoms: N_24  and  C_25
REMARK                            x       y       z     vdW  Elec       q    Type
REMARK                         _______ _______ _______ _____ _____    ______ ____
ROOT
ATOM      1  C   UNL     1       0.754  11.121  20.437  0.00  0.00    +0.000 A 
ATOM      2  N   UNL     1       1.346  12.134  19.740  0.00  0.00    +0.000 NA
ATOM      3  C   UNL     1       1.033  13.422  19.988  0.00  0.00    +0.000 A 
ATOM      4  N   UNL     1       1.659  14.396  19.253  0.00  0.00    +0.000 N 
ATOM      5  C   UNL     1       2.549  14.084  18.137  0.00  0.00    +0.000 C 
ATOM      6  C   UNL     1       3.911  14.760  18.364  0.00  0.00    +0.000 C 
ATOM      7  O   UNL     1       3.770  16.173  18.600  0.00  0.00    +0.000 OA
ATOM      8  C   UNL     1       2.950  16.408  19.759  0.00  0.00    +0.000 C 
ATOM      9  C   UNL     1       1.543  15.812  19.588  0.00  0.00    +0.000 C 
ATOM     10  N   UNL     1       0.145  13.805  20.913  0.00  0.00    +0.000 NA
ATOM     11  C   UNL     1      -0.431  12.796  21.582  0.00  0.00    +0.000 A 
ATOM     12  C   UNL     1      -0.182  11.450  21.412  0.00  0.00    +0.000 A 
ATOM     13  C   UNL     1      -0.997  10.821  22.376  0.00  0.00    +0.000 A 
ATOM     14  N   UNL     1      -1.742  11.684  23.074  0.00  0.00    +0.000 NA
ATOM     15  N   UNL     1      -1.377  12.887  22.571  0.00  0.00    +0.000 N 
ENDROOT
BRANCH   1  19
ATOM     16  C   UNL     1       1.915   7.052  19.619  0.00  0.00    +0.000 A 
ATOM     17  C   UNL     1       1.567   7.460  20.906  0.00  0.00    +0.000 A 
ATOM     18  C   UNL     1       1.198   8.785  21.160  0.00  0.00    +0.000 A 
ATOM     19  C   UNL     1       1.170   9.747  20.139  0.00  0.00    +0.000 A 
ATOM     20  C   UNL     1       1.563   9.329  18.855  0.00  0.00    +0.000 A 
ATOM     21  C   UNL     1       1.929   8.000  18.597  0.00  0.00    +0.000 A 
BRANCH  16  26
ATOM     22  C   UNL     1       4.878   3.284  18.701  0.00  0.00    +0.000 C 
ATOM     23  N   UNL     1       3.591   3.927  18.820  0.00  0.00    +0.000 N 
ATOM     24  C   UNL     1       3.564   5.234  19.269  0.00  0.00    +0.000 C 
ATOM     25  O   UNL     1       4.581   5.827  19.605  0.00  0.00    +0.000 OA
ATOM     26  N   UNL     1       2.279   5.725  19.309  0.00  0.00    +0.000 N 
ATOM     27  H   UNL     1       2.897   3.698  18.122  0.00  0.00    +0.000 HD
ATOM     28  H   UNL     1       1.550   5.028  19.333  0.00  0.00    +0.000 HD
ENDBRANCH  16  26
ENDBRANCH   1  19
BRANCH  15  29
ATOM     29  C   UNL     1      -1.967  14.098  23.129  0.00  0.00    +0.000 C 
ATOM     30  C   UNL     1      -1.113  14.707  24.245  0.00  0.00    +0.000 C 
ATOM     31  C   UNL     1      -1.829  15.886  24.883  0.00  0.00    +0.000 C 
ATOM     32  O   UNL     1      -3.130  15.504  25.325  0.00  0.00    +0.000 OA
ATOM     33  C   UNL     1      -3.971  15.108  24.244  0.00  0.00    +0.000 C 
ATOM     34  C   UNL     1      -3.416  13.868  23.565  0.00  0.00    +0.000 C 
ENDBRANCH  15  29
TORSDOF 3
ENDMDL
