MODEL 1
REMARK VINA RESULT:      -7.3      0.000      0.000
REMARK  Name = 
REMARK  6 active torsions:
REMARK  status: ('A' for Active; 'I' for Inactive)
REMARK    1  A    between atoms: C_1  and  C_2
REMARK    2  A    between atoms: C_2  and  C_3
REMARK    3  A    between atoms: C_3  and  C_4
REMARK    4  A    between atoms: C_4  and  C_5
REMARK    5  A    between atoms: C_5  and  C_6
REMARK    6  A    between atoms: C_6  and  N_7
REMARK                            x       y       z     vdW  Elec       q    Type
REMARK                         _______ _______ _______ _____ _____    ______ ____
ROOT
ATOM      1  N   UNL     1       6.096   5.562  17.485  0.00  0.00    +0.000 NA
ATOM      2  C   UNL     1       5.571   4.901  18.678  0.00  0.00    +0.000 C 
ATOM      3  C   UNL     1       4.657   5.837  19.392  0.00  0.00    +0.000 C 
ATOM      4  C   UNL     1       3.294   5.873  18.672  0.00  0.00    +0.000 C 
ATOM      5  C   UNL     1       2.309   6.653  19.591  0.00  0.00    +0.000 C 
ATOM      6  C   UNL     1       2.271   6.026  21.011  0.00  0.00    +0.000 C 
ATOM      7  C   UNL     1       2.054   4.513  21.020  0.00  0.00    +0.000 C 
ATOM      8  C   UNL     1       2.286   3.784  19.714  0.00  0.00    +0.000 A 
ATOM      9  C   UNL     1       2.040   2.401  19.668  0.00  0.00    +0.000 A 
ATOM     10  C   UNL     1       2.080   1.711  18.457  0.00  0.00    +0.000 A 
ATOM     11  C   UNL     1       2.309   2.405  17.279  0.00  0.00    +0.000 A 
ATOM     12  C   UNL     1       2.604   3.768  17.319  0.00  0.00    +0.000 A 
ATOM     13  C   UNL     1       2.684   4.461  18.542  0.00  0.00    +0.000 A 
ATOM     14  C   UNL     1       3.627   6.563  17.304  0.00  0.00    +0.000 C 
ATOM     15  C   UNL     1       5.056   6.233  16.688  0.00  0.00    +0.000 C 
ENDROOT
BRANCH   1  16
ATOM     16  C   UNL     1       6.963   4.589  16.814  0.00  0.00    +0.000 C 
BRANCH  16  17
ATOM     17  C   UNL     1       7.160   4.787  15.322  0.00  0.00    +0.000 C 
BRANCH  17  18
ATOM     18  C   UNL     1       6.286   3.794  14.535  0.00  0.00    +0.000 C 
BRANCH  18  19
ATOM     19  C   UNL     1       6.226   4.153  13.053  0.00  0.00    +0.000 C 
BRANCH  19  21
ATOM     20  C   UNL     1       4.445   3.252  11.518  0.00  0.00    +0.000 C 
ATOM     21  C   UNL     1       5.766   2.963  12.212  0.00  0.00    +0.000 C 
ENDBRANCH  19  21
ENDBRANCH  18  19
ENDBRANCH  17  18
ENDBRANCH  16  17
ENDBRANCH   1  16
TORSDOF 5
ENDMDL
MODEL 2
REMARK VINA RESULT:      -7.2      1.463      3.293
REMARK  Name = 
REMARK  6 active torsions:
REMARK  status: ('A' for Active; 'I' for Inactive)
REMARK    1  A    between atoms: C_1  and  C_2
REMARK    2  A    between atoms: C_2  and  C_3
REMARK    3  A    between atoms: C_3  and  C_4
REMARK    4  A    between atoms: C_4  and  C_5
REMARK    5  A    between atoms: C_5  and  C_6
REMARK    6  A    between atoms: C_6  and  N_7
REMARK                            x       y       z     vdW  Elec       q    Type
REMARK                         _______ _______ _______ _____ _____    ______ ____
ROOT
ATOM      1  N   UNL     1       5.926   3.917  15.408  0.00  0.00    +0.000 NA
ATOM      2  C   UNL     1       4.557   3.873  15.919  0.00  0.00    +0.000 C 
ATOM      3  C   UNL     1       4.562   3.261  17.278  0.00  0.00    +0.000 C 
ATOM      4  C   UNL     1       5.036   4.305  18.309  0.00  0.00    +0.000 C 
ATOM      5  C   UNL     1       4.780   3.703  19.722  0.00  0.00    +0.000 C 
ATOM      6  C   UNL     1       3.295   3.274  19.875  0.00  0.00    +0.000 C 
ATOM      7  C   UNL     1       2.289   4.352  19.473  0.00  0.00    +0.000 C 
ATOM      8  C   UNL     1       2.819   5.504  18.645  0.00  0.00    +0.000 A 
ATOM      9  C   UNL     1       1.937   6.544  18.306  0.00  0.00    +0.000 A 
ATOM     10  C   UNL     1       2.407   7.702  17.687  0.00  0.00    +0.000 A 
ATOM     11  C   UNL     1       3.765   7.853  17.455  0.00  0.00    +0.000 A 
ATOM     12  C   UNL     1       4.642   6.806  17.741  0.00  0.00    +0.000 A 
ATOM     13  C   UNL     1       4.173   5.583  18.259  0.00  0.00    +0.000 A 
ATOM     14  C   UNL     1       6.543   4.524  17.934  0.00  0.00    +0.000 C 
ATOM     15  C   UNL     1       6.893   4.444  16.385  0.00  0.00    +0.000 C 
ENDROOT
BRANCH   1  16
ATOM     16  C   UNL     1       5.861   4.549  14.088  0.00  0.00    +0.000 C 
BRANCH  16  17
ATOM     17  C   UNL     1       6.716   3.921  13.002  0.00  0.00    +0.000 C 
BRANCH  17  18
ATOM     18  C   UNL     1       5.835   3.102  12.042  0.00  0.00    +0.000 C 
BRANCH  18  19
ATOM     19  C   UNL     1       4.418   3.664  11.965  0.00  0.00    +0.000 C 
BRANCH  19  21
ATOM     20  C   UNL     1       3.096   4.059   9.858  0.00  0.00    +0.000 C 
ATOM     21  C   UNL     1       3.625   3.017  10.830  0.00  0.00    +0.000 C 
ENDBRANCH  19  21
ENDBRANCH  18  19
ENDBRANCH  17  18
ENDBRANCH  16  17
ENDBRANCH   1  16
TORSDOF 5
ENDMDL
MODEL 3
REMARK VINA RESULT:      -7.0      0.862      1.007
REMARK  Name = 
REMARK  6 active torsions:
REMARK  status: ('A' for Active; 'I' for Inactive)
REMARK    1  A    between atoms: C_1  and  C_2
REMARK    2  A    between atoms: C_2  and  C_3
REMARK    3  A    between atoms: C_3  and  C_4
REMARK    4  A    between atoms: C_4  and  C_5
REMARK    5  A    between atoms: C_5  and  C_6
REMARK    6  A    between atoms: C_6  and  N_7
REMARK                            x       y       z     vdW  Elec       q    Type
REMARK                         _______ _______ _______ _____ _____    ______ ____
ROOT
ATOM      1  N   UNL     1       5.740   6.453  17.670  0.00  0.00    +0.000 NA
ATOM      2  C   UNL     1       5.465   5.466  18.713  0.00  0.00    +0.000 C 
ATOM      3  C   UNL     1       4.410   5.998  19.622  0.00  0.00    +0.000 C 
ATOM      4  C   UNL     1       3.029   5.846  18.953  0.00  0.00    +0.000 C 
ATOM      5  C   UNL     1       1.957   6.172  20.033  0.00  0.00    +0.000 C 
ATOM      6  C   UNL     1       2.162   5.290  21.294  0.00  0.00    +0.000 C 
ATOM      7  C   UNL     1       2.301   3.798  20.996  0.00  0.00    +0.000 C 
ATOM      8  C   UNL     1       2.605   3.415  19.563  0.00  0.00    +0.000 A 
ATOM      9  C   UNL     1       2.681   2.049  19.238  0.00  0.00    +0.000 A 
ATOM     10  C   UNL     1       2.797   1.639  17.911  0.00  0.00    +0.000 A 
ATOM     11  C   UNL     1       2.778   2.583  16.896  0.00  0.00    +0.000 A 
ATOM     12  C   UNL     1       2.752   3.943  17.210  0.00  0.00    +0.000 A 
ATOM     13  C   UNL     1       2.754   4.382  18.548  0.00  0.00    +0.000 A 
ATOM     14  C   UNL     1       3.100   6.849  17.749  0.00  0.00    +0.000 C 
ATOM     15  C   UNL     1       4.521   6.998  17.050  0.00  0.00    +0.000 C 
ENDROOT
BRANCH   1  16
ATOM     16  C   UNL     1       6.759   5.867  16.796  0.00  0.00    +0.000 C 
BRANCH  16  17
ATOM     17  C   UNL     1       6.862   4.353  16.809  0.00  0.00    +0.000 C 
BRANCH  17  18
ATOM     18  C   UNL     1       6.075   3.757  15.629  0.00  0.00    +0.000 C 
BRANCH  18  19
ATOM     19  C   UNL     1       6.447   4.431  14.311  0.00  0.00    +0.000 C 
BRANCH  19  21
ATOM     20  C   UNL     1       6.746   3.496  11.992  0.00  0.00    +0.000 C 
ATOM     21  C   UNL     1       5.766   3.748  13.126  0.00  0.00    +0.000 C 
ENDBRANCH  19  21
ENDBRANCH  18  19
ENDBRANCH  17  18
ENDBRANCH  16  17
ENDBRANCH   1  16
TORSDOF 5
ENDMDL
MODEL 4
REMARK VINA RESULT:      -6.8      1.560      3.350
REMARK  Name = 
REMARK  6 active torsions:
REMARK  status: ('A' for Active; 'I' for Inactive)
REMARK    1  A    between atoms: C_1  and  C_2
REMARK    2  A    between atoms: C_2  and  C_3
REMARK    3  A    between atoms: C_3  and  C_4
REMARK    4  A    between atoms: C_4  and  C_5
REMARK    5  A    between atoms: C_5  and  C_6
REMARK    6  A    between atoms: C_6  and  N_7
REMARK                            x       y       z     vdW  Elec       q    Type
REMARK                         _______ _______ _______ _____ _____    ______ ____
ROOT
ATOM      1  N   UNL     1       6.258   4.019  15.639  0.00  0.00    +0.000 NA
ATOM      2  C   UNL     1       4.837   3.944  15.971  0.00  0.00    +0.000 C 
ATOM      3  C   UNL     1       4.681   3.297  17.306  0.00  0.00    +0.000 C 
ATOM      4  C   UNL     1       5.004   4.320  18.413  0.00  0.00    +0.000 C 
ATOM      5  C   UNL     1       4.582   3.679  19.768  0.00  0.00    +0.000 C 
ATOM      6  C   UNL     1       3.097   3.226  19.721  0.00  0.00    +0.000 C 
ATOM      7  C   UNL     1       2.132   4.301  19.221  0.00  0.00    +0.000 C 
ATOM      8  C   UNL     1       2.743   5.480  18.494  0.00  0.00    +0.000 A 
ATOM      9  C   UNL     1       1.893   6.517  18.071  0.00  0.00    +0.000 A 
ATOM     10  C   UNL     1       2.418   7.697  17.544  0.00  0.00    +0.000 A 
ATOM     11  C   UNL     1       3.792   7.873  17.490  0.00  0.00    +0.000 A 
ATOM     12  C   UNL     1       4.643   6.831  17.860  0.00  0.00    +0.000 A 
ATOM     13  C   UNL     1       4.133   5.588  18.284  0.00  0.00    +0.000 A 
ATOM     14  C   UNL     1       6.542   4.570  18.237  0.00  0.00    +0.000 C 
ATOM     15  C   UNL     1       7.086   4.535  16.742  0.00  0.00    +0.000 C 
ENDROOT
BRANCH   1  16
ATOM     16  C   UNL     1       6.350   4.685  14.337  0.00  0.00    +0.000 C 
BRANCH  16  17
ATOM     17  C   UNL     1       5.473   4.121  13.234  0.00  0.00    +0.000 C 
BRANCH  17  18
ATOM     18  C   UNL     1       6.337   3.387  12.192  0.00  0.00    +0.000 C 
BRANCH  18  19
ATOM     19  C   UNL     1       5.599   2.193  11.593  0.00  0.00    +0.000 C 
BRANCH  19  21
ATOM     20  C   UNL     1       6.158  -0.248  11.337  0.00  0.00    +0.000 C 
ATOM     21  C   UNL     1       6.575   1.175  11.005  0.00  0.00    +0.000 C 
ENDBRANCH  19  21
ENDBRANCH  18  19
ENDBRANCH  17  18
ENDBRANCH  16  17
ENDBRANCH   1  16
TORSDOF 5
ENDMDL
MODEL 5
REMARK VINA RESULT:      -6.8      1.880      3.609
REMARK  Name = 
REMARK  6 active torsions:
REMARK  status: ('A' for Active; 'I' for Inactive)
REMARK    1  A    between atoms: C_1  and  C_2
REMARK    2  A    between atoms: C_2  and  C_3
REMARK    3  A    between atoms: C_3  and  C_4
REMARK    4  A    between atoms: C_4  and  C_5
REMARK    5  A    between atoms: C_5  and  C_6
REMARK    6  A    between atoms: C_6  and  N_7
REMARK                            x       y       z     vdW  Elec       q    Type
REMARK                         _______ _______ _______ _____ _____    ______ ____
ROOT
ATOM      1  N   UNL     1       6.122   4.553  14.149  0.00  0.00    +0.000 NA
ATOM      2  C   UNL     1       6.610   4.085  15.445  0.00  0.00    +0.000 C 
ATOM      3  C   UNL     1       7.236   5.226  16.172  0.00  0.00    +0.000 C 
ATOM      4  C   UNL     1       6.131   6.115  16.779  0.00  0.00    +0.000 C 
ATOM      5  C   UNL     1       6.830   7.130  17.730  0.00  0.00    +0.000 C 
ATOM      6  C   UNL     1       7.708   6.388  18.775  0.00  0.00    +0.000 C 
ATOM      7  C   UNL     1       6.986   5.256  19.505  0.00  0.00    +0.000 C 
ATOM      8  C   UNL     1       5.699   4.756  18.884  0.00  0.00    +0.000 A 
ATOM      9  C   UNL     1       4.976   3.757  19.558  0.00  0.00    +0.000 A 
ATOM     10  C   UNL     1       3.710   3.375  19.118  0.00  0.00    +0.000 A 
ATOM     11  C   UNL     1       3.132   4.027  18.040  0.00  0.00    +0.000 A 
ATOM     12  C   UNL     1       3.861   4.986  17.333  0.00  0.00    +0.000 A 
ATOM     13  C   UNL     1       5.186   5.302  17.690  0.00  0.00    +0.000 A 
ATOM     14  C   UNL     1       5.438   6.740  15.519  0.00  0.00    +0.000 C 
ATOM     15  C   UNL     1       5.352   5.805  14.236  0.00  0.00    +0.000 C 
ENDROOT
BRANCH   1  16
ATOM     16  C   UNL     1       5.498   3.400  13.494  0.00  0.00    +0.000 C 
BRANCH  16  17
ATOM     17  C   UNL     1       6.079   2.996  12.152  0.00  0.00    +0.000 C 
BRANCH  17  18
ATOM     18  C   UNL     1       4.959   2.517  11.211  0.00  0.00    +0.000 C 
BRANCH  18  19
ATOM     19  C   UNL     1       3.810   3.520  11.154  0.00  0.00    +0.000 C 
BRANCH  19  21
ATOM     20  C   UNL     1       2.607   4.666   9.262  0.00  0.00    +0.000 C 
ATOM     21  C   UNL     1       2.971   3.331   9.891  0.00  0.00    +0.000 C 
ENDBRANCH  19  21
ENDBRANCH  18  19
ENDBRANCH  17  18
ENDBRANCH  16  17
ENDBRANCH   1  16
TORSDOF 5
ENDMDL
MODEL 6
REMARK VINA RESULT:      -6.7      2.731      4.575
REMARK  Name = 
REMARK  6 active torsions:
REMARK  status: ('A' for Active; 'I' for Inactive)
REMARK    1  A    between atoms: C_1  and  C_2
REMARK    2  A    between atoms: C_2  and  C_3
REMARK    3  A    between atoms: C_3  and  C_4
REMARK    4  A    between atoms: C_4  and  C_5
REMARK    5  A    between atoms: C_5  and  C_6
REMARK    6  A    between atoms: C_6  and  N_7
REMARK                            x       y       z     vdW  Elec       q    Type
REMARK                         _______ _______ _______ _____ _____    ______ ____
ROOT
ATOM      1  N   UNL     1       6.223   5.583  18.104  0.00  0.00    +0.000 NA
ATOM      2  C   UNL     1       4.953   5.679  18.821  0.00  0.00    +0.000 C 
ATOM      3  C   UNL     1       3.834   5.435  17.866  0.00  0.00    +0.000 C 
ATOM      4  C   UNL     1       3.703   3.921  17.604  0.00  0.00    +0.000 C 
ATOM      5  C   UNL     1       2.378   3.705  16.817  0.00  0.00    +0.000 C 
ATOM      6  C   UNL     1       1.179   4.333  17.577  0.00  0.00    +0.000 C 
ATOM      7  C   UNL     1       1.094   3.931  19.049  0.00  0.00    +0.000 C 
ATOM      8  C   UNL     1       2.337   3.321  19.662  0.00  0.00    +0.000 A 
ATOM      9  C   UNL     1       2.279   2.885  20.997  0.00  0.00    +0.000 A 
ATOM     10  C   UNL     1       3.338   2.173  21.560  0.00  0.00    +0.000 A 
ATOM     11  C   UNL     1       4.434   1.842  20.779  0.00  0.00    +0.000 A 
ATOM     12  C   UNL     1       4.524   2.313  19.468  0.00  0.00    +0.000 A 
ATOM     13  C   UNL     1       3.520   3.132  18.918  0.00  0.00    +0.000 A 
ATOM     14  C   UNL     1       5.017   3.577  16.819  0.00  0.00    +0.000 C 
ATOM     15  C   UNL     1       6.315   4.392  17.242  0.00  0.00    +0.000 C 
ENDROOT
BRANCH   1  16
ATOM     16  C   UNL     1       7.281   5.804  19.093  0.00  0.00    +0.000 C 
BRANCH  16  17
ATOM     17  C   UNL     1       8.244   6.940  18.801  0.00  0.00    +0.000 C 
BRANCH  17  18
ATOM     18  C   UNL     1       7.779   7.723  17.561  0.00  0.00    +0.000 C 
BRANCH  18  19
ATOM     19  C   UNL     1       7.824   9.230  17.801  0.00  0.00    +0.000 C 
BRANCH  19  21
ATOM     20  C   UNL     1       9.563  10.951  18.395  0.00  0.00    +0.000 C 
ATOM     21  C   UNL     1       8.955   9.606  18.757  0.00  0.00    +0.000 C 
ENDBRANCH  19  21
ENDBRANCH  18  19
ENDBRANCH  17  18
ENDBRANCH  16  17
ENDBRANCH   1  16
TORSDOF 5
ENDMDL
MODEL 7
REMARK VINA RESULT:      -6.6      1.711      6.080
REMARK  Name = 
REMARK  6 active torsions:
REMARK  status: ('A' for Active; 'I' for Inactive)
REMARK    1  A    between atoms: C_1  and  C_2
REMARK    2  A    between atoms: C_2  and  C_3
REMARK    3  A    between atoms: C_3  and  C_4
REMARK    4  A    between atoms: C_4  and  C_5
REMARK    5  A    between atoms: C_5  and  C_6
REMARK    6  A    between atoms: C_6  and  N_7
REMARK                            x       y       z     vdW  Elec       q    Type
REMARK                         _______ _______ _______ _____ _____    ______ ____
ROOT
ATOM      1  N   UNL     1       2.807   5.986  18.647  0.00  0.00    +0.000 NA
ATOM      2  C   UNL     1       3.702   4.884  18.296  0.00  0.00    +0.000 C 
ATOM      3  C   UNL     1       3.900   4.867  16.819  0.00  0.00    +0.000 C 
ATOM      4  C   UNL     1       4.907   5.964  16.422  0.00  0.00    +0.000 C 
ATOM      5  C   UNL     1       5.269   5.737  14.925  0.00  0.00    +0.000 C 
ATOM      6  C   UNL     1       5.773   4.286  14.697  0.00  0.00    +0.000 C 
ATOM      7  C   UNL     1       6.867   3.846  15.668  0.00  0.00    +0.000 C 
ATOM      8  C   UNL     1       7.045   4.680  16.919  0.00  0.00    +0.000 A 
ATOM      9  C   UNL     1       8.080   4.342  17.807  0.00  0.00    +0.000 A 
ATOM     10  C   UNL     1       8.391   5.168  18.886  0.00  0.00    +0.000 A 
ATOM     11  C   UNL     1       7.711   6.365  19.052  0.00  0.00    +0.000 A 
ATOM     12  C   UNL     1       6.649   6.686  18.206  0.00  0.00    +0.000 A 
ATOM     13  C   UNL     1       6.242   5.810  17.181  0.00  0.00    +0.000 A 
ATOM     14  C   UNL     1       4.135   7.293  16.734  0.00  0.00    +0.000 C 
ATOM     15  C   UNL     1       3.168   7.256  17.996  0.00  0.00    +0.000 C 
ENDROOT
BRANCH   1  16
ATOM     16  C   UNL     1       2.673   5.969  20.106  0.00  0.00    +0.000 C 
BRANCH  16  17
ATOM     17  C   UNL     1       1.541   5.127  20.664  0.00  0.00    +0.000 C 
BRANCH  17  18
ATOM     18  C   UNL     1       2.108   3.957  21.489  0.00  0.00    +0.000 C 
BRANCH  18  19
ATOM     19  C   UNL     1       1.689   2.609  20.909  0.00  0.00    +0.000 C 
BRANCH  19  21
ATOM     20  C   UNL     1       1.394   2.132  18.454  0.00  0.00    +0.000 C 
ATOM     21  C   UNL     1       0.790   2.786  19.686  0.00  0.00    +0.000 C 
ENDBRANCH  19  21
ENDBRANCH  18  19
ENDBRANCH  17  18
ENDBRANCH  16  17
ENDBRANCH   1  16
TORSDOF 5
ENDMDL
MODEL 8
REMARK VINA RESULT:      -6.4      1.195      1.864
REMARK  Name = 
REMARK  6 active torsions:
REMARK  status: ('A' for Active; 'I' for Inactive)
REMARK    1  A    between atoms: C_1  and  C_2
REMARK    2  A    between atoms: C_2  and  C_3
REMARK    3  A    between atoms: C_3  and  C_4
REMARK    4  A    between atoms: C_4  and  C_5
REMARK    5  A    between atoms: C_5  and  C_6
REMARK    6  A    between atoms: C_6  and  N_7
REMARK                            x       y       z     vdW  Elec       q    Type
REMARK                         _______ _______ _______ _____ _____    ______ ____
ROOT
ATOM      1  N   UNL     1       4.862   6.748  18.076  0.00  0.00    +0.000 NA
ATOM      2  C   UNL     1       4.959   5.647  19.033  0.00  0.00    +0.000 C 
ATOM      3  C   UNL     1       3.789   5.699  19.957  0.00  0.00    +0.000 C 
ATOM      4  C   UNL     1       2.547   5.125  19.246  0.00  0.00    +0.000 C 
ATOM      5  C   UNL     1       1.435   4.966  20.323  0.00  0.00    +0.000 C 
ATOM      6  C   UNL     1       1.945   4.115  21.517  0.00  0.00    +0.000 C 
ATOM      7  C   UNL     1       2.600   2.795  21.109  0.00  0.00    +0.000 C 
ATOM      8  C   UNL     1       3.011   2.659  19.658  0.00  0.00    +0.000 A 
ATOM      9  C   UNL     1       3.562   1.439  19.231  0.00  0.00    +0.000 A 
ATOM     10  C   UNL     1       3.808   1.203  17.879  0.00  0.00    +0.000 A 
ATOM     11  C   UNL     1       3.451   2.158  16.940  0.00  0.00    +0.000 A 
ATOM     12  C   UNL     1       2.949   3.391  17.356  0.00  0.00    +0.000 A 
ATOM     13  C   UNL     1       2.803   3.695  18.724  0.00  0.00    +0.000 A 
ATOM     14  C   UNL     1       2.253   6.181  18.125  0.00  0.00    +0.000 C 
ATOM     15  C   UNL     1       3.526   6.876  17.471  0.00  0.00    +0.000 C 
ENDROOT
BRANCH   1  16
ATOM     16  C   UNL     1       6.017   6.630  17.183  0.00  0.00    +0.000 C 
BRANCH  16  17
ATOM     17  C   UNL     1       7.151   5.745  17.668  0.00  0.00    +0.000 C 
BRANCH  17  18
ATOM     18  C   UNL     1       7.413   4.616  16.655  0.00  0.00    +0.000 C 
BRANCH  18  19
ATOM     19  C   UNL     1       6.202   4.377  15.758  0.00  0.00    +0.000 C 
BRANCH  19  21
ATOM     20  C   UNL     1       5.508   3.756  13.418  0.00  0.00    +0.000 C 
ATOM     21  C   UNL     1       6.596   4.373  14.282  0.00  0.00    +0.000 C 
ENDBRANCH  19  21
ENDBRANCH  18  19
ENDBRANCH  17  18
ENDBRANCH  16  17
ENDBRANCH   1  16
TORSDOF 5
ENDMDL
MODEL 9
REMARK VINA RESULT:      -6.4      2.165      6.221
REMARK  Name = 
REMARK  6 active torsions:
REMARK  status: ('A' for Active; 'I' for Inactive)
REMARK    1  A    between atoms: C_1  and  C_2
REMARK    2  A    between atoms: C_2  and  C_3
REMARK    3  A    between atoms: C_3  and  C_4
REMARK    4  A    between atoms: C_4  and  C_5
REMARK    5  A    between atoms: C_5  and  C_6
REMARK    6  A    between atoms: C_6  and  N_7
REMARK                            x       y       z     vdW  Elec       q    Type
REMARK                         _______ _______ _______ _____ _____    ______ ____
ROOT
ATOM      1  N   UNL     1       3.580   2.604  19.972  0.00  0.00    +0.000 NA
ATOM      2  C   UNL     1       4.485   3.727  19.734  0.00  0.00    +0.000 C 
ATOM      3  C   UNL     1       5.286   3.457  18.505  0.00  0.00    +0.000 C 
ATOM      4  C   UNL     1       4.423   3.738  17.259  0.00  0.00    +0.000 C 
ATOM      5  C   UNL     1       5.371   3.691  16.024  0.00  0.00    +0.000 C 
ATOM      6  C   UNL     1       6.567   4.663  16.214  0.00  0.00    +0.000 C 
ATOM      7  C   UNL     1       6.161   6.078  16.625  0.00  0.00    +0.000 C 
ATOM      8  C   UNL     1       4.755   6.257  17.157  0.00  0.00    +0.000 A 
ATOM      9  C   UNL     1       4.327   7.553  17.490  0.00  0.00    +0.000 A 
ATOM     10  C   UNL     1       2.997   7.797  17.830  0.00  0.00    +0.000 A 
ATOM     11  C   UNL     1       2.075   6.763  17.783  0.00  0.00    +0.000 A 
ATOM     12  C   UNL     1       2.500   5.464  17.503  0.00  0.00    +0.000 A 
ATOM     13  C   UNL     1       3.858   5.174  17.272  0.00  0.00    +0.000 A 
ATOM     14  C   UNL     1       3.332   2.612  17.314  0.00  0.00    +0.000 C 
ATOM     15  C   UNL     1       2.849   2.182  18.766  0.00  0.00    +0.000 C 
ENDROOT
BRANCH   1  16
ATOM     16  C   UNL     1       2.805   2.937  21.171  0.00  0.00    +0.000 C 
BRANCH  16  17
ATOM     17  C   UNL     1       1.297   2.975  21.003  0.00  0.00    +0.000 C 
BRANCH  17  18
ATOM     18  C   UNL     1       0.867   4.316  20.383  0.00  0.00    +0.000 C 
BRANCH  18  19
ATOM     19  C   UNL     1       1.643   5.485  20.984  0.00  0.00    +0.000 C 
BRANCH  19  21
ATOM     20  C   UNL     1       1.664   7.988  21.261  0.00  0.00    +0.000 C 
ATOM     21  C   UNL     1       0.806   6.763  20.990  0.00  0.00    +0.000 C 
ENDBRANCH  19  21
ENDBRANCH  18  19
ENDBRANCH  17  18
ENDBRANCH  16  17
ENDBRANCH   1  16
TORSDOF 5
ENDMDL
