MODEL 1
REMARK VINA RESULT:      -8.4      0.000      0.000
REMARK  Name = 
REMARK  5 active torsions:
REMARK  status: ('A' for Active; 'I' for Inactive)
REMARK    1  A    between atoms: C_1  and  C_2
REMARK    2  A    between atoms: C_2  and  N_3
REMARK    3  A    between atoms: N_8  and  C_9
REMARK    4  A    between atoms: C_9  and  C_10
REMARK    5  A    between atoms: N_15  and  C_16
REMARK                            x       y       z     vdW  Elec       q    Type
REMARK                         _______ _______ _______ _____ _____    ______ ____
ROOT
ATOM      1  C   UNL     1       3.011   3.291  18.595  0.00  0.00    +0.000 C 
ATOM      2  O   UNL     1       2.853   2.333  19.355  0.00  0.00    +0.000 OA
ATOM      3  N   UNL     1       2.477   4.535  18.887  0.00  0.00    +0.000 N 
ATOM      4  C   UNL     1       1.896   4.788  20.216  0.00  0.00    +0.000 C 
ATOM      5  C   UNL     1       2.360   6.153  20.778  0.00  0.00    +0.000 C 
ATOM      6  N   UNL     1       2.093   7.216  19.791  0.00  0.00    +0.000 N 
ATOM      7  C   UNL     1       2.675   6.982  18.463  0.00  0.00    +0.000 C 
ATOM      8  C   UNL     1       2.231   5.617  17.925  0.00  0.00    +0.000 C 
ENDROOT
BRANCH   6   9
ATOM      9  C   UNL     1       1.404   8.369  20.101  0.00  0.00    +0.000 A 
ATOM     10  C   UNL     1       1.255   9.413  19.174  0.00  0.00    +0.000 A 
ATOM     11  C   UNL     1       0.572  10.593  19.490  0.00  0.00    +0.000 A 
ATOM     12  C   UNL     1       0.016  10.760  20.754  0.00  0.00    +0.000 A 
ATOM     13  C   UNL     1       0.147   9.743  21.689  0.00  0.00    +0.000 A 
ATOM     14 CL   UNL     1      -0.523   9.935  23.261  0.00  0.00    +0.000 Cl
ATOM     15  C   UNL     1       0.829   8.565  21.367  0.00  0.00    +0.000 A 
ENDBRANCH   6   9
BRANCH   1  16
ATOM     16  C   UNL     1       3.833   3.116  17.310  0.00  0.00    +0.000 C 
BRANCH  16  22
ATOM     17  N   UNL     1       6.838   5.070  17.896  0.00  0.00    +0.000 N 
ATOM     18  C   UNL     1       6.763   5.281  16.561  0.00  0.00    +0.000 C 
ATOM     19  O   UNL     1       7.493   5.925  15.837  0.00  0.00    +0.000 OA
ATOM     20  C   UNL     1       5.515   4.494  16.109  0.00  0.00    +0.000 C 
ATOM     21  O   UNL     1       5.183   4.321  14.958  0.00  0.00    +0.000 OA
ATOM     22  N   UNL     1       4.980   3.997  17.252  0.00  0.00    +0.000 N 
ATOM     23  C   UNL     1       5.809   4.263  18.299  0.00  0.00    +0.000 C 
ATOM     24  O   UNL     1       5.699   3.827  19.437  0.00  0.00    +0.000 OA
BRANCH  17  26
ATOM     25  C   UNL     1       7.986   7.129  18.516  0.00  0.00    +0.000 C 
ATOM     26  C   UNL     1       7.820   5.643  18.792  0.00  0.00    +0.000 C 
ENDBRANCH  17  26
ENDBRANCH  16  22
ENDBRANCH   1  16
TORSDOF 4
ENDMDL
MODEL 2
REMARK VINA RESULT:      -8.1      1.007      1.373
REMARK  Name = 
REMARK  5 active torsions:
REMARK  status: ('A' for Active; 'I' for Inactive)
REMARK    1  A    between atoms: C_1  and  C_2
REMARK    2  A    between atoms: C_2  and  N_3
REMARK    3  A    between atoms: N_8  and  C_9
REMARK    4  A    between atoms: C_9  and  C_10
REMARK    5  A    between atoms: N_15  and  C_16
REMARK                            x       y       z     vdW  Elec       q    Type
REMARK                         _______ _______ _______ _____ _____    ______ ____
ROOT
ATOM      1  C   UNL     1       2.917   3.229  18.441  0.00  0.00    +0.000 C 
ATOM      2  O   UNL     1       2.723   2.228  19.135  0.00  0.00    +0.000 OA
ATOM      3  N   UNL     1       2.430   4.469  18.817  0.00  0.00    +0.000 N 
ATOM      4  C   UNL     1       1.858   4.654  20.161  0.00  0.00    +0.000 C 
ATOM      5  C   UNL     1       2.372   5.960  20.811  0.00  0.00    +0.000 C 
ATOM      6  N   UNL     1       2.147   7.096  19.899  0.00  0.00    +0.000 N 
ATOM      7  C   UNL     1       2.719   6.931  18.556  0.00  0.00    +0.000 C 
ATOM      8  C   UNL     1       2.224   5.622  17.930  0.00  0.00    +0.000 C 
ENDROOT
BRANCH   6   9
ATOM      9  C   UNL     1       1.501   8.251  20.287  0.00  0.00    +0.000 A 
ATOM     10  C   UNL     1       1.117   8.471  21.619  0.00  0.00    +0.000 A 
ATOM     11  C   UNL     1       0.445   9.633  22.014  0.00  0.00    +0.000 A 
ATOM     12  C   UNL     1       0.136  10.614  21.078  0.00  0.00    +0.000 A 
ATOM     13  C   UNL     1       0.507  10.423  19.753  0.00  0.00    +0.000 A 
ATOM     14 CL   UNL     1       0.125  11.619  18.578  0.00  0.00    +0.000 Cl
ATOM     15  C   UNL     1       1.180   9.261  19.364  0.00  0.00    +0.000 A 
ENDBRANCH   6   9
BRANCH   1  16
ATOM     16  C   UNL     1       3.732   3.109  17.144  0.00  0.00    +0.000 C 
BRANCH  16  22
ATOM     17  N   UNL     1       6.770   4.973  17.841  0.00  0.00    +0.000 N 
ATOM     18  C   UNL     1       6.720   5.232  16.513  0.00  0.00    +0.000 C 
ATOM     19  O   UNL     1       7.475   5.884  15.823  0.00  0.00    +0.000 OA
ATOM     20  C   UNL     1       5.462   4.489  16.017  0.00  0.00    +0.000 C 
ATOM     21  O   UNL     1       5.144   4.364  14.855  0.00  0.00    +0.000 OA
ATOM     22  N   UNL     1       4.899   3.966  17.134  0.00  0.00    +0.000 N 
ATOM     23  C   UNL     1       5.718   4.177  18.201  0.00  0.00    +0.000 C 
ATOM     24  O   UNL     1       5.581   3.705  19.322  0.00  0.00    +0.000 OA
BRANCH  17  26
ATOM     25  C   UNL     1       7.942   6.987  18.559  0.00  0.00    +0.000 C 
ATOM     26  C   UNL     1       7.750   5.493  18.771  0.00  0.00    +0.000 C 
ENDBRANCH  17  26
ENDBRANCH  16  22
ENDBRANCH   1  16
TORSDOF 4
ENDMDL
MODEL 3
REMARK VINA RESULT:      -8.1      1.303      2.214
REMARK  Name = 
REMARK  5 active torsions:
REMARK  status: ('A' for Active; 'I' for Inactive)
REMARK    1  A    between atoms: C_1  and  C_2
REMARK    2  A    between atoms: C_2  and  N_3
REMARK    3  A    between atoms: N_8  and  C_9
REMARK    4  A    between atoms: C_9  and  C_10
REMARK    5  A    between atoms: N_15  and  C_16
REMARK                            x       y       z     vdW  Elec       q    Type
REMARK                         _______ _______ _______ _____ _____    ______ ____
ROOT
ATOM      1  C   UNL     1       2.578   3.491  18.316  0.00  0.00    +0.000 C 
ATOM      2  O   UNL     1       2.144   2.450  18.815  0.00  0.00    +0.000 OA
ATOM      3  N   UNL     1       2.143   4.732  18.752  0.00  0.00    +0.000 N 
ATOM      4  C   UNL     1       1.316   4.832  19.965  0.00  0.00    +0.000 C 
ATOM      5  C   UNL     1       1.801   5.984  20.877  0.00  0.00    +0.000 C 
ATOM      6  N   UNL     1       1.887   7.235  20.101  0.00  0.00    +0.000 N 
ATOM      7  C   UNL     1       2.717   7.153  18.892  0.00  0.00    +0.000 C 
ATOM      8  C   UNL     1       2.246   5.994  18.007  0.00  0.00    +0.000 C 
ENDROOT
BRANCH   6   9
ATOM      9  C   UNL     1       1.288   8.408  20.504  0.00  0.00    +0.000 A 
ATOM     10  C   UNL     1       0.922   8.631  21.841  0.00  0.00    +0.000 A 
ATOM     11  C   UNL     1       0.296   9.813  22.252  0.00  0.00    +0.000 A 
ATOM     12  C   UNL     1       0.016  10.813  21.327  0.00  0.00    +0.000 A 
ATOM     13  C   UNL     1       0.370  10.620  19.998  0.00  0.00    +0.000 A 
ATOM     14 CL   UNL     1       0.022  11.840  18.836  0.00  0.00    +0.000 Cl
ATOM     15  C   UNL     1       0.996   9.438  19.593  0.00  0.00    +0.000 A 
ENDBRANCH   6   9
BRANCH   1  16
ATOM     16  C   UNL     1       3.639   3.420  17.207  0.00  0.00    +0.000 C 
BRANCH  16  22
ATOM     17  N   UNL     1       6.543   5.585  17.462  0.00  0.00    +0.000 N 
ATOM     18  C   UNL     1       6.670   4.998  18.675  0.00  0.00    +0.000 C 
ATOM     19  O   UNL     1       7.505   5.174  19.537  0.00  0.00    +0.000 OA
ATOM     20  C   UNL     1       5.479   4.020  18.763  0.00  0.00    +0.000 C 
ATOM     21  O   UNL     1       5.162   3.401  19.754  0.00  0.00    +0.000 OA
ATOM     22  N   UNL     1       4.864   4.105  17.557  0.00  0.00    +0.000 N 
ATOM     23  C   UNL     1       5.440   5.094  16.819  0.00  0.00    +0.000 C 
ATOM     24  O   UNL     1       5.032   5.529  15.750  0.00  0.00    +0.000 OA
BRANCH  17  26
ATOM     25  C   UNL     1       7.312   7.895  17.585  0.00  0.00    +0.000 C 
ATOM     26  C   UNL     1       7.455   6.552  16.887  0.00  0.00    +0.000 C 
ENDBRANCH  17  26
ENDBRANCH  16  22
ENDBRANCH   1  16
TORSDOF 4
ENDMDL
MODEL 4
REMARK VINA RESULT:      -8.0      1.051      1.833
REMARK  Name = 
REMARK  5 active torsions:
REMARK  status: ('A' for Active; 'I' for Inactive)
REMARK    1  A    between atoms: C_1  and  C_2
REMARK    2  A    between atoms: C_2  and  N_3
REMARK    3  A    between atoms: N_8  and  C_9
REMARK    4  A    between atoms: C_9  and  C_10
REMARK    5  A    between atoms: N_15  and  C_16
REMARK                            x       y       z     vdW  Elec       q    Type
REMARK                         _______ _______ _______ _____ _____    ______ ____
ROOT
ATOM      1  C   UNL     1       3.033   4.002  18.083  0.00  0.00    +0.000 C 
ATOM      2  O   UNL     1       2.715   2.930  18.602  0.00  0.00    +0.000 OA
ATOM      3  N   UNL     1       2.453   5.194  18.483  0.00  0.00    +0.000 N 
ATOM      4  C   UNL     1       1.605   5.227  19.686  0.00  0.00    +0.000 C 
ATOM      5  C   UNL     1       1.943   6.447  20.574  0.00  0.00    +0.000 C 
ATOM      6  N   UNL     1       1.895   7.682  19.768  0.00  0.00    +0.000 N 
ATOM      7  C   UNL     1       2.744   7.667  18.570  0.00  0.00    +0.000 C 
ATOM      8  C   UNL     1       2.420   6.442  17.709  0.00  0.00    +0.000 C 
ENDROOT
BRANCH   6   9
ATOM      9  C   UNL     1       1.160   8.787  20.136  0.00  0.00    +0.000 A 
ATOM     10  C   UNL     1       0.954   9.865  19.260  0.00  0.00    +0.000 A 
ATOM     11  C   UNL     1       0.224  10.998  19.635  0.00  0.00    +0.000 A 
ATOM     12  C   UNL     1      -0.325  11.084  20.910  0.00  0.00    +0.000 A 
ATOM     13  C   UNL     1      -0.139  10.031  21.797  0.00  0.00    +0.000 A 
ATOM     14 CL   UNL     1      -0.800  10.124  23.383  0.00  0.00    +0.000 Cl
ATOM     15  C   UNL     1       0.590   8.901  21.416  0.00  0.00    +0.000 A 
ENDBRANCH   6   9
BRANCH   1  16
ATOM     16  C   UNL     1       4.108   4.027  16.986  0.00  0.00    +0.000 C 
BRANCH  16  22
ATOM     17  N   UNL     1       6.965   6.213  17.482  0.00  0.00    +0.000 N 
ATOM     18  C   UNL     1       7.125   5.477  18.607  0.00  0.00    +0.000 C 
ATOM     19  O   UNL     1       7.970   5.561  19.474  0.00  0.00    +0.000 OA
ATOM     20  C   UNL     1       5.960   4.467  18.583  0.00  0.00    +0.000 C 
ATOM     21  O   UNL     1       5.673   3.716  19.488  0.00  0.00    +0.000 OA
ATOM     22  N   UNL     1       5.323   4.692  17.406  0.00  0.00    +0.000 N 
ATOM     23  C   UNL     1       5.864   5.782  16.796  0.00  0.00    +0.000 C 
ATOM     24  O   UNL     1       5.428   6.342  15.798  0.00  0.00    +0.000 OA
BRANCH  17  26
ATOM     25  C   UNL     1       7.588   8.548  17.810  0.00  0.00    +0.000 C 
ATOM     26  C   UNL     1       7.845   7.269  17.027  0.00  0.00    +0.000 C 
ENDBRANCH  17  26
ENDBRANCH  16  22
ENDBRANCH   1  16
TORSDOF 4
ENDMDL
MODEL 5
REMARK VINA RESULT:      -7.7      5.493      9.244
REMARK  Name = 
REMARK  5 active torsions:
REMARK  status: ('A' for Active; 'I' for Inactive)
REMARK    1  A    between atoms: C_1  and  C_2
REMARK    2  A    between atoms: C_2  and  N_3
REMARK    3  A    between atoms: N_8  and  C_9
REMARK    4  A    between atoms: C_9  and  C_10
REMARK    5  A    between atoms: N_15  and  C_16
REMARK                            x       y       z     vdW  Elec       q    Type
REMARK                         _______ _______ _______ _____ _____    ______ ____
ROOT
ATOM      1  C   UNL     1       0.995  11.395  19.504  0.00  0.00    +0.000 C 
ATOM      2  O   UNL     1       0.976  12.058  18.464  0.00  0.00    +0.000 OA
ATOM      3  N   UNL     1       1.090  10.013  19.473  0.00  0.00    +0.000 N 
ATOM      4  C   UNL     1       1.387   9.328  18.205  0.00  0.00    +0.000 C 
ATOM      5  C   UNL     1       2.457   8.229  18.402  0.00  0.00    +0.000 C 
ATOM      6  N   UNL     1       2.050   7.325  19.494  0.00  0.00    +0.000 N 
ATOM      7  C   UNL     1       1.759   7.993  20.769  0.00  0.00    +0.000 C 
ATOM      8  C   UNL     1       0.717   9.097  20.560  0.00  0.00    +0.000 C 
ENDROOT
BRANCH   6   9
ATOM      9  C   UNL     1       2.003   5.955  19.353  0.00  0.00    +0.000 A 
ATOM     10  C   UNL     1       2.157   5.334  18.103  0.00  0.00    +0.000 A 
ATOM     11  C   UNL     1       2.091   3.945  17.951  0.00  0.00    +0.000 A 
ATOM     12  C   UNL     1       1.866   3.132  19.057  0.00  0.00    +0.000 A 
ATOM     13  C   UNL     1       1.712   3.719  20.306  0.00  0.00    +0.000 A 
ATOM     14 CL   UNL     1       1.422   2.732  21.685  0.00  0.00    +0.000 Cl
ATOM     15  C   UNL     1       1.781   5.108  20.452  0.00  0.00    +0.000 A 
ENDBRANCH   6   9
BRANCH   1  16
ATOM     16  C   UNL     1       0.935  12.108  20.863  0.00  0.00    +0.000 C 
BRANCH  16  22
ATOM     17  N   UNL     1      -2.280  12.628  22.470  0.00  0.00    +0.000 N 
ATOM     18  C   UNL     1      -2.437  13.546  21.488  0.00  0.00    +0.000 C 
ATOM     19  O   UNL     1      -3.373  14.283  21.261  0.00  0.00    +0.000 OA
ATOM     20  C   UNL     1      -1.126  13.482  20.678  0.00  0.00    +0.000 C 
ATOM     21  O   UNL     1      -0.820  14.248  19.792  0.00  0.00    +0.000 OA
ATOM     22  N   UNL     1      -0.411  12.478  21.244  0.00  0.00    +0.000 N 
ATOM     23  C   UNL     1      -1.054  12.031  22.358  0.00  0.00    +0.000 C 
ATOM     24  O   UNL     1      -0.611  11.240  23.180  0.00  0.00    +0.000 OA
BRANCH  17  26
ATOM     25  C   UNL     1      -3.453  13.419  24.456  0.00  0.00    +0.000 C 
ATOM     26  C   UNL     1      -3.266  12.276  23.470  0.00  0.00    +0.000 C 
ENDBRANCH  17  26
ENDBRANCH  16  22
ENDBRANCH   1  16
TORSDOF 4
ENDMDL
MODEL 6
REMARK VINA RESULT:      -7.6      5.382      9.407
REMARK  Name = 
REMARK  5 active torsions:
REMARK  status: ('A' for Active; 'I' for Inactive)
REMARK    1  A    between atoms: C_1  and  C_2
REMARK    2  A    between atoms: C_2  and  N_3
REMARK    3  A    between atoms: N_8  and  C_9
REMARK    4  A    between atoms: C_9  and  C_10
REMARK    5  A    between atoms: N_15  and  C_16
REMARK                            x       y       z     vdW  Elec       q    Type
REMARK                         _______ _______ _______ _____ _____    ______ ____
ROOT
ATOM      1  C   UNL     1       0.664  11.330  19.779  0.00  0.00    +0.000 C 
ATOM      2  O   UNL     1       0.460  11.998  18.762  0.00  0.00    +0.000 OA
ATOM      3  N   UNL     1       0.853   9.960  19.712  0.00  0.00    +0.000 N 
ATOM      4  C   UNL     1       1.028   9.308  18.405  0.00  0.00    +0.000 C 
ATOM      5  C   UNL     1       2.191   8.288  18.441  0.00  0.00    +0.000 C 
ATOM      6  N   UNL     1       1.998   7.349  19.562  0.00  0.00    +0.000 N 
ATOM      7  C   UNL     1       1.830   7.984  20.875  0.00  0.00    +0.000 C 
ATOM      8  C   UNL     1       0.693   9.011  20.823  0.00  0.00    +0.000 C 
ENDROOT
BRANCH   6   9
ATOM      9  C   UNL     1       2.030   5.980  19.405  0.00  0.00    +0.000 A 
ATOM     10  C   UNL     1       2.301   5.384  18.163  0.00  0.00    +0.000 A 
ATOM     11  C   UNL     1       2.317   3.995  17.994  0.00  0.00    +0.000 A 
ATOM     12  C   UNL     1       2.059   3.158  19.075  0.00  0.00    +0.000 A 
ATOM     13  C   UNL     1       1.790   3.721  20.315  0.00  0.00    +0.000 A 
ATOM     14 CL   UNL     1       1.457   2.703  21.661  0.00  0.00    +0.000 Cl
ATOM     15  C   UNL     1       1.777   5.109  20.478  0.00  0.00    +0.000 A 
ENDBRANCH   6   9
BRANCH   1  16
ATOM     16  C   UNL     1       0.734  12.028  21.145  0.00  0.00    +0.000 C 
BRANCH  16  22
ATOM     17  N   UNL     1      -2.672  13.010  21.938  0.00  0.00    +0.000 N 
ATOM     18  C   UNL     1      -2.532  12.093  22.925  0.00  0.00    +0.000 C 
ATOM     19  O   UNL     1      -3.322  11.747  23.776  0.00  0.00    +0.000 OA
ATOM     20  C   UNL     1      -1.105  11.536  22.741  0.00  0.00    +0.000 C 
ATOM     21  O   UNL     1      -0.645  10.594  23.348  0.00  0.00    +0.000 OA
ATOM     22  N   UNL     1      -0.572  12.259  21.725  0.00  0.00    +0.000 N 
ATOM     23  C   UNL     1      -1.527  13.070  21.192  0.00  0.00    +0.000 C 
ATOM     24  O   UNL     1      -1.420  13.739  20.172  0.00  0.00    +0.000 OA
BRANCH  17  26
ATOM     25  C   UNL     1      -3.810  15.041  22.662  0.00  0.00    +0.000 C 
ATOM     26  C   UNL     1      -3.831  13.849  21.718  0.00  0.00    +0.000 C 
ENDBRANCH  17  26
ENDBRANCH  16  22
ENDBRANCH   1  16
TORSDOF 4
ENDMDL
MODEL 7
REMARK VINA RESULT:      -7.6      2.600      4.572
REMARK  Name = 
REMARK  5 active torsions:
REMARK  status: ('A' for Active; 'I' for Inactive)
REMARK    1  A    between atoms: C_1  and  C_2
REMARK    2  A    between atoms: C_2  and  N_3
REMARK    3  A    between atoms: N_8  and  C_9
REMARK    4  A    between atoms: C_9  and  C_10
REMARK    5  A    between atoms: N_15  and  C_16
REMARK                            x       y       z     vdW  Elec       q    Type
REMARK                         _______ _______ _______ _____ _____    ______ ____
ROOT
ATOM      1  C   UNL     1       2.015   7.791  19.218  0.00  0.00    +0.000 C 
ATOM      2  O   UNL     1       2.247   7.945  18.017  0.00  0.00    +0.000 OA
ATOM      3  N   UNL     1       1.414   8.790  19.966  0.00  0.00    +0.000 N 
ATOM      4  C   UNL     1       0.846   9.968  19.292  0.00  0.00    +0.000 C 
ATOM      5  C   UNL     1      -0.549  10.319  19.861  0.00  0.00    +0.000 C 
ATOM      6  N   UNL     1      -0.474  10.442  21.329  0.00  0.00    +0.000 N 
ATOM      7  C   UNL     1       0.082   9.270  22.017  0.00  0.00    +0.000 C 
ATOM      8  C   UNL     1       1.453   8.915  21.430  0.00  0.00    +0.000 C 
ENDROOT
BRANCH   6   9
ATOM      9  C   UNL     1      -0.942  11.544  22.012  0.00  0.00    +0.000 A 
ATOM     10  C   UNL     1      -0.288  12.785  21.951  0.00  0.00    +0.000 A 
ATOM     11  C   UNL     1      -0.748  13.901  22.658  0.00  0.00    +0.000 A 
ATOM     12  C   UNL     1      -1.886  13.804  23.452  0.00  0.00    +0.000 A 
ATOM     13  C   UNL     1      -2.555  12.590  23.528  0.00  0.00    +0.000 A 
ATOM     14 CL   UNL     1      -3.957  12.446  24.513  0.00  0.00    +0.000 Cl
ATOM     15  C   UNL     1      -2.091  11.478  22.819  0.00  0.00    +0.000 A 
ENDBRANCH   6   9
BRANCH   1  16
ATOM     16  C   UNL     1       2.375   6.463  19.899  0.00  0.00    +0.000 C 
BRANCH  16  22
ATOM     17  N   UNL     1       3.967   4.133  17.612  0.00  0.00    +0.000 N 
ATOM     18  C   UNL     1       2.776   3.494  17.695  0.00  0.00    +0.000 C 
ATOM     19  O   UNL     1       2.407   2.472  17.157  0.00  0.00    +0.000 OA
ATOM     20  C   UNL     1       1.937   4.353  18.665  0.00  0.00    +0.000 C 
ATOM     21  O   UNL     1       0.852   4.043  19.104  0.00  0.00    +0.000 OA
ATOM     22  N   UNL     1       2.719   5.422  18.954  0.00  0.00    +0.000 N 
ATOM     23  C   UNL     1       3.952   5.250  18.403  0.00  0.00    +0.000 C 
ATOM     24  O   UNL     1       4.936   5.952  18.596  0.00  0.00    +0.000 OA
BRANCH  17  26
ATOM     25  C   UNL     1       5.140   4.600  15.527  0.00  0.00    +0.000 C 
ATOM     26  C   UNL     1       5.084   3.741  16.780  0.00  0.00    +0.000 C 
ENDBRANCH  17  26
ENDBRANCH  16  22
ENDBRANCH   1  16
TORSDOF 4
ENDMDL
MODEL 8
REMARK VINA RESULT:      -7.6      1.644      1.908
REMARK  Name = 
REMARK  5 active torsions:
REMARK  status: ('A' for Active; 'I' for Inactive)
REMARK    1  A    between atoms: C_1  and  C_2
REMARK    2  A    between atoms: C_2  and  N_3
REMARK    3  A    between atoms: N_8  and  C_9
REMARK    4  A    between atoms: C_9  and  C_10
REMARK    5  A    between atoms: N_15  and  C_16
REMARK                            x       y       z     vdW  Elec       q    Type
REMARK                         _______ _______ _______ _____ _____    ______ ____
ROOT
ATOM      1  C   UNL     1       3.254   3.988  19.371  0.00  0.00    +0.000 C 
ATOM      2  O   UNL     1       3.190   3.346  20.423  0.00  0.00    +0.000 OA
ATOM      3  N   UNL     1       2.584   5.190  19.222  0.00  0.00    +0.000 N 
ATOM      4  C   UNL     1       1.958   5.830  20.391  0.00  0.00    +0.000 C 
ATOM      5  C   UNL     1       2.262   7.346  20.427  0.00  0.00    +0.000 C 
ATOM      6  N   UNL     1       1.897   7.960  19.136  0.00  0.00    +0.000 N 
ATOM      7  C   UNL     1       2.521   7.339  17.961  0.00  0.00    +0.000 C 
ATOM      8  C   UNL     1       2.236   5.833  17.947  0.00  0.00    +0.000 C 
ENDROOT
BRANCH   6   9
ATOM      9  C   UNL     1       1.082   9.067  19.039  0.00  0.00    +0.000 A 
ATOM     10  C   UNL     1       1.173  10.135  19.946  0.00  0.00    +0.000 A 
ATOM     11  C   UNL     1       0.335  11.253  19.862  0.00  0.00    +0.000 A 
ATOM     12  C   UNL     1      -0.625  11.332  18.859  0.00  0.00    +0.000 A 
ATOM     13  C   UNL     1      -0.734  10.291  17.946  0.00  0.00    +0.000 A 
ATOM     14 CL   UNL     1      -1.923  10.365  16.704  0.00  0.00    +0.000 Cl
ATOM     15  C   UNL     1       0.106   9.178  18.034  0.00  0.00    +0.000 A 
ENDBRANCH   6   9
BRANCH   1  16
ATOM     16  C   UNL     1       4.110   3.461  18.210  0.00  0.00    +0.000 C 
BRANCH  16  22
ATOM     17  N   UNL     1       6.952   5.711  17.978  0.00  0.00    +0.000 N 
ATOM     18  C   UNL     1       6.728   5.593  16.648  0.00  0.00    +0.000 C 
ATOM     19  O   UNL     1       7.318   6.097  15.716  0.00  0.00    +0.000 OA
ATOM     20  C   UNL     1       5.525   4.633  16.538  0.00  0.00    +0.000 C 
ATOM     21  O   UNL     1       5.102   4.167  15.503  0.00  0.00    +0.000 OA
ATOM     22  N   UNL     1       5.154   4.384  17.818  0.00  0.00    +0.000 N 
ATOM     23  C   UNL     1       6.051   4.951  18.672  0.00  0.00    +0.000 C 
ATOM     24  O   UNL     1       6.095   4.792  19.885  0.00  0.00    +0.000 OA
BRANCH  17  26
ATOM     25  C   UNL     1       7.925   7.947  17.995  0.00  0.00    +0.000 C 
ATOM     26  C   UNL     1       7.955   6.551  18.598  0.00  0.00    +0.000 C 
ENDBRANCH  17  26
ENDBRANCH  16  22
ENDBRANCH   1  16
TORSDOF 4
ENDMDL
MODEL 9
REMARK VINA RESULT:      -7.5      1.564      2.436
REMARK  Name = 
REMARK  5 active torsions:
REMARK  status: ('A' for Active; 'I' for Inactive)
REMARK    1  A    between atoms: C_1  and  C_2
REMARK    2  A    between atoms: C_2  and  N_3
REMARK    3  A    between atoms: N_8  and  C_9
REMARK    4  A    between atoms: C_9  and  C_10
REMARK    5  A    between atoms: N_15  and  C_16
REMARK                            x       y       z     vdW  Elec       q    Type
REMARK                         _______ _______ _______ _____ _____    ______ ____
ROOT
ATOM      1  C   UNL     1       2.214   2.893  18.742  0.00  0.00    +0.000 C 
ATOM      2  O   UNL     1       1.776   1.949  19.404  0.00  0.00    +0.000 OA
ATOM      3  N   UNL     1       1.905   4.203  19.067  0.00  0.00    +0.000 N 
ATOM      4  C   UNL     1       1.224   4.500  20.338  0.00  0.00    +0.000 C 
ATOM      5  C   UNL     1       1.875   5.709  21.051  0.00  0.00    +0.000 C 
ATOM      6  N   UNL     1       1.949   6.854  20.125  0.00  0.00    +0.000 N 
ATOM      7  C   UNL     1       2.634   6.576  18.856  0.00  0.00    +0.000 C 
ATOM      8  C   UNL     1       1.999   5.362  18.169  0.00  0.00    +0.000 C 
ENDROOT
BRANCH   6   9
ATOM      9  C   UNL     1       1.469   8.106  20.443  0.00  0.00    +0.000 A 
ATOM     10  C   UNL     1       1.070   8.435  21.748  0.00  0.00    +0.000 A 
ATOM     11  C   UNL     1       0.564   9.699  22.073  0.00  0.00    +0.000 A 
ATOM     12  C   UNL     1       0.443  10.676  21.090  0.00  0.00    +0.000 A 
ATOM     13  C   UNL     1       0.834  10.379  19.792  0.00  0.00    +0.000 A 
ATOM     14 CL   UNL     1       0.681  11.569  18.560  0.00  0.00    +0.000 Cl
ATOM     15  C   UNL     1       1.339   9.115  19.473  0.00  0.00    +0.000 A 
ENDBRANCH   6   9
BRANCH   1  16
ATOM     16  C   UNL     1       3.138   2.620  17.546  0.00  0.00    +0.000 C 
BRANCH  16  22
ATOM     17  N   UNL     1       6.001   4.798  17.047  0.00  0.00    +0.000 N 
ATOM     18  C   UNL     1       6.278   4.453  18.327  0.00  0.00    +0.000 C 
ATOM     19  O   UNL     1       7.202   4.792  19.037  0.00  0.00    +0.000 OA
ATOM     20  C   UNL     1       5.129   3.509  18.735  0.00  0.00    +0.000 C 
ATOM     21  O   UNL     1       4.941   3.089  19.856  0.00  0.00    +0.000 OA
ATOM     22  N   UNL     1       4.379   3.361  17.615  0.00  0.00    +0.000 N 
ATOM     23  C   UNL     1       4.844   4.192  16.641  0.00  0.00    +0.000 C 
ATOM     24  O   UNL     1       4.307   4.415  15.565  0.00  0.00    +0.000 OA
BRANCH  17  26
ATOM     25  C   UNL     1       7.242   4.881  14.950  0.00  0.00    +0.000 C 
ATOM     26  C   UNL     1       6.819   5.639  16.199  0.00  0.00    +0.000 C 
ENDBRANCH  17  26
ENDBRANCH  16  22
ENDBRANCH   1  16
TORSDOF 4
ENDMDL
