MODEL 1
REMARK VINA RESULT:      -7.6      0.000      0.000
REMARK  Name = 
REMARK  4 active torsions:
REMARK  status: ('A' for Active; 'I' for Inactive)
REMARK    1  A    between atoms: C_1  and  O_2
REMARK    2  A    between atoms: O_2  and  C_3
REMARK    3  A    between atoms: C_13  and  C_14
REMARK    4  A    between atoms: N_27  and  C_28
REMARK                            x       y       z     vdW  Elec       q    Type
REMARK                         _______ _______ _______ _____ _____    ______ ____
ROOT
ATOM      1  C   UNL     1      -4.740  14.024  22.315  0.00  0.00    +0.000 C 
ATOM      2  C   UNL     1      -4.378  12.726  21.590  0.00  0.00    +0.000 C 
ATOM      3  C   UNL     1      -2.934  12.745  21.049  0.00  0.00    +0.000 C 
ATOM      4  C   UNL     1      -1.879  13.041  22.141  0.00  0.00    +0.000 C 
ATOM      5  C   UNL     1      -2.378  14.201  23.088  0.00  0.00    +0.000 C 
ATOM      6  C   UNL     1      -3.834  14.140  23.538  0.00  0.00    +0.000 C 
ATOM      7  C   UNL     1      -1.740  11.839  23.138  0.00  0.00    +0.000 C 
ATOM      8  C   UNL     1      -0.775  10.946  22.452  0.00  0.00    +0.000 A 
ATOM      9  C   UNL     1      -0.719   9.575  22.622  0.00  0.00    +0.000 A 
ATOM     10  C   UNL     1       0.089   8.836  21.775  0.00  0.00    +0.000 A 
ATOM     11  C   UNL     1       0.817   9.444  20.726  0.00  0.00    +0.000 A 
ATOM     12  C   UNL     1       0.791  10.868  20.642  0.00  0.00    +0.000 A 
ATOM     13  C   UNL     1       0.019  11.638  21.538  0.00  0.00    +0.000 A 
ATOM     14  C   UNL     1      -0.347  13.138  21.545  0.00  0.00    +0.000 C 
ATOM     15  N   UNL     1       0.234  14.062  22.591  0.00  0.00    +0.000 NA
ATOM     16  C   UNL     1       0.358  15.145  21.888  0.00  0.00    +0.000 C 
ATOM     17  N   UNL     1      -0.380  16.298  21.989  0.00  0.00    +0.000 N 
ATOM     18  N   UNL     1       0.914  14.958  20.704  0.00  0.00    +0.000 N 
ATOM     19  C   UNL     1       1.810  15.943  20.111  0.00  0.00    +0.000 C 
ATOM     20  C   UNL     1       0.231  13.871  20.243  0.00  0.00    +0.000 C 
ATOM     21  O   UNL     1       0.090  13.561  19.071  0.00  0.00    +0.000 OA
ATOM     22  H   UNL     1      -1.310  16.076  21.629  0.00  0.00    +0.000 HD
ATOM     23  H   UNL     1      -0.141  16.994  21.294  0.00  0.00    +0.000 HD
ENDROOT
BRANCH  11  24
ATOM     24  C   UNL     1       1.533   8.560  19.759  0.00  0.00    +0.000 A 
ATOM     25  C   UNL     1       1.885   9.020  18.475  0.00  0.00    +0.000 A 
ATOM     26  C   UNL     1       2.655   8.211  17.623  0.00  0.00    +0.000 A 
ATOM     27  C   UNL     1       3.037   6.958  18.060  0.00  0.00    +0.000 A 
ATOM     28  N   UNL     1       2.712   6.457  19.270  0.00  0.00    +0.000 NA
ATOM     29  C   UNL     1       1.954   7.247  20.062  0.00  0.00    +0.000 A 
ATOM     30  F   UNL     1       1.653   6.728  21.266  0.00  0.00    +0.000 F 
ENDBRANCH  11  24
BRANCH   1  32
ATOM     31  C   UNL     1      -5.647  15.562  20.720  0.00  0.00    +0.000 C 
ATOM     32  O   UNL     1      -4.519  15.183  21.495  0.00  0.00    +0.000 OA
ENDBRANCH   1  32
TORSDOF 2
ENDMDL
MODEL 2
REMARK VINA RESULT:      -7.6      1.146      1.349
REMARK  Name = 
REMARK  4 active torsions:
REMARK  status: ('A' for Active; 'I' for Inactive)
REMARK    1  A    between atoms: C_1  and  O_2
REMARK    2  A    between atoms: O_2  and  C_3
REMARK    3  A    between atoms: C_13  and  C_14
REMARK    4  A    between atoms: N_27  and  C_28
REMARK                            x       y       z     vdW  Elec       q    Type
REMARK                         _______ _______ _______ _____ _____    ______ ____
ROOT
ATOM      1  C   UNL     1      -5.141  13.983  22.771  0.00  0.00    +0.000 C 
ATOM      2  C   UNL     1      -4.729  12.694  22.056  0.00  0.00    +0.000 C 
ATOM      3  C   UNL     1      -3.318  12.797  21.441  0.00  0.00    +0.000 C 
ATOM      4  C   UNL     1      -2.233  13.190  22.472  0.00  0.00    +0.000 C 
ATOM      5  C   UNL     1      -2.762  14.337  23.418  0.00  0.00    +0.000 C 
ATOM      6  C   UNL     1      -4.186  14.190  23.943  0.00  0.00    +0.000 C 
ATOM      7  C   UNL     1      -1.963  12.025  23.486  0.00  0.00    +0.000 C 
ATOM      8  C   UNL     1      -0.975  11.182  22.770  0.00  0.00    +0.000 A 
ATOM      9  C   UNL     1      -0.817   9.823  22.967  0.00  0.00    +0.000 A 
ATOM     10  C   UNL     1      -0.004   9.118  22.095  0.00  0.00    +0.000 A 
ATOM     11  C   UNL     1       0.628   9.747  20.998  0.00  0.00    +0.000 A 
ATOM     12  C   UNL     1       0.501  11.164  20.885  0.00  0.00    +0.000 A 
ATOM     13  C   UNL     1      -0.275  11.902  21.802  0.00  0.00    +0.000 A 
ATOM     14  C   UNL     1      -0.742  13.374  21.795  0.00  0.00    +0.000 C 
ATOM     15  N   UNL     1      -0.175  14.361  22.790  0.00  0.00    +0.000 NA
ATOM     16  C   UNL     1      -0.160  15.432  22.059  0.00  0.00    +0.000 C 
ATOM     17  N   UNL     1      -0.968  16.535  22.173  0.00  0.00    +0.000 N 
ATOM     18  N   UNL     1       0.348  15.253  20.852  0.00  0.00    +0.000 N 
ATOM     19  C   UNL     1       1.145  16.281  20.192  0.00  0.00    +0.000 C 
ATOM     20  C   UNL     1      -0.282  14.111  20.450  0.00  0.00    +0.000 C 
ATOM     21  O   UNL     1      -0.460  13.764  19.293  0.00  0.00    +0.000 OA
ATOM     22  H   UNL     1      -1.898  16.243  21.865  0.00  0.00    +0.000 HD
ATOM     23  H   UNL     1      -0.812  17.228  21.451  0.00  0.00    +0.000 HD
ENDROOT
BRANCH  11  24
ATOM     24  C   UNL     1       1.354   8.889  20.014  0.00  0.00    +0.000 A 
ATOM     25  C   UNL     1       1.901   7.648  20.394  0.00  0.00    +0.000 A 
ATOM     26  C   UNL     1       2.482   6.809  19.428  0.00  0.00    +0.000 A 
ATOM     27  C   UNL     1       2.524   7.234  18.115  0.00  0.00    +0.000 A 
ATOM     28  N   UNL     1       2.035   8.420  17.697  0.00  0.00    +0.000 NA
ATOM     29  C   UNL     1       1.500   9.216  18.649  0.00  0.00    +0.000 A 
ATOM     30  F   UNL     1       1.011  10.388  18.204  0.00  0.00    +0.000 F 
ENDBRANCH  11  24
BRANCH   1  32
ATOM     31  C   UNL     1      -6.056  15.202  20.924  0.00  0.00    +0.000 C 
ATOM     32  O   UNL     1      -5.041  15.133  21.916  0.00  0.00    +0.000 OA
ENDBRANCH   1  32
TORSDOF 2
ENDMDL
MODEL 3
REMARK VINA RESULT:      -7.2      0.913      1.042
REMARK  Name = 
REMARK  4 active torsions:
REMARK  status: ('A' for Active; 'I' for Inactive)
REMARK    1  A    between atoms: C_1  and  O_2
REMARK    2  A    between atoms: O_2  and  C_3
REMARK    3  A    between atoms: C_13  and  C_14
REMARK    4  A    between atoms: N_27  and  C_28
REMARK                            x       y       z     vdW  Elec       q    Type
REMARK                         _______ _______ _______ _____ _____    ______ ____
ROOT
ATOM      1  C   UNL     1      -4.961  15.060  22.879  0.00  0.00    +0.000 C 
ATOM      2  C   UNL     1      -4.677  13.748  22.146  0.00  0.00    +0.000 C 
ATOM      3  C   UNL     1      -3.262  13.719  21.533  0.00  0.00    +0.000 C 
ATOM      4  C   UNL     1      -2.145  13.989  22.569  0.00  0.00    +0.000 C 
ATOM      5  C   UNL     1      -2.560  15.168  23.532  0.00  0.00    +0.000 C 
ATOM      6  C   UNL     1      -3.992  15.156  24.054  0.00  0.00    +0.000 C 
ATOM      7  C   UNL     1      -1.993  12.788  23.567  0.00  0.00    +0.000 C 
ATOM      8  C   UNL     1      -1.092  11.862  22.839  0.00  0.00    +0.000 A 
ATOM      9  C   UNL     1      -1.069  10.491  23.016  0.00  0.00    +0.000 A 
ATOM     10  C   UNL     1      -0.328   9.722  22.135  0.00  0.00    +0.000 A 
ATOM     11  C   UNL     1       0.365  10.301  21.047  0.00  0.00    +0.000 A 
ATOM     12  C   UNL     1       0.378  11.725  20.954  0.00  0.00    +0.000 A 
ATOM     13  C   UNL     1      -0.323  12.524  21.882  0.00  0.00    +0.000 A 
ATOM     14  C   UNL     1      -0.643  14.034  21.896  0.00  0.00    +0.000 C 
ATOM     15  N   UNL     1       0.018  14.946  22.905  0.00  0.00    +0.000 NA
ATOM     16  C   UNL     1       0.140  16.021  22.189  0.00  0.00    +0.000 C 
ATOM     17  N   UNL     1      -0.556  17.196  22.319  0.00  0.00    +0.000 N 
ATOM     18  N   UNL     1       0.629  15.810  20.980  0.00  0.00    +0.000 N 
ATOM     19  C   UNL     1       1.525  16.763  20.336  0.00  0.00    +0.000 C 
ATOM     20  C   UNL     1      -0.109  14.741  20.561  0.00  0.00    +0.000 C 
ATOM     21  O   UNL     1      -0.318  14.430  19.400  0.00  0.00    +0.000 OA
ATOM     22  H   UNL     1      -1.510  17.002  22.007  0.00  0.00    +0.000 HD
ATOM     23  H   UNL     1      -0.331  17.880  21.607  0.00  0.00    +0.000 HD
ENDROOT
BRANCH  11  24
ATOM     24  C   UNL     1       1.004   9.391  20.051  0.00  0.00    +0.000 A 
ATOM     25  C   UNL     1       1.124   9.760  18.697  0.00  0.00    +0.000 A 
ATOM     26  C   UNL     1       1.826   8.937  17.801  0.00  0.00    +0.000 A 
ATOM     27  C   UNL     1       2.374   7.758  18.268  0.00  0.00    +0.000 A 
ATOM     28  N   UNL     1       2.273   7.343  19.548  0.00  0.00    +0.000 NA
ATOM     29  C   UNL     1       1.575   8.143  20.384  0.00  0.00    +0.000 A 
ATOM     30  F   UNL     1       1.499   7.712  21.657  0.00  0.00    +0.000 F 
ENDBRANCH  11  24
BRANCH   1  32
ATOM     31  C   UNL     1      -5.579  16.242  20.890  0.00  0.00    +0.000 C 
ATOM     32  O   UNL     1      -4.747  16.207  22.041  0.00  0.00    +0.000 OA
ENDBRANCH   1  32
TORSDOF 2
ENDMDL
MODEL 4
REMARK VINA RESULT:      -7.2      2.506      4.757
REMARK  Name = 
REMARK  4 active torsions:
REMARK  status: ('A' for Active; 'I' for Inactive)
REMARK    1  A    between atoms: C_1  and  O_2
REMARK    2  A    between atoms: O_2  and  C_3
REMARK    3  A    between atoms: C_13  and  C_14
REMARK    4  A    between atoms: N_27  and  C_28
REMARK                            x       y       z     vdW  Elec       q    Type
REMARK                         _______ _______ _______ _____ _____    ______ ____
ROOT
ATOM      1  C   UNL     1       2.405  15.464  19.982  0.00  0.00    +0.000 C 
ATOM      2  C   UNL     1       3.201  14.158  19.948  0.00  0.00    +0.000 C 
ATOM      3  C   UNL     1       2.397  12.972  20.520  0.00  0.00    +0.000 C 
ATOM      4  C   UNL     1       1.033  12.767  19.819  0.00  0.00    +0.000 C 
ATOM      5  C   UNL     1       0.322  14.156  19.582  0.00  0.00    +0.000 C 
ATOM      6  C   UNL     1       1.196  15.295  19.065  0.00  0.00    +0.000 C 
ATOM      7  C   UNL     1       1.221  12.239  18.354  0.00  0.00    +0.000 C 
ATOM      8  C   UNL     1       1.343  10.773  18.541  0.00  0.00    +0.000 A 
ATOM      9  C   UNL     1       2.027   9.929  17.687  0.00  0.00    +0.000 A 
ATOM     10  C   UNL     1       2.236   8.618  18.079  0.00  0.00    +0.000 A 
ATOM     11  C   UNL     1       1.804   8.143  19.339  0.00  0.00    +0.000 A 
ATOM     12  C   UNL     1       1.032   9.027  20.150  0.00  0.00    +0.000 A 
ATOM     13  C   UNL     1       0.760  10.348  19.734  0.00  0.00    +0.000 A 
ATOM     14  C   UNL     1       0.146  11.550  20.484  0.00  0.00    +0.000 C 
ATOM     15  N   UNL     1      -1.229  12.060  20.116  0.00  0.00    +0.000 NA
ATOM     16  C   UNL     1      -1.654  12.422  21.287  0.00  0.00    +0.000 C 
ATOM     17  N   UNL     1      -1.844  13.700  21.749  0.00  0.00    +0.000 N 
ATOM     18  N   UNL     1      -1.448  11.526  22.236  0.00  0.00    +0.000 N 
ATOM     19  C   UNL     1      -2.405  11.317  23.316  0.00  0.00    +0.000 C 
ATOM     20  C   UNL     1      -0.148  11.177  22.014  0.00  0.00    +0.000 C 
ATOM     21  O   UNL     1       0.614  10.701  22.841  0.00  0.00    +0.000 OA
ATOM     22  H   UNL     1      -0.913  14.102  21.875  0.00  0.00    +0.000 HD
ATOM     23  H   UNL     1      -2.128  13.741  22.720  0.00  0.00    +0.000 HD
ENDROOT
BRANCH  11  24
ATOM     24  C   UNL     1       2.211   6.767  19.752  0.00  0.00    +0.000 A 
ATOM     25  C   UNL     1       1.461   6.037  20.695  0.00  0.00    +0.000 A 
ATOM     26  C   UNL     1       1.798   4.705  20.986  0.00  0.00    +0.000 A 
ATOM     27  C   UNL     1       2.885   4.139  20.349  0.00  0.00    +0.000 A 
ATOM     28  N   UNL     1       3.652   4.795  19.454  0.00  0.00    +0.000 NA
ATOM     29  C   UNL     1       3.318   6.081  19.207  0.00  0.00    +0.000 A 
ATOM     30  F   UNL     1       4.092   6.708  18.303  0.00  0.00    +0.000 F 
ENDBRANCH  11  24
BRANCH   1  32
ATOM     31  C   UNL     1       2.842  16.482  22.104  0.00  0.00    +0.000 C 
ATOM     32  O   UNL     1       1.916  15.768  21.298  0.00  0.00    +0.000 OA
ENDBRANCH   1  32
TORSDOF 2
ENDMDL
MODEL 5
REMARK VINA RESULT:      -7.1      3.162      6.940
REMARK  Name = 
REMARK  4 active torsions:
REMARK  status: ('A' for Active; 'I' for Inactive)
REMARK    1  A    between atoms: C_1  and  O_2
REMARK    2  A    between atoms: O_2  and  C_3
REMARK    3  A    between atoms: C_13  and  C_14
REMARK    4  A    between atoms: N_27  and  C_28
REMARK                            x       y       z     vdW  Elec       q    Type
REMARK                         _______ _______ _______ _____ _____    ______ ____
ROOT
ATOM      1  C   UNL     1       1.987  16.786  19.491  0.00  0.00    +0.000 C 
ATOM      2  C   UNL     1       0.547  16.932  19.985  0.00  0.00    +0.000 C 
ATOM      3  C   UNL     1      -0.210  15.588  19.977  0.00  0.00    +0.000 C 
ATOM      4  C   UNL     1       0.507  14.481  20.786  0.00  0.00    +0.000 C 
ATOM      5  C   UNL     1       2.059  14.510  20.502  0.00  0.00    +0.000 C 
ATOM      6  C   UNL     1       2.726  15.881  20.474  0.00  0.00    +0.000 C 
ATOM      7  C   UNL     1       0.449  14.774  22.326  0.00  0.00    +0.000 C 
ATOM      8  C   UNL     1      -0.865  14.210  22.722  0.00  0.00    +0.000 A 
ATOM      9  C   UNL     1      -1.615  14.654  23.795  0.00  0.00    +0.000 A 
ATOM     10  C   UNL     1      -2.909  14.183  23.938  0.00  0.00    +0.000 A 
ATOM     11  C   UNL     1      -3.485  13.300  22.995  0.00  0.00    +0.000 A 
ATOM     12  C   UNL     1      -2.646  12.808  21.952  0.00  0.00    +0.000 A 
ATOM     13  C   UNL     1      -1.305  13.232  21.831  0.00  0.00    +0.000 A 
ATOM     14  C   UNL     1      -0.265  13.028  20.710  0.00  0.00    +0.000 C 
ATOM     15  N   UNL     1       0.935  12.135  20.933  0.00  0.00    +0.000 NA
ATOM     16  C   UNL     1       1.067  11.637  19.743  0.00  0.00    +0.000 C 
ATOM     17  N   UNL     1       2.055  11.903  18.828  0.00  0.00    +0.000 N 
ATOM     18  N   UNL     1      -0.063  11.205  19.211  0.00  0.00    +0.000 N 
ATOM     19  C   UNL     1      -0.111  10.020  18.362  0.00  0.00    +0.000 C 
ATOM     20  C   UNL     1      -0.909  12.243  19.471  0.00  0.00    +0.000 C 
ATOM     21  O   UNL     1      -1.928  12.505  18.852  0.00  0.00    +0.000 OA
ATOM     22  H   UNL     1       1.890  12.855  18.496  0.00  0.00    +0.000 HD
ATOM     23  H   UNL     1       1.919  11.438  17.939  0.00  0.00    +0.000 HD
ENDROOT
BRANCH  11  24
ATOM     24  C   UNL     1      -4.934  12.969  23.131  0.00  0.00    +0.000 A 
ATOM     25  C   UNL     1      -5.833  13.180  22.068  0.00  0.00    +0.000 A 
ATOM     26  C   UNL     1      -7.169  12.759  22.179  0.00  0.00    +0.000 A 
ATOM     27  C   UNL     1      -7.582  12.158  23.352  0.00  0.00    +0.000 A 
ATOM     28  N   UNL     1      -6.772  11.950  24.411  0.00  0.00    +0.000 NA
ATOM     29  C   UNL     1      -5.498  12.382  24.285  0.00  0.00    +0.000 A 
ATOM     30  F   UNL     1      -4.710  12.152  25.351  0.00  0.00    +0.000 F 
ENDBRANCH  11  24
BRANCH   1  32
ATOM     31  C   UNL     1       3.263  16.440  17.494  0.00  0.00    +0.000 C 
ATOM     32  O   UNL     1       2.056  16.171  18.194  0.00  0.00    +0.000 OA
ENDBRANCH   1  32
TORSDOF 2
ENDMDL
MODEL 6
REMARK VINA RESULT:      -7.0      9.793     11.988
REMARK  Name = 
REMARK  4 active torsions:
REMARK  status: ('A' for Active; 'I' for Inactive)
REMARK    1  A    between atoms: C_1  and  O_2
REMARK    2  A    between atoms: O_2  and  C_3
REMARK    3  A    between atoms: C_13  and  C_14
REMARK    4  A    between atoms: N_27  and  C_28
REMARK                            x       y       z     vdW  Elec       q    Type
REMARK                         _______ _______ _______ _____ _____    ______ ____
ROOT
ATOM      1  C   UNL     1      11.840  12.016  18.321  0.00  0.00    +0.000 C 
ATOM      2  C   UNL     1      11.987  12.109  19.841  0.00  0.00    +0.000 C 
ATOM      3  C   UNL     1      11.106  13.223  20.443  0.00  0.00    +0.000 C 
ATOM      4  C   UNL     1       9.610  13.082  20.073  0.00  0.00    +0.000 C 
ATOM      5  C   UNL     1       9.454  12.694  18.551  0.00  0.00    +0.000 C 
ATOM      6  C   UNL     1      10.397  11.622  18.017  0.00  0.00    +0.000 C 
ATOM      7  C   UNL     1       8.959  11.851  20.795  0.00  0.00    +0.000 C 
ATOM      8  C   UNL     1       8.578  12.404  22.117  0.00  0.00    +0.000 A 
ATOM      9  C   UNL     1       8.469  11.658  23.276  0.00  0.00    +0.000 A 
ATOM     10  C   UNL     1       8.304  12.323  24.479  0.00  0.00    +0.000 A 
ATOM     11  C   UNL     1       8.286  13.735  24.549  0.00  0.00    +0.000 A 
ATOM     12  C   UNL     1       8.320  14.459  23.319  0.00  0.00    +0.000 A 
ATOM     13  C   UNL     1       8.426  13.790  22.082  0.00  0.00    +0.000 A 
ATOM     14  C   UNL     1       8.687  14.316  20.654  0.00  0.00    +0.000 C 
ATOM     15  N   UNL     1       7.592  14.274  19.612  0.00  0.00    +0.000 NA
ATOM     16  C   UNL     1       7.862  15.362  18.960  0.00  0.00    +0.000 C 
ATOM     17  N   UNL     1       8.383  15.472  17.695  0.00  0.00    +0.000 N 
ATOM     18  N   UNL     1       8.083  16.412  19.731  0.00  0.00    +0.000 N 
ATOM     19  C   UNL     1       7.658  17.753  19.346  0.00  0.00    +0.000 C 
ATOM     20  C   UNL     1       8.933  15.899  20.666  0.00  0.00    +0.000 C 
ATOM     21  O   UNL     1       9.723  16.540  21.340  0.00  0.00    +0.000 OA
ATOM     22  H   UNL     1       9.358  15.174  17.758  0.00  0.00    +0.000 HD
ATOM     23  H   UNL     1       8.565  16.428  17.413  0.00  0.00    +0.000 HD
ENDROOT
BRANCH  11  24
ATOM     24  C   UNL     1       8.269  14.375  25.898  0.00  0.00    +0.000 A 
ATOM     25  C   UNL     1       7.265  14.068  26.838  0.00  0.00    +0.000 A 
ATOM     26  C   UNL     1       7.331  14.597  28.137  0.00  0.00    +0.000 A 
ATOM     27  C   UNL     1       8.379  15.435  28.463  0.00  0.00    +0.000 A 
ATOM     28  N   UNL     1       9.356  15.781  27.599  0.00  0.00    +0.000 NA
ATOM     29  C   UNL     1       9.258  15.275  26.350  0.00  0.00    +0.000 A 
ATOM     30  F   UNL     1      10.250  15.627  25.512  0.00  0.00    +0.000 F 
ENDBRANCH  11  24
BRANCH   1  32
ATOM     31  C   UNL     1      12.333  13.162  16.277  0.00  0.00    +0.000 C 
ATOM     32  O   UNL     1      12.095  13.273  17.673  0.00  0.00    +0.000 OA
ENDBRANCH   1  32
TORSDOF 2
ENDMDL
MODEL 7
REMARK VINA RESULT:      -6.9      1.410      1.682
REMARK  Name = 
REMARK  4 active torsions:
REMARK  status: ('A' for Active; 'I' for Inactive)
REMARK    1  A    between atoms: C_1  and  O_2
REMARK    2  A    between atoms: O_2  and  C_3
REMARK    3  A    between atoms: C_13  and  C_14
REMARK    4  A    between atoms: N_27  and  C_28
REMARK                            x       y       z     vdW  Elec       q    Type
REMARK                         _______ _______ _______ _____ _____    ______ ____
ROOT
ATOM      1  C   UNL     1      -3.676  14.919  21.263  0.00  0.00    +0.000 C 
ATOM      2  C   UNL     1      -3.520  13.470  20.796  0.00  0.00    +0.000 C 
ATOM      3  C   UNL     1      -2.063  13.136  20.414  0.00  0.00    +0.000 C 
ATOM      4  C   UNL     1      -1.055  13.427  21.551  0.00  0.00    +0.000 C 
ATOM      5  C   UNL     1      -1.389  14.806  22.243  0.00  0.00    +0.000 C 
ATOM      6  C   UNL     1      -2.857  15.086  22.540  0.00  0.00    +0.000 C 
ATOM      7  C   UNL     1      -1.226  12.414  22.736  0.00  0.00    +0.000 C 
ATOM      8  C   UNL     1      -0.404  11.257  22.306  0.00  0.00    +0.000 A 
ATOM      9  C   UNL     1      -0.628   9.950  22.697  0.00  0.00    +0.000 A 
ATOM     10  C   UNL     1       0.082   8.940  22.069  0.00  0.00    +0.000 A 
ATOM     11  C   UNL     1       0.990   9.214  21.020  0.00  0.00    +0.000 A 
ATOM     12  C   UNL     1       1.247  10.582  20.708  0.00  0.00    +0.000 A 
ATOM     13  C   UNL     1       0.575  11.623  21.383  0.00  0.00    +0.000 A 
ATOM     14  C   UNL     1       0.507  13.142  21.112  0.00  0.00    +0.000 C 
ATOM     15  N   UNL     1       1.176  14.117  22.053  0.00  0.00    +0.000 NA
ATOM     16  C   UNL     1       1.560  15.020  21.204  0.00  0.00    +0.000 C 
ATOM     17  N   UNL     1       1.054  16.285  21.041  0.00  0.00    +0.000 N 
ATOM     18  N   UNL     1       2.155  14.531  20.130  0.00  0.00    +0.000 N 
ATOM     19  C   UNL     1       3.267  15.220  19.486  0.00  0.00    +0.000 C 
ATOM     20  C   UNL     1       1.310  13.519  19.779  0.00  0.00    +0.000 C 
ATOM     21  O   UNL     1       1.199  13.038  18.662  0.00  0.00    +0.000 OA
ATOM     22  H   UNL     1       0.128  16.173  20.625  0.00  0.00    +0.000 HD
ATOM     23  H   UNL     1       1.474  16.793  20.273  0.00  0.00    +0.000 HD
ENDROOT
BRANCH  11  24
ATOM     24  C   UNL     1       1.591   8.060  20.287  0.00  0.00    +0.000 A 
ATOM     25  C   UNL     1       1.564   6.760  20.828  0.00  0.00    +0.000 A 
ATOM     26  C   UNL     1       2.036   5.673  20.073  0.00  0.00    +0.000 A 
ATOM     27  C   UNL     1       2.542   5.909  18.809  0.00  0.00    +0.000 A 
ATOM     28  N   UNL     1       2.612   7.134  18.249  0.00  0.00    +0.000 NA
ATOM     29  C   UNL     1       2.170   8.164  19.004  0.00  0.00    +0.000 A 
ATOM     30  F   UNL     1       2.242   9.373  18.418  0.00  0.00    +0.000 F 
ENDBRANCH  11  24
BRANCH   1  32
ATOM     31  C   UNL     1      -3.687  17.173  20.454  0.00  0.00    +0.000 C 
ATOM     32  O   UNL     1      -3.174  15.857  20.297  0.00  0.00    +0.000 OA
ENDBRANCH   1  32
TORSDOF 2
ENDMDL
MODEL 8
REMARK VINA RESULT:      -6.9      9.286     11.704
REMARK  Name = 
REMARK  4 active torsions:
REMARK  status: ('A' for Active; 'I' for Inactive)
REMARK    1  A    between atoms: C_1  and  O_2
REMARK    2  A    between atoms: O_2  and  C_3
REMARK    3  A    between atoms: C_13  and  C_14
REMARK    4  A    between atoms: N_27  and  C_28
REMARK                            x       y       z     vdW  Elec       q    Type
REMARK                         _______ _______ _______ _____ _____    ______ ____
ROOT
ATOM      1  C   UNL     1      12.200  12.417  18.146  0.00  0.00    +0.000 C 
ATOM      2  C   UNL     1      12.231  12.436  19.675  0.00  0.00    +0.000 C 
ATOM      3  C   UNL     1      11.174  13.392  20.266  0.00  0.00    +0.000 C 
ATOM      4  C   UNL     1       9.738  13.086  19.779  0.00  0.00    +0.000 C 
ATOM      5  C   UNL     1       9.737  12.773  18.232  0.00  0.00    +0.000 C 
ATOM      6  C   UNL     1      10.845  11.863  17.715  0.00  0.00    +0.000 C 
ATOM      7  C   UNL     1       9.205  11.742  20.387  0.00  0.00    +0.000 C 
ATOM      8  C   UNL     1       8.667  12.163  21.703  0.00  0.00    +0.000 A 
ATOM      9  C   UNL     1       8.578  11.340  22.811  0.00  0.00    +0.000 A 
ATOM     10  C   UNL     1       8.247  11.906  24.031  0.00  0.00    +0.000 A 
ATOM     11  C   UNL     1       8.041  13.298  24.170  0.00  0.00    +0.000 A 
ATOM     12  C   UNL     1       8.064  14.093  22.985  0.00  0.00    +0.000 A 
ATOM     13  C   UNL     1       8.339  13.518  21.726  0.00  0.00    +0.000 A 
ATOM     14  C   UNL     1       8.625  14.157  20.350  0.00  0.00    +0.000 C 
ATOM     15  N   UNL     1       7.617  14.040  19.229  0.00  0.00    +0.000 NA
ATOM     16  C   UNL     1       7.788  15.190  18.655  0.00  0.00    +0.000 C 
ATOM     17  N   UNL     1       8.374  15.441  17.440  0.00  0.00    +0.000 N 
ATOM     18  N   UNL     1       7.817  16.212  19.493  0.00  0.00    +0.000 N 
ATOM     19  C   UNL     1       7.248  17.508  19.145  0.00  0.00    +0.000 C 
ATOM     20  C   UNL     1       8.662  15.754  20.461  0.00  0.00    +0.000 C 
ATOM     21  O   UNL     1       9.315  16.449  21.224  0.00  0.00    +0.000 OA
ATOM     22  H   UNL     1       9.373  15.265  17.560  0.00  0.00    +0.000 HD
ATOM     23  H   UNL     1       8.448  16.427  17.221  0.00  0.00    +0.000 HD
ENDROOT
BRANCH  11  24
ATOM     24  C   UNL     1       7.850  13.849  25.545  0.00  0.00    +0.000 A 
ATOM     25  C   UNL     1       8.951  14.150  26.370  0.00  0.00    +0.000 A 
ATOM     26  C   UNL     1       8.751  14.770  27.614  0.00  0.00    +0.000 A 
ATOM     27  C   UNL     1       7.461  15.056  28.017  0.00  0.00    +0.000 A 
ATOM     28  N   UNL     1       6.368  14.772  27.279  0.00  0.00    +0.000 NA
ATOM     29  C   UNL     1       6.587  14.158  26.095  0.00  0.00    +0.000 A 
ATOM     30  F   UNL     1       5.481  13.895  25.375  0.00  0.00    +0.000 F 
ENDBRANCH  11  24
BRANCH   1  32
ATOM     31  C   UNL     1      12.018  13.801  16.200  0.00  0.00    +0.000 C 
ATOM     32  O   UNL     1      12.333  13.733  17.583  0.00  0.00    +0.000 OA
ENDBRANCH   1  32
TORSDOF 2
ENDMDL
MODEL 9
REMARK VINA RESULT:      -6.8      2.311      4.596
REMARK  Name = 
REMARK  4 active torsions:
REMARK  status: ('A' for Active; 'I' for Inactive)
REMARK    1  A    between atoms: C_1  and  O_2
REMARK    2  A    between atoms: O_2  and  C_3
REMARK    3  A    between atoms: C_13  and  C_14
REMARK    4  A    between atoms: N_27  and  C_28
REMARK                            x       y       z     vdW  Elec       q    Type
REMARK                         _______ _______ _______ _____ _____    ______ ____
ROOT
ATOM      1  C   UNL     1       2.815  15.964  20.728  0.00  0.00    +0.000 C 
ATOM      2  C   UNL     1       3.489  14.596  20.601  0.00  0.00    +0.000 C 
ATOM      3  C   UNL     1       2.518  13.439  20.914  0.00  0.00    +0.000 C 
ATOM      4  C   UNL     1       1.236  13.469  20.048  0.00  0.00    +0.000 C 
ATOM      5  C   UNL     1       0.687  14.944  19.929  0.00  0.00    +0.000 C 
ATOM      6  C   UNL     1       1.715  16.040  19.672  0.00  0.00    +0.000 C 
ATOM      7  C   UNL     1       1.551  13.114  18.553  0.00  0.00    +0.000 C 
ATOM      8  C   UNL     1       1.516  11.631  18.549  0.00  0.00    +0.000 A 
ATOM      9  C   UNL     1       2.220  10.835  17.665  0.00  0.00    +0.000 A 
ATOM     10  C   UNL     1       2.261   9.469  17.893  0.00  0.00    +0.000 A 
ATOM     11  C   UNL     1       1.640   8.887  19.022  0.00  0.00    +0.000 A 
ATOM     12  C   UNL     1       0.858   9.738  19.859  0.00  0.00    +0.000 A 
ATOM     13  C   UNL     1       0.758  11.122  19.602  0.00  0.00    +0.000 A 
ATOM     14  C   UNL     1       0.169  12.278  20.440  0.00  0.00    +0.000 C 
ATOM     15  N   UNL     1      -1.100  12.972  19.999  0.00  0.00    +0.000 NA
ATOM     16  C   UNL     1      -1.629  13.226  21.156  0.00  0.00    +0.000 C 
ATOM     17  N   UNL     1      -1.757  14.448  21.767  0.00  0.00    +0.000 N 
ATOM     18  N   UNL     1      -1.621  12.201  21.989  0.00  0.00    +0.000 N 
ATOM     19  C   UNL     1      -2.716  11.958  22.921  0.00  0.00    +0.000 C 
ATOM     20  C   UNL     1      -0.340  11.747  21.863  0.00  0.00    +0.000 C 
ATOM     21  O   UNL     1       0.270  11.093  22.694  0.00  0.00    +0.000 OA
ATOM     22  H   UNL     1      -0.816  14.731  22.047  0.00  0.00    +0.000 HD
ATOM     23  H   UNL     1      -2.152  14.396  22.698  0.00  0.00    +0.000 HD
ENDROOT
BRANCH  11  24
ATOM     24  C   UNL     1       1.868   7.435  19.283  0.00  0.00    +0.000 A 
ATOM     25  C   UNL     1       2.368   6.583  18.278  0.00  0.00    +0.000 A 
ATOM     26  C   UNL     1       2.678   5.247  18.578  0.00  0.00    +0.000 A 
ATOM     27  C   UNL     1       2.465   4.784  19.862  0.00  0.00    +0.000 A 
ATOM     28  N   UNL     1       1.969   5.547  20.858  0.00  0.00    +0.000 NA
ATOM     29  C   UNL     1       1.660   6.823  20.538  0.00  0.00    +0.000 A 
ATOM     30  F   UNL     1       1.178   7.565  21.552  0.00  0.00    +0.000 F 
ENDBRANCH  11  24
BRANCH   1  32
ATOM     31  C   UNL     1       2.963  16.949  22.905  0.00  0.00    +0.000 C 
ATOM     32  O   UNL     1       2.200  16.149  22.013  0.00  0.00    +0.000 OA
ENDBRANCH   1  32
TORSDOF 2
ENDMDL
