MODEL 1
REMARK VINA RESULT:      -8.7      0.000      0.000
REMARK  Name = 
REMARK  2 active torsions:
REMARK  status: ('A' for Active; 'I' for Inactive)
REMARK    1  A    between atoms: N_6  and  C_7
REMARK    2  A    between atoms: N_15  and  C_16
REMARK                            x       y       z     vdW  Elec       q    Type
REMARK                         _______ _______ _______ _____ _____    ______ ____
ROOT
ATOM      1  C   UNL     1       7.401   7.076  18.021  0.00  0.00    +0.000 A 
ATOM      2  N   UNL     1       7.702   6.980  16.690  0.00  0.00    +0.000 NA
ATOM      3  C   UNL     1       7.118   5.854  16.328  0.00  0.00    +0.000 A 
ATOM      4  N   UNL     1       7.046   5.218  15.135  0.00  0.00    +0.000 NA
ATOM      5  C   UNL     1       6.378   4.101  15.110  0.00  0.00    +0.000 A 
ATOM      6  N   UNL     1       6.281   3.307  14.012  0.00  0.00    +0.000 N 
ATOM      7  N   UNL     1       5.711   3.561  16.189  0.00  0.00    +0.000 NA
ATOM      8  C   UNL     1       5.767   4.141  17.345  0.00  0.00    +0.000 A 
ATOM      9  N   UNL     1       5.146   3.677  18.490  0.00  0.00    +0.000 N 
ATOM     10  N   UNL     1       6.512   5.322  17.418  0.00  0.00    +0.000 N 
ATOM     11  N   UNL     1       6.664   6.086  18.533  0.00  0.00    +0.000 NA
ATOM     12  H   UNL     1       5.682   2.508  14.231  0.00  0.00    +0.000 HD
ATOM     13  H   UNL     1       5.313   4.279  19.301  0.00  0.00    +0.000 HD
ENDROOT
BRANCH   6  14
ATOM     14  C   UNL     1       6.243   3.669  12.610  0.00  0.00    +0.000 C 
ATOM     15  C   UNL     1       7.009   2.666  11.757  0.00  0.00    +0.000 C 
ATOM     16  C   UNL     1       6.179   1.485  11.289  0.00  0.00    +0.000 C 
ATOM     17  C   UNL     1       4.875   1.874  10.614  0.00  0.00    +0.000 C 
ATOM     18  C   UNL     1       4.103   3.033  11.233  0.00  0.00    +0.000 C 
ATOM     19  C   UNL     1       4.876   4.064  12.054  0.00  0.00    +0.000 C 
ENDBRANCH   6  14
BRANCH   9  20
ATOM     20  C   UNL     1       3.910   2.908  18.591  0.00  0.00    +0.000 C 
ATOM     21  C   UNL     1       3.468   2.790  20.047  0.00  0.00    +0.000 C 
ATOM     22  C   UNL     1       2.723   4.010  20.560  0.00  0.00    +0.000 C 
ATOM     23  C   UNL     1       1.569   4.470  19.683  0.00  0.00    +0.000 C 
ATOM     24  C   UNL     1       1.719   4.292  18.176  0.00  0.00    +0.000 C 
ATOM     25  C   UNL     1       2.764   3.300  17.659  0.00  0.00    +0.000 C 
ENDBRANCH   9  20
TORSDOF 2
ENDMDL
MODEL 2
REMARK VINA RESULT:      -8.2      3.948      8.671
REMARK  Name = 
REMARK  2 active torsions:
REMARK  status: ('A' for Active; 'I' for Inactive)
REMARK    1  A    between atoms: N_6  and  C_7
REMARK    2  A    between atoms: N_15  and  C_16
REMARK                            x       y       z     vdW  Elec       q    Type
REMARK                         _______ _______ _______ _____ _____    ______ ____
ROOT
ATOM      1  C   UNL     1       2.371   2.500  20.454  0.00  0.00    +0.000 A 
ATOM      2  N   UNL     1       1.373   3.313  20.915  0.00  0.00    +0.000 NA
ATOM      3  C   UNL     1       1.808   4.523  20.622  0.00  0.00    +0.000 A 
ATOM      4  N   UNL     1       1.268   5.749  20.817  0.00  0.00    +0.000 NA
ATOM      5  C   UNL     1       1.966   6.766  20.403  0.00  0.00    +0.000 A 
ATOM      6  N   UNL     1       1.599   8.060  20.596  0.00  0.00    +0.000 N 
ATOM      7  N   UNL     1       3.175   6.673  19.746  0.00  0.00    +0.000 NA
ATOM      8  C   UNL     1       3.722   5.516  19.551  0.00  0.00    +0.000 A 
ATOM      9  N   UNL     1       4.933   5.314  18.916  0.00  0.00    +0.000 N 
ATOM     10  N   UNL     1       3.019   4.403  20.021  0.00  0.00    +0.000 N 
ATOM     11  N   UNL     1       3.416   3.109  19.886  0.00  0.00    +0.000 NA
ATOM     12  H   UNL     1       2.290   8.671  20.155  0.00  0.00    +0.000 HD
ATOM     13  H   UNL     1       5.192   4.326  18.863  0.00  0.00    +0.000 HD
ENDROOT
BRANCH   6  14
ATOM     14  C   UNL     1       0.276   8.648  20.640  0.00  0.00    +0.000 C 
ATOM     15  C   UNL     1      -0.349   8.503  22.021  0.00  0.00    +0.000 C 
ATOM     16  C   UNL     1      -0.013   9.633  22.978  0.00  0.00    +0.000 C 
ATOM     17  C   UNL     1      -0.275  11.019  22.415  0.00  0.00    +0.000 C 
ATOM     18  C   UNL     1       0.093  11.246  20.954  0.00  0.00    +0.000 C 
ATOM     19  C   UNL     1       0.135  10.036  20.020  0.00  0.00    +0.000 C 
ENDBRANCH   6  14
BRANCH   9  20
ATOM     20  C   UNL     1       5.540   6.123  17.863  0.00  0.00    +0.000 C 
ATOM     21  C   UNL     1       7.053   5.928  17.839  0.00  0.00    +0.000 C 
ATOM     22  C   UNL     1       7.496   4.677  17.101  0.00  0.00    +0.000 C 
ATOM     23  C   UNL     1       6.911   4.517  15.706  0.00  0.00    +0.000 C 
ATOM     24  C   UNL     1       5.494   5.032  15.477  0.00  0.00    +0.000 C 
ATOM     25  C   UNL     1       4.915   6.042  16.471  0.00  0.00    +0.000 C 
ENDBRANCH   9  20
TORSDOF 2
ENDMDL
MODEL 3
REMARK VINA RESULT:      -8.2      3.221      6.465
REMARK  Name = 
REMARK  2 active torsions:
REMARK  status: ('A' for Active; 'I' for Inactive)
REMARK    1  A    between atoms: N_6  and  C_7
REMARK    2  A    between atoms: N_15  and  C_16
REMARK                            x       y       z     vdW  Elec       q    Type
REMARK                         _______ _______ _______ _____ _____    ______ ____
ROOT
ATOM      1  C   UNL     1       6.522   5.046  16.012  0.00  0.00    +0.000 A 
ATOM      2  N   UNL     1       6.163   6.324  16.340  0.00  0.00    +0.000 NA
ATOM      3  C   UNL     1       4.965   6.175  16.871  0.00  0.00    +0.000 A 
ATOM      4  N   UNL     1       4.092   7.068  17.394  0.00  0.00    +0.000 NA
ATOM      5  C   UNL     1       2.970   6.589  17.847  0.00  0.00    +0.000 A 
ATOM      6  N   UNL     1       1.961   7.362  18.328  0.00  0.00    +0.000 N 
ATOM      7  N   UNL     1       2.642   5.251  17.873  0.00  0.00    +0.000 NA
ATOM      8  C   UNL     1       3.451   4.373  17.374  0.00  0.00    +0.000 A 
ATOM      9  N   UNL     1       3.213   3.011  17.339  0.00  0.00    +0.000 N 
ATOM     10  N   UNL     1       4.649   4.856  16.839  0.00  0.00    +0.000 N 
ATOM     11  N   UNL     1       5.634   4.090  16.298  0.00  0.00    +0.000 NA
ATOM     12  H   UNL     1       1.204   6.757  18.651  0.00  0.00    +0.000 HD
ATOM     13  H   UNL     1       3.976   2.488  16.902  0.00  0.00    +0.000 HD
ENDROOT
BRANCH   6  14
ATOM     14  C   UNL     1       2.022   8.618  19.047  0.00  0.00    +0.000 C 
ATOM     15  C   UNL     1       1.521   9.773  18.190  0.00  0.00    +0.000 C 
ATOM     16  C   UNL     1       0.023  10.006  18.273  0.00  0.00    +0.000 C 
ATOM     17  C   UNL     1      -0.507  10.124  19.692  0.00  0.00    +0.000 C 
ATOM     18  C   UNL     1       0.082   9.171  20.724  0.00  0.00    +0.000 C 
ATOM     19  C   UNL     1       1.480   8.603  20.475  0.00  0.00    +0.000 C 
ENDBRANCH   6  14
BRANCH   9  20
ATOM     20  C   UNL     1       2.435   2.212  18.281  0.00  0.00    +0.000 C 
ATOM     21  C   UNL     1       3.276   1.854  19.504  0.00  0.00    +0.000 C 
ATOM     22  C   UNL     1       3.351   2.961  20.541  0.00  0.00    +0.000 C 
ATOM     23  C   UNL     1       2.006   3.534  20.961  0.00  0.00    +0.000 C 
ATOM     24  C   UNL     1       0.911   3.603  19.903  0.00  0.00    +0.000 C 
ATOM     25  C   UNL     1       1.046   2.726  18.654  0.00  0.00    +0.000 C 
ENDBRANCH   9  20
TORSDOF 2
ENDMDL
MODEL 4
REMARK VINA RESULT:      -8.0      3.712      6.166
REMARK  Name = 
REMARK  2 active torsions:
REMARK  status: ('A' for Active; 'I' for Inactive)
REMARK    1  A    between atoms: N_6  and  C_7
REMARK    2  A    between atoms: N_15  and  C_16
REMARK                            x       y       z     vdW  Elec       q    Type
REMARK                         _______ _______ _______ _____ _____    ______ ____
ROOT
ATOM      1  C   UNL     1       2.321   3.315  20.949  0.00  0.00    +0.000 A 
ATOM      2  N   UNL     1       3.152   3.193  19.870  0.00  0.00    +0.000 NA
ATOM      3  C   UNL     1       3.207   4.420  19.389  0.00  0.00    +0.000 A 
ATOM      4  N   UNL     1       3.870   4.947  18.333  0.00  0.00    +0.000 NA
ATOM      5  C   UNL     1       3.711   6.221  18.123  0.00  0.00    +0.000 A 
ATOM      6  N   UNL     1       4.243   6.881  17.061  0.00  0.00    +0.000 N 
ATOM      7  N   UNL     1       2.964   7.062  18.921  0.00  0.00    +0.000 NA
ATOM      8  C   UNL     1       2.312   6.587  19.934  0.00  0.00    +0.000 A 
ATOM      9  N   UNL     1       1.527   7.339  20.788  0.00  0.00    +0.000 N 
ATOM     10  N   UNL     1       2.426   5.213  20.165  0.00  0.00    +0.000 N 
ATOM     11  N   UNL     1       1.841   4.538  21.190  0.00  0.00    +0.000 NA
ATOM     12  H   UNL     1       4.006   7.873  17.133  0.00  0.00    +0.000 HD
ATOM     13  H   UNL     1       1.095   6.777  21.525  0.00  0.00    +0.000 HD
ENDROOT
BRANCH   6  14
ATOM     14  C   UNL     1       5.491   6.652  16.362  0.00  0.00    +0.000 C 
ATOM     15  C   UNL     1       6.688   7.010  17.234  0.00  0.00    +0.000 C 
ATOM     16  C   UNL     1       7.181   5.874  18.112  0.00  0.00    +0.000 C 
ATOM     17  C   UNL     1       7.434   4.577  17.363  0.00  0.00    +0.000 C 
ATOM     18  C   UNL     1       6.426   4.202  16.285  0.00  0.00    +0.000 C 
ATOM     19  C   UNL     1       5.616   5.319  15.627  0.00  0.00    +0.000 C 
ENDBRANCH   6  14
BRANCH   9  20
ATOM     20  C   UNL     1       1.694   8.741  21.158  0.00  0.00    +0.000 C 
ATOM     21  C   UNL     1       0.968   9.649  20.169  0.00  0.00    +0.000 C 
ATOM     22  C   UNL     1      -0.521   9.780  20.438  0.00  0.00    +0.000 C 
ATOM     23  C   UNL     1      -0.881  10.146  21.870  0.00  0.00    +0.000 C 
ATOM     24  C   UNL     1       0.012   9.603  22.979  0.00  0.00    +0.000 C 
ATOM     25  C   UNL     1       1.417   9.118  22.613  0.00  0.00    +0.000 C 
ENDBRANCH   9  20
TORSDOF 2
ENDMDL
MODEL 5
REMARK VINA RESULT:      -7.7      0.895      1.501
REMARK  Name = 
REMARK  2 active torsions:
REMARK  status: ('A' for Active; 'I' for Inactive)
REMARK    1  A    between atoms: N_6  and  C_7
REMARK    2  A    between atoms: N_15  and  C_16
REMARK                            x       y       z     vdW  Elec       q    Type
REMARK                         _______ _______ _______ _____ _____    ______ ____
ROOT
ATOM      1  C   UNL     1       7.446   7.034  17.881  0.00  0.00    +0.000 A 
ATOM      2  N   UNL     1       7.770   6.731  16.588  0.00  0.00    +0.000 NA
ATOM      3  C   UNL     1       6.830   5.878  16.231  0.00  0.00    +0.000 A 
ATOM      4  N   UNL     1       6.597   5.223  15.069  0.00  0.00    +0.000 NA
ATOM      5  C   UNL     1       5.562   4.436  15.040  0.00  0.00    +0.000 A 
ATOM      6  N   UNL     1       5.241   3.652  13.978  0.00  0.00    +0.000 N 
ATOM      7  N   UNL     1       4.675   4.268  16.082  0.00  0.00    +0.000 NA
ATOM      8  C   UNL     1       4.873   4.873  17.209  0.00  0.00    +0.000 A 
ATOM      9  N   UNL     1       4.054   4.762  18.318  0.00  0.00    +0.000 N 
ATOM     10  N   UNL     1       6.001   5.695  17.290  0.00  0.00    +0.000 N 
ATOM     11  N   UNL     1       6.360   6.431  18.375  0.00  0.00    +0.000 NA
ATOM     12  H   UNL     1       4.373   3.153  14.183  0.00  0.00    +0.000 HD
ATOM     13  H   UNL     1       4.384   5.320  19.110  0.00  0.00    +0.000 HD
ENDROOT
BRANCH   6  14
ATOM     14  C   UNL     1       5.429   3.894  12.562  0.00  0.00    +0.000 C 
ATOM     15  C   UNL     1       6.900   3.810  12.176  0.00  0.00    +0.000 C 
ATOM     16  C   UNL     1       7.370   2.413  11.815  0.00  0.00    +0.000 C 
ATOM     17  C   UNL     1       6.505   1.717  10.779  0.00  0.00    +0.000 C 
ATOM     18  C   UNL     1       4.999   1.905  10.907  0.00  0.00    +0.000 C 
ATOM     19  C   UNL     1       4.481   3.153  11.621  0.00  0.00    +0.000 C 
ENDBRANCH   6  14
BRANCH   9  20
ATOM     20  C   UNL     1       2.615   4.518  18.349  0.00  0.00    +0.000 C 
ATOM     21  C   UNL     1       2.316   3.040  18.108  0.00  0.00    +0.000 C 
ATOM     22  C   UNL     1       2.465   2.177  19.349  0.00  0.00    +0.000 C 
ATOM     23  C   UNL     1       1.721   2.685  20.574  0.00  0.00    +0.000 C 
ATOM     24  C   UNL     1       1.607   4.194  20.750  0.00  0.00    +0.000 C 
ATOM     25  C   UNL     1       1.833   5.091  19.529  0.00  0.00    +0.000 C 
ENDBRANCH   9  20
TORSDOF 2
ENDMDL
MODEL 6
REMARK VINA RESULT:      -7.5      3.898      6.249
REMARK  Name = 
REMARK  2 active torsions:
REMARK  status: ('A' for Active; 'I' for Inactive)
REMARK    1  A    between atoms: N_6  and  C_7
REMARK    2  A    between atoms: N_15  and  C_16
REMARK                            x       y       z     vdW  Elec       q    Type
REMARK                         _______ _______ _______ _____ _____    ______ ____
ROOT
ATOM      1  C   UNL     1       2.274   4.131  20.940  0.00  0.00    +0.000 A 
ATOM      2  N   UNL     1       3.262   3.834  20.043  0.00  0.00    +0.000 NA
ATOM      3  C   UNL     1       3.362   4.938  19.327  0.00  0.00    +0.000 A 
ATOM      4  N   UNL     1       4.167   5.272  18.291  0.00  0.00    +0.000 NA
ATOM      5  C   UNL     1       4.014   6.465  17.795  0.00  0.00    +0.000 A 
ATOM      6  N   UNL     1       4.687   6.921  16.707  0.00  0.00    +0.000 N 
ATOM      7  N   UNL     1       3.136   7.410  18.282  0.00  0.00    +0.000 NA
ATOM      8  C   UNL     1       2.347   7.120  19.266  0.00  0.00    +0.000 A 
ATOM      9  N   UNL     1       1.424   7.988  19.819  0.00  0.00    +0.000 N 
ATOM     10  N   UNL     1       2.455   5.830  19.796  0.00  0.00    +0.000 N 
ATOM     11  N   UNL     1       1.735   5.350  20.845  0.00  0.00    +0.000 NA
ATOM     12  H   UNL     1       4.420   7.892  16.532  0.00  0.00    +0.000 HD
ATOM     13  H   UNL     1       0.897   7.567  20.588  0.00  0.00    +0.000 HD
ENDROOT
BRANCH   6  14
ATOM     14  C   UNL     1       6.032   6.620  16.260  0.00  0.00    +0.000 C 
ATOM     15  C   UNL     1       7.069   7.081  17.276  0.00  0.00    +0.000 C 
ATOM     16  C   UNL     1       7.390   6.054  18.348  0.00  0.00    +0.000 C 
ATOM     17  C   UNL     1       7.748   4.682  17.803  0.00  0.00    +0.000 C 
ATOM     18  C   UNL     1       6.931   4.182  16.617  0.00  0.00    +0.000 C 
ATOM     19  C   UNL     1       6.261   5.214  15.711  0.00  0.00    +0.000 C 
ENDBRANCH   6  14
BRANCH   9  20
ATOM     20  C   UNL     1       1.501   9.443  19.906  0.00  0.00    +0.000 C 
ATOM     21  C   UNL     1       1.133  10.081  18.569  0.00  0.00    +0.000 C 
ATOM     22  C   UNL     1      -0.364  10.198  18.339  0.00  0.00    +0.000 C 
ATOM     23  C   UNL     1      -1.136  10.848  19.477  0.00  0.00    +0.000 C 
ATOM     24  C   UNL     1      -0.637  10.599  20.896  0.00  0.00    +0.000 C 
ATOM     25  C   UNL     1       0.802  10.111  21.089  0.00  0.00    +0.000 C 
ENDBRANCH   9  20
TORSDOF 2
ENDMDL
MODEL 7
REMARK VINA RESULT:      -7.3      3.275      7.835
REMARK  Name = 
REMARK  2 active torsions:
REMARK  status: ('A' for Active; 'I' for Inactive)
REMARK    1  A    between atoms: N_6  and  C_7
REMARK    2  A    between atoms: N_15  and  C_16
REMARK                            x       y       z     vdW  Elec       q    Type
REMARK                         _______ _______ _______ _____ _____    ______ ____
ROOT
ATOM      1  C   UNL     1       2.489   1.523  19.321  0.00  0.00    +0.000 A 
ATOM      2  N   UNL     1       1.536   2.437  19.679  0.00  0.00    +0.000 NA
ATOM      3  C   UNL     1       2.185   3.584  19.639  0.00  0.00    +0.000 A 
ATOM      4  N   UNL     1       1.789   4.855  19.883  0.00  0.00    +0.000 NA
ATOM      5  C   UNL     1       2.692   5.782  19.752  0.00  0.00    +0.000 A 
ATOM      6  N   UNL     1       2.473   7.092  20.037  0.00  0.00    +0.000 N 
ATOM      7  N   UNL     1       3.989   5.562  19.340  0.00  0.00    +0.000 NA
ATOM      8  C   UNL     1       4.402   4.358  19.106  0.00  0.00    +0.000 A 
ATOM      9  N   UNL     1       5.682   4.028  18.702  0.00  0.00    +0.000 N 
ATOM     10  N   UNL     1       3.468   3.331  19.278  0.00  0.00    +0.000 N 
ATOM     11  N   UNL     1       3.704   2.010  19.056  0.00  0.00    +0.000 NA
ATOM     12  H   UNL     1       3.319   7.625  19.825  0.00  0.00    +0.000 HD
ATOM     13  H   UNL     1       5.808   3.021  18.571  0.00  0.00    +0.000 HD
ENDROOT
BRANCH   6  14
ATOM     14  C   UNL     1       1.264   7.879  19.896  0.00  0.00    +0.000 C 
ATOM     15  C   UNL     1       0.609   8.135  21.247  0.00  0.00    +0.000 C 
ATOM     16  C   UNL     1       1.117   9.375  21.960  0.00  0.00    +0.000 C 
ATOM     17  C   UNL     1       1.093  10.632  21.108  0.00  0.00    +0.000 C 
ATOM     18  C   UNL     1       1.509  10.479  19.650  0.00  0.00    +0.000 C 
ATOM     19  C   UNL     1       1.361   9.106  18.993  0.00  0.00    +0.000 C 
ENDBRANCH   6  14
BRANCH   9  20
ATOM     20  C   UNL     1       6.605   4.830  17.904  0.00  0.00    +0.000 C 
ATOM     21  C   UNL     1       6.651   4.324  16.465  0.00  0.00    +0.000 C 
ATOM     22  C   UNL     1       5.505   4.828  15.604  0.00  0.00    +0.000 C 
ATOM     23  C   UNL     1       5.295   6.334  15.639  0.00  0.00    +0.000 C 
ATOM     24  C   UNL     1       5.587   7.053  16.951  0.00  0.00    +0.000 C 
ATOM     25  C   UNL     1       6.465   6.349  17.989  0.00  0.00    +0.000 C 
ENDBRANCH   9  20
TORSDOF 2
ENDMDL
MODEL 8
REMARK VINA RESULT:      -7.3      3.469      6.417
REMARK  Name = 
REMARK  2 active torsions:
REMARK  status: ('A' for Active; 'I' for Inactive)
REMARK    1  A    between atoms: N_6  and  C_7
REMARK    2  A    between atoms: N_15  and  C_16
REMARK                            x       y       z     vdW  Elec       q    Type
REMARK                         _______ _______ _______ _____ _____    ______ ____
ROOT
ATOM      1  C   UNL     1       2.290   8.686  18.231  0.00  0.00    +0.000 A 
ATOM      2  N   UNL     1       1.605   7.562  18.601  0.00  0.00    +0.000 NA
ATOM      3  C   UNL     1       2.367   6.582  18.155  0.00  0.00    +0.000 A 
ATOM      4  N   UNL     1       2.236   5.236  18.217  0.00  0.00    +0.000 NA
ATOM      5  C   UNL     1       3.184   4.532  17.670  0.00  0.00    +0.000 A 
ATOM      6  N   UNL     1       3.159   3.177  17.579  0.00  0.00    +0.000 N 
ATOM      7  N   UNL     1       4.316   5.060  17.085  0.00  0.00    +0.000 NA
ATOM      8  C   UNL     1       4.467   6.343  17.003  0.00  0.00    +0.000 A 
ATOM      9  N   UNL     1       5.556   6.972  16.428  0.00  0.00    +0.000 N 
ATOM     10  N   UNL     1       3.447   7.131  17.544  0.00  0.00    +0.000 N 
ATOM     11  N   UNL     1       3.439   8.490  17.578  0.00  0.00    +0.000 NA
ATOM     12  H   UNL     1       4.024   2.857  17.140  0.00  0.00    +0.000 HD
ATOM     13  H   UNL     1       5.486   7.992  16.462  0.00  0.00    +0.000 HD
ENDROOT
BRANCH   6  14
ATOM     14  C   UNL     1       2.598   2.201  18.491  0.00  0.00    +0.000 C 
ATOM     15  C   UNL     1       3.437   2.077  19.756  0.00  0.00    +0.000 C 
ATOM     16  C   UNL     1       3.055   3.054  20.854  0.00  0.00    +0.000 C 
ATOM     17  C   UNL     1       1.574   3.056  21.193  0.00  0.00    +0.000 C 
ATOM     18  C   UNL     1       0.604   2.950  20.022  0.00  0.00    +0.000 C 
ATOM     19  C   UNL     1       1.093   2.291  18.732  0.00  0.00    +0.000 C 
ENDBRANCH   6  14
BRANCH   9  20
ATOM     20  C   UNL     1       6.933   6.494  16.354  0.00  0.00    +0.000 C 
ATOM     21  C   UNL     1       7.854   7.379  17.190  0.00  0.00    +0.000 C 
ATOM     22  C   UNL     1       7.842   7.046  18.672  0.00  0.00    +0.000 C 
ATOM     23  C   UNL     1       8.064   5.577  18.998  0.00  0.00    +0.000 C 
ATOM     24  C   UNL     1       7.510   4.549  18.019  0.00  0.00    +0.000 C 
ATOM     25  C   UNL     1       7.170   5.004  16.597  0.00  0.00    +0.000 C 
ENDBRANCH   9  20
TORSDOF 2
ENDMDL
MODEL 9
REMARK VINA RESULT:      -7.2      3.659      7.730
REMARK  Name = 
REMARK  2 active torsions:
REMARK  status: ('A' for Active; 'I' for Inactive)
REMARK    1  A    between atoms: N_6  and  C_7
REMARK    2  A    between atoms: N_15  and  C_16
REMARK                            x       y       z     vdW  Elec       q    Type
REMARK                         _______ _______ _______ _____ _____    ______ ____
ROOT
ATOM      1  C   UNL     1       2.125   2.315  20.725  0.00  0.00    +0.000 A 
ATOM      2  N   UNL     1       1.244   3.360  20.771  0.00  0.00    +0.000 NA
ATOM      3  C   UNL     1       1.956   4.377  20.327  0.00  0.00    +0.000 A 
ATOM      4  N   UNL     1       1.646   5.680  20.130  0.00  0.00    +0.000 NA
ATOM      5  C   UNL     1       2.594   6.442  19.670  0.00  0.00    +0.000 A 
ATOM      6  N   UNL     1       2.464   7.783  19.495  0.00  0.00    +0.000 N 
ATOM      7  N   UNL     1       3.856   6.005  19.329  0.00  0.00    +0.000 NA
ATOM      8  C   UNL     1       4.187   4.767  19.511  0.00  0.00    +0.000 A 
ATOM      9  N   UNL     1       5.427   4.231  19.215  0.00  0.00    +0.000 N 
ATOM     10  N   UNL     1       3.205   3.928  20.045  0.00  0.00    +0.000 N 
ATOM     11  N   UNL     1       3.354   2.597  20.282  0.00  0.00    +0.000 NA
ATOM     12  H   UNL     1       3.329   8.152  19.095  0.00  0.00    +0.000 HD
ATOM     13  H   UNL     1       5.488   3.234  19.433  0.00  0.00    +0.000 HD
ENDROOT
BRANCH   6  14
ATOM     14  C   UNL     1       1.298   8.557  19.122  0.00  0.00    +0.000 C 
ATOM     15  C   UNL     1       0.556   9.070  20.349  0.00  0.00    +0.000 C 
ATOM     16  C   UNL     1       1.055  10.408  20.864  0.00  0.00    +0.000 C 
ATOM     17  C   UNL     1       1.138  11.489  19.800  0.00  0.00    +0.000 C 
ATOM     18  C   UNL     1       1.653  11.063  18.431  0.00  0.00    +0.000 C 
ATOM     19  C   UNL     1       1.504   9.597  18.022  0.00  0.00    +0.000 C 
ENDBRANCH   6  14
BRANCH   9  20
ATOM     20  C   UNL     1       6.358   4.648  18.171  0.00  0.00    +0.000 C 
ATOM     21  C   UNL     1       5.944   4.070  16.820  0.00  0.00    +0.000 C 
ATOM     22  C   UNL     1       4.849   4.861  16.126  0.00  0.00    +0.000 C 
ATOM     23  C   UNL     1       5.113   6.355  16.015  0.00  0.00    +0.000 C 
ATOM     24  C   UNL     1       5.877   7.019  17.154  0.00  0.00    +0.000 C 
ATOM     25  C   UNL     1       6.702   6.135  18.093  0.00  0.00    +0.000 C 
ENDBRANCH   9  20
TORSDOF 2
ENDMDL
