MODEL 1
REMARK VINA RESULT:      -7.5      0.000      0.000
REMARK  Name = 
REMARK  6 active torsions:
REMARK  status: ('A' for Active; 'I' for Inactive)
REMARK    1  A    between atoms: C_1  and  C_2
REMARK    2  A    between atoms: C_2  and  N_3
REMARK    3  A    between atoms: C_2  and  C_17
REMARK    4  A    between atoms: N_3  and  C_4
REMARK    5  A    between atoms: C_4  and  C_5
REMARK    6  A    between atoms: C_8  and  C_9
REMARK                            x       y       z     vdW  Elec       q    Type
REMARK                         _______ _______ _______ _____ _____    ______ ____
ROOT
ATOM      1  C   UNL     1       0.617   9.554  21.353  0.00  0.00    +0.000 A 
ATOM      2  C   UNL     1       0.785   9.360  22.703  0.00  0.00    +0.000 A 
ATOM      3  O   UNL     1       0.019  10.272  23.365  0.00  0.00    +0.000 OA
ATOM      4  C   UNL     1      -0.576  11.005  22.367  0.00  0.00    +0.000 A 
ATOM      5  N   UNL     1      -0.253  10.605  21.154  0.00  0.00    +0.000 NA
ENDROOT
BRANCH   4   6
ATOM      6  C   UNL     1      -1.423  12.112  22.804  0.00  0.00    +0.000 A 
ATOM      7  C   UNL     1      -2.664  11.833  23.413  0.00  0.00    +0.000 A 
ATOM      8  C   UNL     1      -3.497  12.857  23.871  0.00  0.00    +0.000 A 
ATOM      9  C   UNL     1      -3.105  14.183  23.730  0.00  0.00    +0.000 A 
ATOM     10  C   UNL     1      -1.889  14.484  23.119  0.00  0.00    +0.000 A 
ATOM     11  C   UNL     1      -1.052  13.460  22.656  0.00  0.00    +0.000 A 
ATOM     12 CL   UNL     1       0.449  13.958  21.951  0.00  0.00    +0.000 Cl
ENDBRANCH   4   6
BRANCH   1  13
ATOM     13  C   UNL     1       1.254   8.857  20.198  0.00  0.00    +0.000 C 
BRANCH  13  14
ATOM     14  N   UNL     1       1.807   7.574  20.637  0.00  0.00    +0.000 NA
ATOM     15  H   UNL     1       2.450   7.731  21.411  0.00  0.00    +0.000 HD
BRANCH  14  17
ATOM     16  C   UNL     1       2.397   7.527  18.196  0.00  0.00    +0.000 C 
ATOM     17  C   UNL     1       2.542   6.868  19.575  0.00  0.00    +0.000 C 
BRANCH  17  18
ATOM     18  C   UNL     1       2.071   5.423  19.449  0.00  0.00    +0.000 A 
ATOM     19  C   UNL     1       2.007   4.815  18.185  0.00  0.00    +0.000 A 
ATOM     20  C   UNL     1       1.457   3.540  18.035  0.00  0.00    +0.000 A 
ATOM     21  C   UNL     1       0.971   2.854  19.146  0.00  0.00    +0.000 A 
ATOM     22  C   UNL     1       1.046   3.434  20.409  0.00  0.00    +0.000 A 
ATOM     23  C   UNL     1       1.588   4.711  20.560  0.00  0.00    +0.000 A 
ENDBRANCH  17  18
ENDBRANCH  14  17
ENDBRANCH  13  14
ENDBRANCH   1  13
TORSDOF 5
ENDMDL
MODEL 2
REMARK VINA RESULT:      -7.4      6.620      8.604
REMARK  Name = 
REMARK  6 active torsions:
REMARK  status: ('A' for Active; 'I' for Inactive)
REMARK    1  A    between atoms: C_1  and  C_2
REMARK    2  A    between atoms: C_2  and  N_3
REMARK    3  A    between atoms: C_2  and  C_17
REMARK    4  A    between atoms: N_3  and  C_4
REMARK    5  A    between atoms: C_4  and  C_5
REMARK    6  A    between atoms: C_8  and  C_9
REMARK                            x       y       z     vdW  Elec       q    Type
REMARK                         _______ _______ _______ _____ _____    ______ ____
ROOT
ATOM      1  C   UNL     1       4.734   6.714  17.868  0.00  0.00    +0.000 A 
ATOM      2  C   UNL     1       3.526   7.364  17.793  0.00  0.00    +0.000 A 
ATOM      3  O   UNL     1       2.605   6.638  18.485  0.00  0.00    +0.000 OA
ATOM      4  C   UNL     1       3.305   5.548  18.943  0.00  0.00    +0.000 A 
ATOM      5  N   UNL     1       4.578   5.559  18.605  0.00  0.00    +0.000 NA
ENDROOT
BRANCH   4   6
ATOM      6  C   UNL     1       2.531   4.555  19.684  0.00  0.00    +0.000 A 
ATOM      7  C   UNL     1       2.784   4.367  21.058  0.00  0.00    +0.000 A 
ATOM      8  C   UNL     1       2.052   3.448  21.814  0.00  0.00    +0.000 A 
ATOM      9  C   UNL     1       1.049   2.697  21.210  0.00  0.00    +0.000 A 
ATOM     10  C   UNL     1       0.790   2.857  19.850  0.00  0.00    +0.000 A 
ATOM     11  C   UNL     1       1.524   3.775  19.087  0.00  0.00    +0.000 A 
ATOM     12 CL   UNL     1       1.083   3.911  17.419  0.00  0.00    +0.000 Cl
ENDBRANCH   4   6
BRANCH   1  13
ATOM     13  C   UNL     1       6.049   7.061  17.254  0.00  0.00    +0.000 C 
BRANCH  13  14
ATOM     14  N   UNL     1       6.085   6.597  15.866  0.00  0.00    +0.000 NA
ATOM     15  H   UNL     1       5.231   6.885  15.392  0.00  0.00    +0.000 HD
BRANCH  14  17
ATOM     16  C   UNL     1       7.366   4.548  16.552  0.00  0.00    +0.000 C 
ATOM     17  C   UNL     1       6.196   5.134  15.749  0.00  0.00    +0.000 C 
BRANCH  17  18
ATOM     18  C   UNL     1       6.379   4.714  14.294  0.00  0.00    +0.000 A 
ATOM     19  C   UNL     1       5.490   3.795  13.713  0.00  0.00    +0.000 A 
ATOM     20  C   UNL     1       5.716   3.301  12.427  0.00  0.00    +0.000 A 
ATOM     21  C   UNL     1       6.827   3.723  11.702  0.00  0.00    +0.000 A 
ATOM     22  C   UNL     1       7.708   4.649  12.255  0.00  0.00    +0.000 A 
ATOM     23  C   UNL     1       7.488   5.139  13.543  0.00  0.00    +0.000 A 
ENDBRANCH  17  18
ENDBRANCH  14  17
ENDBRANCH  13  14
ENDBRANCH   1  13
TORSDOF 5
ENDMDL
MODEL 3
REMARK VINA RESULT:      -7.4      6.674      8.794
REMARK  Name = 
REMARK  6 active torsions:
REMARK  status: ('A' for Active; 'I' for Inactive)
REMARK    1  A    between atoms: C_1  and  C_2
REMARK    2  A    between atoms: C_2  and  N_3
REMARK    3  A    between atoms: C_2  and  C_17
REMARK    4  A    between atoms: N_3  and  C_4
REMARK    5  A    between atoms: C_4  and  C_5
REMARK    6  A    between atoms: C_8  and  C_9
REMARK                            x       y       z     vdW  Elec       q    Type
REMARK                         _______ _______ _______ _____ _____    ______ ____
ROOT
ATOM      1  C   UNL     1       4.618   6.711  17.725  0.00  0.00    +0.000 A 
ATOM      2  C   UNL     1       3.386   7.317  17.788  0.00  0.00    +0.000 A 
ATOM      3  O   UNL     1       2.552   6.520  18.512  0.00  0.00    +0.000 OA
ATOM      4  C   UNL     1       3.325   5.434  18.847  0.00  0.00    +0.000 A 
ATOM      5  N   UNL     1       4.564   5.512  18.405  0.00  0.00    +0.000 NA
ENDROOT
BRANCH   4   6
ATOM      6  C   UNL     1       2.651   4.374  19.593  0.00  0.00    +0.000 A 
ATOM      7  C   UNL     1       2.457   4.522  20.981  0.00  0.00    +0.000 A 
ATOM      8  C   UNL     1       1.794   3.547  21.731  0.00  0.00    +0.000 A 
ATOM      9  C   UNL     1       1.312   2.402  21.107  0.00  0.00    +0.000 A 
ATOM     10  C   UNL     1       1.505   2.228  19.738  0.00  0.00    +0.000 A 
ATOM     11  C   UNL     1       2.171   3.202  18.982  0.00  0.00    +0.000 A 
ATOM     12 CL   UNL     1       2.314   2.889  17.285  0.00  0.00    +0.000 Cl
ENDBRANCH   4   6
BRANCH   1  13
ATOM     13  C   UNL     1       5.862   7.140  17.024  0.00  0.00    +0.000 C 
BRANCH  13  14
ATOM     14  N   UNL     1       5.906   6.549  15.685  0.00  0.00    +0.000 NA
ATOM     15  H   UNL     1       5.003   6.673  15.232  0.00  0.00    +0.000 HD
BRANCH  14  17
ATOM     16  C   UNL     1       7.426   4.754  16.566  0.00  0.00    +0.000 C 
ATOM     17  C   UNL     1       6.210   5.109  15.699  0.00  0.00    +0.000 C 
BRANCH  17  18
ATOM     18  C   UNL     1       6.482   4.592  14.290  0.00  0.00    +0.000 A 
ATOM     19  C   UNL     1       7.527   5.144  13.531  0.00  0.00    +0.000 A 
ATOM     20  C   UNL     1       7.709   4.775  12.196  0.00  0.00    +0.000 A 
ATOM     21  C   UNL     1       6.854   3.848  11.605  0.00  0.00    +0.000 A 
ATOM     22  C   UNL     1       5.825   3.277  12.348  0.00  0.00    +0.000 A 
ATOM     23  C   UNL     1       5.637   3.649  13.680  0.00  0.00    +0.000 A 
ENDBRANCH  17  18
ENDBRANCH  14  17
ENDBRANCH  13  14
ENDBRANCH   1  13
TORSDOF 5
ENDMDL
MODEL 4
REMARK VINA RESULT:      -7.4      6.928      9.525
REMARK  Name = 
REMARK  6 active torsions:
REMARK  status: ('A' for Active; 'I' for Inactive)
REMARK    1  A    between atoms: C_1  and  C_2
REMARK    2  A    between atoms: C_2  and  N_3
REMARK    3  A    between atoms: C_2  and  C_17
REMARK    4  A    between atoms: N_3  and  C_4
REMARK    5  A    between atoms: C_4  and  C_5
REMARK    6  A    between atoms: C_8  and  C_9
REMARK                            x       y       z     vdW  Elec       q    Type
REMARK                         _______ _______ _______ _____ _____    ______ ____
ROOT
ATOM      1  C   UNL     1       6.269   4.997  17.195  0.00  0.00    +0.000 A 
ATOM      2  C   UNL     1       6.814   4.766  18.435  0.00  0.00    +0.000 A 
ATOM      3  O   UNL     1       5.814   4.384  19.277  0.00  0.00    +0.000 OA
ATOM      4  C   UNL     1       4.681   4.420  18.500  0.00  0.00    +0.000 A 
ATOM      5  N   UNL     1       4.909   4.772  17.251  0.00  0.00    +0.000 NA
ENDROOT
BRANCH   4   6
ATOM      6  C   UNL     1       3.428   4.104  19.181  0.00  0.00    +0.000 A 
ATOM      7  C   UNL     1       2.771   5.108  19.920  0.00  0.00    +0.000 A 
ATOM      8  C   UNL     1       1.557   4.860  20.566  0.00  0.00    +0.000 A 
ATOM      9  C   UNL     1       0.974   3.601  20.485  0.00  0.00    +0.000 A 
ATOM     10  C   UNL     1       1.612   2.588  19.771  0.00  0.00    +0.000 A 
ATOM     11  C   UNL     1       2.831   2.832  19.124  0.00  0.00    +0.000 A 
ATOM     12 CL   UNL     1       3.505   1.506  18.237  0.00  0.00    +0.000 Cl
ENDBRANCH   4   6
BRANCH   1  13
ATOM     13  C   UNL     1       6.916   5.472  15.937  0.00  0.00    +0.000 C 
BRANCH  13  14
ATOM     14  N   UNL     1       6.153   5.003  14.779  0.00  0.00    +0.000 NA
ATOM     15  H   UNL     1       5.447   4.337  15.088  0.00  0.00    +0.000 HD
BRANCH  14  17
ATOM     16  C   UNL     1       7.829   5.318  12.935  0.00  0.00    +0.000 C 
ATOM     17  C   UNL     1       6.990   4.338  13.767  0.00  0.00    +0.000 C 
BRANCH  17  18
ATOM     18  C   UNL     1       6.137   3.524  12.800  0.00  0.00    +0.000 A 
ATOM     19  C   UNL     1       6.690   2.412  12.144  0.00  0.00    +0.000 A 
ATOM     20  C   UNL     1       5.967   1.733  11.160  0.00  0.00    +0.000 A 
ATOM     21  C   UNL     1       4.682   2.151  10.825  0.00  0.00    +0.000 A 
ATOM     22  C   UNL     1       4.111   3.239  11.480  0.00  0.00    +0.000 A 
ATOM     23  C   UNL     1       4.834   3.923  12.458  0.00  0.00    +0.000 A 
ENDBRANCH  17  18
ENDBRANCH  14  17
ENDBRANCH  13  14
ENDBRANCH   1  13
TORSDOF 5
ENDMDL
MODEL 5
REMARK VINA RESULT:      -7.3      4.072      6.572
REMARK  Name = 
REMARK  6 active torsions:
REMARK  status: ('A' for Active; 'I' for Inactive)
REMARK    1  A    between atoms: C_1  and  C_2
REMARK    2  A    between atoms: C_2  and  N_3
REMARK    3  A    between atoms: C_2  and  C_17
REMARK    4  A    between atoms: N_3  and  C_4
REMARK    5  A    between atoms: C_4  and  C_5
REMARK    6  A    between atoms: C_8  and  C_9
REMARK                            x       y       z     vdW  Elec       q    Type
REMARK                         _______ _______ _______ _____ _____    ______ ____
ROOT
ATOM      1  C   UNL     1       3.139   4.145  18.655  0.00  0.00    +0.000 A 
ATOM      2  C   UNL     1       3.273   4.013  20.016  0.00  0.00    +0.000 A 
ATOM      3  O   UNL     1       2.779   5.138  20.606  0.00  0.00    +0.000 OA
ATOM      4  C   UNL     1       2.376   5.925  19.554  0.00  0.00    +0.000 A 
ATOM      5  N   UNL     1       2.565   5.367  18.375  0.00  0.00    +0.000 NA
ENDROOT
BRANCH   4   6
ATOM      6  C   UNL     1       1.850   7.242  19.904  0.00  0.00    +0.000 A 
ATOM      7  C   UNL     1       1.254   7.433  21.167  0.00  0.00    +0.000 A 
ATOM      8  C   UNL     1       0.759   8.681  21.557  0.00  0.00    +0.000 A 
ATOM      9  C   UNL     1       0.851   9.764  20.690  0.00  0.00    +0.000 A 
ATOM     10  C   UNL     1       1.424   9.595  19.432  0.00  0.00    +0.000 A 
ATOM     11  C   UNL     1       1.919   8.345  19.035  0.00  0.00    +0.000 A 
ATOM     12 CL   UNL     1       2.642   8.270  17.464  0.00  0.00    +0.000 Cl
ENDBRANCH   4   6
BRANCH   1  13
ATOM     13  C   UNL     1       3.556   3.224  17.558  0.00  0.00    +0.000 C 
BRANCH  13  14
ATOM     14  N   UNL     1       4.996   3.350  17.326  0.00  0.00    +0.000 NA
ATOM     15  H   UNL     1       5.473   3.462  18.218  0.00  0.00    +0.000 HD
BRANCH  14  17
ATOM     16  C   UNL     1       5.909   4.100  15.109  0.00  0.00    +0.000 C 
ATOM     17  C   UNL     1       5.345   4.502  16.479  0.00  0.00    +0.000 C 
BRANCH  17  18
ATOM     18  C   UNL     1       6.381   5.390  17.162  0.00  0.00    +0.000 A 
ATOM     19  C   UNL     1       7.046   4.933  18.311  0.00  0.00    +0.000 A 
ATOM     20  C   UNL     1       7.901   5.778  19.023  0.00  0.00    +0.000 A 
ATOM     21  C   UNL     1       8.107   7.086  18.592  0.00  0.00    +0.000 A 
ATOM     22  C   UNL     1       7.471   7.549  17.443  0.00  0.00    +0.000 A 
ATOM     23  C   UNL     1       6.611   6.708  16.735  0.00  0.00    +0.000 A 
ENDBRANCH  17  18
ENDBRANCH  14  17
ENDBRANCH  13  14
ENDBRANCH   1  13
TORSDOF 5
ENDMDL
MODEL 6
REMARK VINA RESULT:      -7.3      6.918      9.575
REMARK  Name = 
REMARK  6 active torsions:
REMARK  status: ('A' for Active; 'I' for Inactive)
REMARK    1  A    between atoms: C_1  and  C_2
REMARK    2  A    between atoms: C_2  and  N_3
REMARK    3  A    between atoms: C_2  and  C_17
REMARK    4  A    between atoms: N_3  and  C_4
REMARK    5  A    between atoms: C_4  and  C_5
REMARK    6  A    between atoms: C_8  and  C_9
REMARK                            x       y       z     vdW  Elec       q    Type
REMARK                         _______ _______ _______ _____ _____    ______ ____
ROOT
ATOM      1  C   UNL     1       6.492   4.709  17.268  0.00  0.00    +0.000 A 
ATOM      2  C   UNL     1       6.911   4.814  18.572  0.00  0.00    +0.000 A 
ATOM      3  O   UNL     1       5.844   4.576  19.385  0.00  0.00    +0.000 OA
ATOM      4  C   UNL     1       4.800   4.351  18.520  0.00  0.00    +0.000 A 
ATOM      5  N   UNL     1       5.145   4.413  17.250  0.00  0.00    +0.000 NA
ENDROOT
BRANCH   4   6
ATOM      6  C   UNL     1       3.496   4.122  19.137  0.00  0.00    +0.000 A 
ATOM      7  C   UNL     1       2.902   5.148  19.899  0.00  0.00    +0.000 A 
ATOM      8  C   UNL     1       1.645   4.984  20.487  0.00  0.00    +0.000 A 
ATOM      9  C   UNL     1       0.954   3.789  20.322  0.00  0.00    +0.000 A 
ATOM     10  C   UNL     1       1.527   2.756  19.584  0.00  0.00    +0.000 A 
ATOM     11  C   UNL     1       2.789   2.914  18.996  0.00  0.00    +0.000 A 
ATOM     12 CL   UNL     1       3.377   1.574  18.071  0.00  0.00    +0.000 Cl
ENDBRANCH   4   6
BRANCH   1  13
ATOM     13  C   UNL     1       7.248   4.916  15.999  0.00  0.00    +0.000 C 
BRANCH  13  14
ATOM     14  N   UNL     1       6.389   4.611  14.854  0.00  0.00    +0.000 NA
ATOM     15  H   UNL     1       5.763   3.845  15.097  0.00  0.00    +0.000 HD
BRANCH  14  17
ATOM     16  C   UNL     1       7.836   5.393  12.956  0.00  0.00    +0.000 C 
ATOM     17  C   UNL     1       7.144   4.214  13.655  0.00  0.00    +0.000 C 
BRANCH  17  18
ATOM     18  C   UNL     1       6.235   3.541  12.632  0.00  0.00    +0.000 A 
ATOM     19  C   UNL     1       4.945   4.046  12.402  0.00  0.00    +0.000 A 
ATOM     20  C   UNL     1       4.053   3.369  11.567  0.00  0.00    +0.000 A 
ATOM     21  C   UNL     1       4.440   2.183  10.947  0.00  0.00    +0.000 A 
ATOM     22  C   UNL     1       5.722   1.679  11.149  0.00  0.00    +0.000 A 
ATOM     23  C   UNL     1       6.613   2.350  11.988  0.00  0.00    +0.000 A 
ENDBRANCH  17  18
ENDBRANCH  14  17
ENDBRANCH  13  14
ENDBRANCH   1  13
TORSDOF 5
ENDMDL
MODEL 7
REMARK VINA RESULT:      -7.2      6.961      9.349
REMARK  Name = 
REMARK  6 active torsions:
REMARK  status: ('A' for Active; 'I' for Inactive)
REMARK    1  A    between atoms: C_1  and  C_2
REMARK    2  A    between atoms: C_2  and  N_3
REMARK    3  A    between atoms: C_2  and  C_17
REMARK    4  A    between atoms: N_3  and  C_4
REMARK    5  A    between atoms: C_4  and  C_5
REMARK    6  A    between atoms: C_8  and  C_9
REMARK                            x       y       z     vdW  Elec       q    Type
REMARK                         _______ _______ _______ _____ _____    ______ ____
ROOT
ATOM      1  C   UNL     1       6.512   4.691  17.945  0.00  0.00    +0.000 A 
ATOM      2  C   UNL     1       6.566   5.390  19.126  0.00  0.00    +0.000 A 
ATOM      3  O   UNL     1       5.407   5.170  19.808  0.00  0.00    +0.000 OA
ATOM      4  C   UNL     1       4.679   4.346  18.984  0.00  0.00    +0.000 A 
ATOM      5  N   UNL     1       5.304   4.030  17.868  0.00  0.00    +0.000 NA
ENDROOT
BRANCH   4   6
ATOM      6  C   UNL     1       3.342   3.991  19.453  0.00  0.00    +0.000 A 
ATOM      7  C   UNL     1       2.565   4.959  20.121  0.00  0.00    +0.000 A 
ATOM      8  C   UNL     1       1.271   4.674  20.565  0.00  0.00    +0.000 A 
ATOM      9  C   UNL     1       0.727   3.413  20.348  0.00  0.00    +0.000 A 
ATOM     10  C   UNL     1       1.481   2.436  19.702  0.00  0.00    +0.000 A 
ATOM     11  C   UNL     1       2.781   2.716  19.258  0.00  0.00    +0.000 A 
ATOM     12 CL   UNL     1       3.603   1.434  18.435  0.00  0.00    +0.000 Cl
ENDBRANCH   4   6
BRANCH   1  13
ATOM     13  C   UNL     1       7.496   4.624  16.825  0.00  0.00    +0.000 C 
BRANCH  13  14
ATOM     14  N   UNL     1       6.902   3.925  15.685  0.00  0.00    +0.000 NA
ATOM     15  H   UNL     1       7.555   3.223  15.342  0.00  0.00    +0.000 HD
BRANCH  14  17
ATOM     16  C   UNL     1       5.400   5.763  14.865  0.00  0.00    +0.000 C 
ATOM     17  C   UNL     1       6.574   4.821  14.564  0.00  0.00    +0.000 C 
BRANCH  17  18
ATOM     18  C   UNL     1       6.221   4.027  13.311  0.00  0.00    +0.000 A 
ATOM     19  C   UNL     1       4.876   3.873  12.936  0.00  0.00    +0.000 A 
ATOM     20  C   UNL     1       4.525   3.043  11.869  0.00  0.00    +0.000 A 
ATOM     21  C   UNL     1       5.512   2.364  11.159  0.00  0.00    +0.000 A 
ATOM     22  C   UNL     1       6.852   2.521  11.505  0.00  0.00    +0.000 A 
ATOM     23  C   UNL     1       7.204   3.343  12.576  0.00  0.00    +0.000 A 
ENDBRANCH  17  18
ENDBRANCH  14  17
ENDBRANCH  13  14
ENDBRANCH   1  13
TORSDOF 5
ENDMDL
MODEL 8
REMARK VINA RESULT:      -7.2      3.926      5.990
REMARK  Name = 
REMARK  6 active torsions:
REMARK  status: ('A' for Active; 'I' for Inactive)
REMARK    1  A    between atoms: C_1  and  C_2
REMARK    2  A    between atoms: C_2  and  N_3
REMARK    3  A    between atoms: C_2  and  C_17
REMARK    4  A    between atoms: N_3  and  C_4
REMARK    5  A    between atoms: C_4  and  C_5
REMARK    6  A    between atoms: C_8  and  C_9
REMARK                            x       y       z     vdW  Elec       q    Type
REMARK                         _______ _______ _______ _____ _____    ______ ____
ROOT
ATOM      1  C   UNL     1       3.838   5.080  19.562  0.00  0.00    +0.000 A 
ATOM      2  C   UNL     1       2.771   4.508  20.212  0.00  0.00    +0.000 A 
ATOM      3  O   UNL     1       1.843   5.477  20.446  0.00  0.00    +0.000 OA
ATOM      4  C   UNL     1       2.406   6.620  19.933  0.00  0.00    +0.000 A 
ATOM      5  N   UNL     1       3.591   6.426  19.390  0.00  0.00    +0.000 NA
ENDROOT
BRANCH   4   6
ATOM      6  C   UNL     1       1.633   7.848  20.103  0.00  0.00    +0.000 A 
ATOM      7  C   UNL     1       0.982   8.089  21.330  0.00  0.00    +0.000 A 
ATOM      8  C   UNL     1       0.252   9.261  21.548  0.00  0.00    +0.000 A 
ATOM      9  C   UNL     1       0.159  10.216  20.543  0.00  0.00    +0.000 A 
ATOM     10  C   UNL     1       0.783   9.993  19.317  0.00  0.00    +0.000 A 
ATOM     11  C   UNL     1       1.513   8.818  19.092  0.00  0.00    +0.000 A 
ATOM     12 CL   UNL     1       2.275   8.674  17.544  0.00  0.00    +0.000 Cl
ENDBRANCH   4   6
BRANCH   1  13
ATOM     13  C   UNL     1       5.126   4.474  19.117  0.00  0.00    +0.000 C 
BRANCH  13  14
ATOM     14  N   UNL     1       6.246   5.299  19.574  0.00  0.00    +0.000 NA
ATOM     15  H   UNL     1       5.911   6.238  19.782  0.00  0.00    +0.000 HD
BRANCH  14  17
ATOM     16  C   UNL     1       8.148   6.701  18.722  0.00  0.00    +0.000 C 
ATOM     17  C   UNL     1       7.323   5.415  18.577  0.00  0.00    +0.000 C 
BRANCH  17  18
ATOM     18  C   UNL     1       6.762   5.383  17.159  0.00  0.00    +0.000 A 
ATOM     19  C   UNL     1       5.899   6.402  16.724  0.00  0.00    +0.000 A 
ATOM     20  C   UNL     1       5.275   6.322  15.477  0.00  0.00    +0.000 A 
ATOM     21  C   UNL     1       5.511   5.230  14.646  0.00  0.00    +0.000 A 
ATOM     22  C   UNL     1       6.379   4.220  15.054  0.00  0.00    +0.000 A 
ATOM     23  C   UNL     1       6.998   4.294  16.302  0.00  0.00    +0.000 A 
ENDBRANCH  17  18
ENDBRANCH  14  17
ENDBRANCH  13  14
ENDBRANCH   1  13
TORSDOF 5
ENDMDL
MODEL 9
REMARK VINA RESULT:      -7.2      4.513      6.292
REMARK  Name = 
REMARK  6 active torsions:
REMARK  status: ('A' for Active; 'I' for Inactive)
REMARK    1  A    between atoms: C_1  and  C_2
REMARK    2  A    between atoms: C_2  and  N_3
REMARK    3  A    between atoms: C_2  and  C_17
REMARK    4  A    between atoms: N_3  and  C_4
REMARK    5  A    between atoms: C_4  and  C_5
REMARK    6  A    between atoms: C_8  and  C_9
REMARK                            x       y       z     vdW  Elec       q    Type
REMARK                         _______ _______ _______ _____ _____    ______ ____
ROOT
ATOM      1  C   UNL     1       4.512   5.351  16.953  0.00  0.00    +0.000 A 
ATOM      2  C   UNL     1       4.937   6.492  16.316  0.00  0.00    +0.000 A 
ATOM      3  O   UNL     1       4.251   7.551  16.831  0.00  0.00    +0.000 OA
ATOM      4  C   UNL     1       3.410   6.991  17.762  0.00  0.00    +0.000 A 
ATOM      5  N   UNL     1       3.539   5.684  17.872  0.00  0.00    +0.000 NA
ENDROOT
BRANCH   4   6
ATOM      6  C   UNL     1       2.501   7.912  18.439  0.00  0.00    +0.000 A 
ATOM      7  C   UNL     1       2.137   9.116  17.801  0.00  0.00    +0.000 A 
ATOM      8  C   UNL     1       1.249  10.016  18.398  0.00  0.00    +0.000 A 
ATOM      9  C   UNL     1       0.708   9.730  19.646  0.00  0.00    +0.000 A 
ATOM     10  C   UNL     1       1.063   8.553  20.300  0.00  0.00    +0.000 A 
ATOM     11  C   UNL     1       1.955   7.648  19.707  0.00  0.00    +0.000 A 
ATOM     12 CL   UNL     1       2.289   6.204  20.602  0.00  0.00    +0.000 Cl
ENDBRANCH   4   6
BRANCH   1  13
ATOM     13  C   UNL     1       4.909   3.929  16.738  0.00  0.00    +0.000 C 
BRANCH  13  14
ATOM     14  N   UNL     1       4.863   3.204  18.009  0.00  0.00    +0.000 NA
ATOM     15  H   UNL     1       5.722   2.670  18.124  0.00  0.00    +0.000 HD
BRANCH  14  17
ATOM     16  C   UNL     1       2.852   2.256  16.840  0.00  0.00    +0.000 C 
ATOM     17  C   UNL     1       3.733   2.265  18.097  0.00  0.00    +0.000 C 
BRANCH  17  18
ATOM     18  C   UNL     1       2.837   2.596  19.287  0.00  0.00    +0.000 A 
ATOM     19  C   UNL     1       3.357   2.547  20.590  0.00  0.00    +0.000 A 
ATOM     20  C   UNL     1       2.523   2.719  21.697  0.00  0.00    +0.000 A 
ATOM     21  C   UNL     1       1.162   2.950  21.516  0.00  0.00    +0.000 A 
ATOM     22  C   UNL     1       0.633   3.021  20.230  0.00  0.00    +0.000 A 
ATOM     23  C   UNL     1       1.463   2.842  19.123  0.00  0.00    +0.000 A 
ENDBRANCH  17  18
ENDBRANCH  14  17
ENDBRANCH  13  14
ENDBRANCH   1  13
TORSDOF 5
ENDMDL
