MODEL 1
REMARK VINA RESULT:      -8.0      0.000      0.000
REMARK  Name = 
REMARK  6 active torsions:
REMARK  status: ('A' for Active; 'I' for Inactive)
REMARK    1  A    between atoms: C_2  and  O_3
REMARK    2  A    between atoms: C_2  and  C_4
REMARK    3  A    between atoms: C_4  and  C_5
REMARK    4  A    between atoms: C_11  and  O_12
REMARK    5  A    between atoms: O_12  and  C_13
REMARK    6  A    between atoms: C_13  and  C_14
REMARK                            x       y       z     vdW  Elec       q    Type
REMARK                         _______ _______ _______ _____ _____    ______ ____
ROOT
ATOM      1  C   UNL     1       4.748   4.263  17.148  0.00  0.00    +0.000 A 
ATOM      2  C   UNL     1       4.292   3.301  18.024  0.00  0.00    +0.000 A 
ATOM      3  O   UNL     1       3.420   3.833  18.908  0.00  0.00    +0.000 OA
ATOM      4  C   UNL     1       3.304   5.161  18.623  0.00  0.00    +0.000 A 
ATOM      5  C   UNL     1       2.490   6.064  19.314  0.00  0.00    +0.000 A 
ATOM      6 CL   UNL     1       1.650   5.464  20.696  0.00  0.00    +0.000 Cl
ATOM      7  C   UNL     1       2.469   7.387  18.829  0.00  0.00    +0.000 A 
ATOM      8  C   UNL     1       3.309   7.754  17.763  0.00  0.00    +0.000 A 
ATOM      9  C   UNL     1       4.134   6.822  17.109  0.00  0.00    +0.000 A 
ATOM     10  C   UNL     1       4.112   5.485  17.542  0.00  0.00    +0.000 A 
ENDROOT
BRANCH   1  11
ATOM     11  C   UNL     1       5.714   4.046  16.034  0.00  0.00    +0.000 C 
BRANCH  11  13
ATOM     12  O   UNL     1       7.457   5.606  15.497  0.00  0.00    +0.000 OA
ATOM     13  C   UNL     1       7.061   4.704  16.223  0.00  0.00    +0.000 C 
BRANCH  13  14
ATOM     14  O   UNL     1       7.783   4.297  17.291  0.00  0.00    +0.000 OA
ATOM     15  H   UNL     1       8.741   4.481  17.242  0.00  0.00    +0.000 HD
ENDBRANCH  13  14
ENDBRANCH  11  13
ENDBRANCH   1  11
BRANCH   7  16
ATOM     16  O   UNL     1       1.701   8.437  19.286  0.00  0.00    +0.000 OA
BRANCH  16  17
ATOM     17  C   UNL     1       1.466   9.487  18.344  0.00  0.00    +0.000 C 
BRANCH  17  18
ATOM     18  C   UNL     1       0.094  10.113  18.444  0.00  0.00    +0.000 A 
ATOM     19  C   UNL     1      -0.941   9.776  17.562  0.00  0.00    +0.000 A 
ATOM     20  C   UNL     1      -2.198  10.371  17.691  0.00  0.00    +0.000 A 
ATOM     21  C   UNL     1      -2.429  11.306  18.698  0.00  0.00    +0.000 A 
ATOM     22 CL   UNL     1      -3.983  12.025  18.858  0.00  0.00    +0.000 Cl
ATOM     23  C   UNL     1      -1.413  11.662  19.576  0.00  0.00    +0.000 A 
ATOM     24  C   UNL     1      -0.159  11.070  19.448  0.00  0.00    +0.000 A 
ATOM     25 CL   UNL     1       1.070  11.557  20.567  0.00  0.00    +0.000 Cl
ENDBRANCH  17  18
ENDBRANCH  16  17
ENDBRANCH   7  16
TORSDOF 6
ENDMDL
MODEL 2
REMARK VINA RESULT:      -7.9      1.830      2.292
REMARK  Name = 
REMARK  6 active torsions:
REMARK  status: ('A' for Active; 'I' for Inactive)
REMARK    1  A    between atoms: C_2  and  O_3
REMARK    2  A    between atoms: C_2  and  C_4
REMARK    3  A    between atoms: C_4  and  C_5
REMARK    4  A    between atoms: C_11  and  O_12
REMARK    5  A    between atoms: O_12  and  C_13
REMARK    6  A    between atoms: C_13  and  C_14
REMARK                            x       y       z     vdW  Elec       q    Type
REMARK                         _______ _______ _______ _____ _____    ______ ____
ROOT
ATOM      1  C   UNL     1       4.441   4.080  17.000  0.00  0.00    +0.000 A 
ATOM      2  C   UNL     1       4.138   2.893  17.634  0.00  0.00    +0.000 A 
ATOM      3  O   UNL     1       3.383   3.116  18.731  0.00  0.00    +0.000 OA
ATOM      4  C   UNL     1       3.191   4.462  18.833  0.00  0.00    +0.000 A 
ATOM      5  C   UNL     1       2.456   5.097  19.839  0.00  0.00    +0.000 A 
ATOM      6 CL   UNL     1       1.833   4.100  21.102  0.00  0.00    +0.000 Cl
ATOM      7  C   UNL     1       2.330   6.496  19.737  0.00  0.00    +0.000 A 
ATOM      8  C   UNL     1       3.004   7.185  18.712  0.00  0.00    +0.000 A 
ATOM      9  C   UNL     1       3.755   6.513  17.732  0.00  0.00    +0.000 A 
ATOM     10  C   UNL     1       3.832   5.111  17.787  0.00  0.00    +0.000 A 
ENDROOT
BRANCH   1  11
ATOM     11  C   UNL     1       5.248   4.227  15.756  0.00  0.00    +0.000 C 
BRANCH  11  13
ATOM     12  O   UNL     1       7.324   5.291  15.188  0.00  0.00    +0.000 OA
ATOM     13  C   UNL     1       6.697   4.595  15.977  0.00  0.00    +0.000 C 
BRANCH  13  14
ATOM     14  O   UNL     1       7.251   4.181  17.138  0.00  0.00    +0.000 OA
ATOM     15  H   UNL     1       7.771   4.855  17.617  0.00  0.00    +0.000 HD
ENDBRANCH  13  14
ENDBRANCH  11  13
ENDBRANCH   1  11
BRANCH   7  16
ATOM     16  O   UNL     1       1.605   7.337  20.554  0.00  0.00    +0.000 OA
BRANCH  16  17
ATOM     17  C   UNL     1       1.392   8.658  20.049  0.00  0.00    +0.000 C 
BRANCH  17  18
ATOM     18  C   UNL     1       0.507   9.519  20.921  0.00  0.00    +0.000 A 
ATOM     19  C   UNL     1       0.206   9.170  22.244  0.00  0.00    +0.000 A 
ATOM     20  C   UNL     1      -0.609   9.996  23.021  0.00  0.00    +0.000 A 
ATOM     21  C   UNL     1      -1.132  11.170  22.483  0.00  0.00    +0.000 A 
ATOM     22 CL   UNL     1      -2.125  12.187  23.451  0.00  0.00    +0.000 Cl
ATOM     23  C   UNL     1      -0.854  11.528  21.170  0.00  0.00    +0.000 A 
ATOM     24  C   UNL     1      -0.041  10.705  20.393  0.00  0.00    +0.000 A 
ATOM     25 CL   UNL     1       0.266  11.200  18.762  0.00  0.00    +0.000 Cl
ENDBRANCH  17  18
ENDBRANCH  16  17
ENDBRANCH   7  16
TORSDOF 6
ENDMDL
MODEL 3
REMARK VINA RESULT:      -7.7      1.526      2.256
REMARK  Name = 
REMARK  6 active torsions:
REMARK  status: ('A' for Active; 'I' for Inactive)
REMARK    1  A    between atoms: C_2  and  O_3
REMARK    2  A    between atoms: C_2  and  C_4
REMARK    3  A    between atoms: C_4  and  C_5
REMARK    4  A    between atoms: C_11  and  O_12
REMARK    5  A    between atoms: O_12  and  C_13
REMARK    6  A    between atoms: C_13  and  C_14
REMARK                            x       y       z     vdW  Elec       q    Type
REMARK                         _______ _______ _______ _____ _____    ______ ____
ROOT
ATOM      1  C   UNL     1       4.789   4.219  16.889  0.00  0.00    +0.000 A 
ATOM      2  C   UNL     1       4.321   3.248  17.748  0.00  0.00    +0.000 A 
ATOM      3  O   UNL     1       3.469   3.778  18.652  0.00  0.00    +0.000 OA
ATOM      4  C   UNL     1       3.378   5.115  18.398  0.00  0.00    +0.000 A 
ATOM      5  C   UNL     1       2.590   6.019  19.116  0.00  0.00    +0.000 A 
ATOM      6 CL   UNL     1       1.750   5.406  20.492  0.00  0.00    +0.000 Cl
ATOM      7  C   UNL     1       2.592   7.352  18.661  0.00  0.00    +0.000 A 
ATOM      8  C   UNL     1       3.429   7.725  17.595  0.00  0.00    +0.000 A 
ATOM      9  C   UNL     1       4.229   6.791  16.912  0.00  0.00    +0.000 A 
ATOM     10  C   UNL     1       4.183   5.446  17.316  0.00  0.00    +0.000 A 
ENDROOT
BRANCH   1  11
ATOM     11  C   UNL     1       5.740   4.008  15.761  0.00  0.00    +0.000 C 
BRANCH  11  13
ATOM     12  O   UNL     1       7.480   5.590  15.283  0.00  0.00    +0.000 OA
ATOM     13  C   UNL     1       7.101   4.636  15.950  0.00  0.00    +0.000 C 
BRANCH  13  14
ATOM     14  O   UNL     1       7.858   4.139  16.953  0.00  0.00    +0.000 OA
ATOM     15  H   UNL     1       8.726   4.570  17.075  0.00  0.00    +0.000 HD
ENDBRANCH  13  14
ENDBRANCH  11  13
ENDBRANCH   1  11
BRANCH   7  16
ATOM     16  O   UNL     1       1.851   8.408  19.149  0.00  0.00    +0.000 OA
BRANCH  16  17
ATOM     17  C   UNL     1       1.330   9.305  18.164  0.00  0.00    +0.000 C 
BRANCH  17  18
ATOM     18  C   UNL     1       1.459  10.766  18.528  0.00  0.00    +0.000 A 
ATOM     19  C   UNL     1       2.425  11.593  17.942  0.00  0.00    +0.000 A 
ATOM     20  C   UNL     1       2.508  12.941  18.298  0.00  0.00    +0.000 A 
ATOM     21  C   UNL     1       1.632  13.470  19.244  0.00  0.00    +0.000 A 
ATOM     22 CL   UNL     1       1.733  15.133  19.669  0.00  0.00    +0.000 Cl
ATOM     23  C   UNL     1       0.673  12.663  19.845  0.00  0.00    +0.000 A 
ATOM     24  C   UNL     1       0.590  11.319  19.490  0.00  0.00    +0.000 A 
ATOM     25 CL   UNL     1      -0.621  10.362  20.277  0.00  0.00    +0.000 Cl
ENDBRANCH  17  18
ENDBRANCH  16  17
ENDBRANCH   7  16
TORSDOF 6
ENDMDL
MODEL 4
REMARK VINA RESULT:      -7.7      1.215      1.528
REMARK  Name = 
REMARK  6 active torsions:
REMARK  status: ('A' for Active; 'I' for Inactive)
REMARK    1  A    between atoms: C_2  and  O_3
REMARK    2  A    between atoms: C_2  and  C_4
REMARK    3  A    between atoms: C_4  and  C_5
REMARK    4  A    between atoms: C_11  and  O_12
REMARK    5  A    between atoms: O_12  and  C_13
REMARK    6  A    between atoms: C_13  and  C_14
REMARK                            x       y       z     vdW  Elec       q    Type
REMARK                         _______ _______ _______ _____ _____    ______ ____
ROOT
ATOM      1  C   UNL     1       4.815   4.232  16.987  0.00  0.00    +0.000 A 
ATOM      2  C   UNL     1       4.356   3.250  17.839  0.00  0.00    +0.000 A 
ATOM      3  O   UNL     1       3.477   3.760  18.729  0.00  0.00    +0.000 OA
ATOM      4  C   UNL     1       3.358   5.094  18.472  0.00  0.00    +0.000 A 
ATOM      5  C   UNL     1       2.538   5.979  19.177  0.00  0.00    +0.000 A 
ATOM      6 CL   UNL     1       1.691   5.347  20.540  0.00  0.00    +0.000 Cl
ATOM      7  C   UNL     1       2.515   7.313  18.721  0.00  0.00    +0.000 A 
ATOM      8  C   UNL     1       3.361   7.705  17.669  0.00  0.00    +0.000 A 
ATOM      9  C   UNL     1       4.193   6.790  17.000  0.00  0.00    +0.000 A 
ATOM     10  C   UNL     1       4.173   5.444  17.404  0.00  0.00    +0.000 A 
ENDROOT
BRANCH   1  11
ATOM     11  C   UNL     1       5.788   4.043  15.874  0.00  0.00    +0.000 C 
BRANCH  11  13
ATOM     12  O   UNL     1       7.909   4.332  16.961  0.00  0.00    +0.000 OA
ATOM     13  C   UNL     1       7.133   4.698  16.087  0.00  0.00    +0.000 C 
BRANCH  13  14
ATOM     14  O   UNL     1       7.475   5.666  15.208  0.00  0.00    +0.000 OA
ATOM     15  H   UNL     1       6.943   6.483  15.258  0.00  0.00    +0.000 HD
ENDBRANCH  13  14
ENDBRANCH  11  13
ENDBRANCH   1  11
BRANCH   7  16
ATOM     16  O   UNL     1       1.742   8.350  19.197  0.00  0.00    +0.000 OA
BRANCH  16  17
ATOM     17  C   UNL     1       1.665   9.501  18.351  0.00  0.00    +0.000 C 
BRANCH  17  18
ATOM     18  C   UNL     1       0.758  10.592  18.872  0.00  0.00    +0.000 A 
ATOM     19  C   UNL     1      -0.486  10.308  19.449  0.00  0.00    +0.000 A 
ATOM     20  C   UNL     1      -1.294  11.343  19.926  0.00  0.00    +0.000 A 
ATOM     21  C   UNL     1      -0.867  12.666  19.826  0.00  0.00    +0.000 A 
ATOM     22 CL   UNL     1      -1.862  13.934  20.427  0.00  0.00    +0.000 Cl
ATOM     23  C   UNL     1       0.359  12.969  19.247  0.00  0.00    +0.000 A 
ATOM     24  C   UNL     1       1.165  11.938  18.771  0.00  0.00    +0.000 A 
ATOM     25 CL   UNL     1       2.679  12.377  18.054  0.00  0.00    +0.000 Cl
ENDBRANCH  17  18
ENDBRANCH  16  17
ENDBRANCH   7  16
TORSDOF 6
ENDMDL
MODEL 5
REMARK VINA RESULT:      -7.6      1.195      1.825
REMARK  Name = 
REMARK  6 active torsions:
REMARK  status: ('A' for Active; 'I' for Inactive)
REMARK    1  A    between atoms: C_2  and  O_3
REMARK    2  A    between atoms: C_2  and  C_4
REMARK    3  A    between atoms: C_4  and  C_5
REMARK    4  A    between atoms: C_11  and  O_12
REMARK    5  A    between atoms: O_12  and  C_13
REMARK    6  A    between atoms: C_13  and  C_14
REMARK                            x       y       z     vdW  Elec       q    Type
REMARK                         _______ _______ _______ _____ _____    ______ ____
ROOT
ATOM      1  C   UNL     1       4.765   4.368  16.991  0.00  0.00    +0.000 A 
ATOM      2  C   UNL     1       4.359   3.380  17.863  0.00  0.00    +0.000 A 
ATOM      3  O   UNL     1       3.504   3.876  18.784  0.00  0.00    +0.000 OA
ATOM      4  C   UNL     1       3.348   5.206  18.528  0.00  0.00    +0.000 A 
ATOM      5  C   UNL     1       2.537   6.078  19.260  0.00  0.00    +0.000 A 
ATOM      6 CL   UNL     1       1.755   5.433  20.656  0.00  0.00    +0.000 Cl
ATOM      7  C   UNL     1       2.471   7.408  18.801  0.00  0.00    +0.000 A 
ATOM      8  C   UNL     1       3.268   7.814  17.717  0.00  0.00    +0.000 A 
ATOM      9  C   UNL     1       4.093   6.913  17.019  0.00  0.00    +0.000 A 
ATOM     10  C   UNL     1       4.115   5.568  17.428  0.00  0.00    +0.000 A 
ENDROOT
BRANCH   1  11
ATOM     11  C   UNL     1       5.700   4.194  15.843  0.00  0.00    +0.000 C 
BRANCH  11  13
ATOM     12  O   UNL     1       7.840   4.353  16.920  0.00  0.00    +0.000 OA
ATOM     13  C   UNL     1       7.081   4.771  16.054  0.00  0.00    +0.000 C 
BRANCH  13  14
ATOM     14  O   UNL     1       7.472   5.727  15.183  0.00  0.00    +0.000 OA
ATOM     15  H   UNL     1       7.694   6.590  15.581  0.00  0.00    +0.000 HD
ENDBRANCH  13  14
ENDBRANCH  11  13
ENDBRANCH   1  11
BRANCH   7  16
ATOM     16  O   UNL     1       1.695   8.432  19.302  0.00  0.00    +0.000 OA
BRANCH  16  17
ATOM     17  C   UNL     1       1.406   9.493  18.387  0.00  0.00    +0.000 C 
BRANCH  17  18
ATOM     18  C   UNL     1       0.563  10.602  18.973  0.00  0.00    +0.000 A 
ATOM     19  C   UNL     1       1.044  11.444  19.984  0.00  0.00    +0.000 A 
ATOM     20  C   UNL     1       0.237  12.463  20.495  0.00  0.00    +0.000 A 
ATOM     21  C   UNL     1      -1.054  12.646  20.004  0.00  0.00    +0.000 A 
ATOM     22 CL   UNL     1      -2.038  13.911  20.629  0.00  0.00    +0.000 Cl
ATOM     23  C   UNL     1      -1.554  11.815  19.009  0.00  0.00    +0.000 A 
ATOM     24  C   UNL     1      -0.750  10.798  18.499  0.00  0.00    +0.000 A 
ATOM     25 CL   UNL     1      -1.429   9.790  17.264  0.00  0.00    +0.000 Cl
ENDBRANCH  17  18
ENDBRANCH  16  17
ENDBRANCH   7  16
TORSDOF 6
ENDMDL
MODEL 6
REMARK VINA RESULT:      -7.5      1.616      1.971
REMARK  Name = 
REMARK  6 active torsions:
REMARK  status: ('A' for Active; 'I' for Inactive)
REMARK    1  A    between atoms: C_2  and  O_3
REMARK    2  A    between atoms: C_2  and  C_4
REMARK    3  A    between atoms: C_4  and  C_5
REMARK    4  A    between atoms: C_11  and  O_12
REMARK    5  A    between atoms: O_12  and  C_13
REMARK    6  A    between atoms: C_13  and  C_14
REMARK                            x       y       z     vdW  Elec       q    Type
REMARK                         _______ _______ _______ _____ _____    ______ ____
ROOT
ATOM      1  C   UNL     1       4.342   4.095  17.224  0.00  0.00    +0.000 A 
ATOM      2  C   UNL     1       4.012   2.853  17.722  0.00  0.00    +0.000 A 
ATOM      3  O   UNL     1       3.156   2.966  18.762  0.00  0.00    +0.000 OA
ATOM      4  C   UNL     1       2.924   4.295  18.962  0.00  0.00    +0.000 A 
ATOM      5  C   UNL     1       2.088   4.826  19.948  0.00  0.00    +0.000 A 
ATOM      6 CL   UNL     1       1.378   3.713  21.058  0.00  0.00    +0.000 Cl
ATOM      7  C   UNL     1       1.939   6.228  19.956  0.00  0.00    +0.000 A 
ATOM      8  C   UNL     1       2.685   7.014  19.061  0.00  0.00    +0.000 A 
ATOM      9  C   UNL     1       3.537   6.444  18.098  0.00  0.00    +0.000 A 
ATOM     10  C   UNL     1       3.641   5.044  18.038  0.00  0.00    +0.000 A 
ENDROOT
BRANCH   1  11
ATOM     11  C   UNL     1       5.253   4.365  16.076  0.00  0.00    +0.000 C 
BRANCH  11  13
ATOM     12  O   UNL     1       7.103   4.463  17.602  0.00  0.00    +0.000 OA
ATOM     13  C   UNL     1       6.707   4.544  16.447  0.00  0.00    +0.000 C 
BRANCH  13  14
ATOM     14  O   UNL     1       7.571   4.724  15.422  0.00  0.00    +0.000 OA
ATOM     15  H   UNL     1       7.545   5.606  15.004  0.00  0.00    +0.000 HD
ENDBRANCH  13  14
ENDBRANCH  11  13
ENDBRANCH   1  11
BRANCH   7  16
ATOM     16  O   UNL     1       1.125   6.981  20.774  0.00  0.00    +0.000 OA
BRANCH  16  17
ATOM     17  C   UNL     1       1.621   8.278  21.116  0.00  0.00    +0.000 C 
BRANCH  17  18
ATOM     18  C   UNL     1       0.656   9.406  20.829  0.00  0.00    +0.000 A 
ATOM     19  C   UNL     1       0.450   9.893  19.532  0.00  0.00    +0.000 A 
ATOM     20  C   UNL     1      -0.456  10.932  19.306  0.00  0.00    +0.000 A 
ATOM     21  C   UNL     1      -1.157  11.493  20.372  0.00  0.00    +0.000 A 
ATOM     22 CL   UNL     1      -2.280  12.763  20.085  0.00  0.00    +0.000 Cl
ATOM     23  C   UNL     1      -0.958  11.031  21.668  0.00  0.00    +0.000 A 
ATOM     24  C   UNL     1      -0.055   9.995  21.894  0.00  0.00    +0.000 A 
ATOM     25 CL   UNL     1       0.155   9.466  23.529  0.00  0.00    +0.000 Cl
ENDBRANCH  17  18
ENDBRANCH  16  17
ENDBRANCH   7  16
TORSDOF 6
ENDMDL
MODEL 7
REMARK VINA RESULT:      -7.3      1.072      1.391
REMARK  Name = 
REMARK  6 active torsions:
REMARK  status: ('A' for Active; 'I' for Inactive)
REMARK    1  A    between atoms: C_2  and  O_3
REMARK    2  A    between atoms: C_2  and  C_4
REMARK    3  A    between atoms: C_4  and  C_5
REMARK    4  A    between atoms: C_11  and  O_12
REMARK    5  A    between atoms: O_12  and  C_13
REMARK    6  A    between atoms: C_13  and  C_14
REMARK                            x       y       z     vdW  Elec       q    Type
REMARK                         _______ _______ _______ _____ _____    ______ ____
ROOT
ATOM      1  C   UNL     1       4.787   4.034  16.923  0.00  0.00    +0.000 A 
ATOM      2  C   UNL     1       4.302   2.939  17.605  0.00  0.00    +0.000 A 
ATOM      3  O   UNL     1       3.384   3.313  18.523  0.00  0.00    +0.000 OA
ATOM      4  C   UNL     1       3.267   4.670  18.458  0.00  0.00    +0.000 A 
ATOM      5  C   UNL     1       2.412   5.444  19.250  0.00  0.00    +0.000 A 
ATOM      6 CL   UNL     1       1.516   4.620  20.471  0.00  0.00    +0.000 Cl
ATOM      7  C   UNL     1       2.399   6.829  18.991  0.00  0.00    +0.000 A 
ATOM      8  C   UNL     1       3.284   7.370  18.041  0.00  0.00    +0.000 A 
ATOM      9  C   UNL     1       4.148   6.562  17.281  0.00  0.00    +0.000 A 
ATOM     10  C   UNL     1       4.121   5.172  17.485  0.00  0.00    +0.000 A 
ENDROOT
BRANCH   1  11
ATOM     11  C   UNL     1       5.805   4.009  15.836  0.00  0.00    +0.000 C 
BRANCH  11  13
ATOM     12  O   UNL     1       7.915   4.171  16.969  0.00  0.00    +0.000 OA
ATOM     13  C   UNL     1       7.121   4.668  16.180  0.00  0.00    +0.000 C 
BRANCH  13  14
ATOM     14  O   UNL     1       7.417   5.804  15.511  0.00  0.00    +0.000 OA
ATOM     15  H   UNL     1       6.823   6.559  15.685  0.00  0.00    +0.000 HD
ENDBRANCH  13  14
ENDBRANCH  11  13
ENDBRANCH   1  11
BRANCH   7  16
ATOM     16  O   UNL     1       1.601   7.786  19.579  0.00  0.00    +0.000 OA
BRANCH  16  17
ATOM     17  C   UNL     1       1.624   9.076  18.962  0.00  0.00    +0.000 C 
BRANCH  17  18
ATOM     18  C   UNL     1       0.542  10.014  19.446  0.00  0.00    +0.000 A 
ATOM     19  C   UNL     1      -0.290  10.706  18.558  0.00  0.00    +0.000 A 
ATOM     20  C   UNL     1      -1.284  11.558  19.044  0.00  0.00    +0.000 A 
ATOM     21  C   UNL     1      -1.450  11.728  20.417  0.00  0.00    +0.000 A 
ATOM     22 CL   UNL     1      -2.684  12.771  21.008  0.00  0.00    +0.000 Cl
ATOM     23  C   UNL     1      -0.627  11.060  21.315  0.00  0.00    +0.000 A 
ATOM     24  C   UNL     1       0.365  10.209  20.831  0.00  0.00    +0.000 A 
ATOM     25 CL   UNL     1       1.364   9.407  21.996  0.00  0.00    +0.000 Cl
ENDBRANCH  17  18
ENDBRANCH  16  17
ENDBRANCH   7  16
TORSDOF 6
ENDMDL
MODEL 8
REMARK VINA RESULT:      -7.2      2.090      2.617
REMARK  Name = 
REMARK  6 active torsions:
REMARK  status: ('A' for Active; 'I' for Inactive)
REMARK    1  A    between atoms: C_2  and  O_3
REMARK    2  A    between atoms: C_2  and  C_4
REMARK    3  A    between atoms: C_4  and  C_5
REMARK    4  A    between atoms: C_11  and  O_12
REMARK    5  A    between atoms: O_12  and  C_13
REMARK    6  A    between atoms: C_13  and  C_14
REMARK                            x       y       z     vdW  Elec       q    Type
REMARK                         _______ _______ _______ _____ _____    ______ ____
ROOT
ATOM      1  C   UNL     1       4.579   3.868  17.276  0.00  0.00    +0.000 A 
ATOM      2  C   UNL     1       3.889   2.701  17.529  0.00  0.00    +0.000 A 
ATOM      3  O   UNL     1       2.893   2.916  18.415  0.00  0.00    +0.000 OA
ATOM      4  C   UNL     1       2.927   4.235  18.762  0.00  0.00    +0.000 A 
ATOM      5  C   UNL     1       2.052   4.855  19.659  0.00  0.00    +0.000 A 
ATOM      6 CL   UNL     1       0.908   3.844  20.462  0.00  0.00    +0.000 Cl
ATOM      7  C   UNL     1       2.221   6.242  19.843  0.00  0.00    +0.000 A 
ATOM      8  C   UNL     1       3.284   6.906  19.208  0.00  0.00    +0.000 A 
ATOM      9  C   UNL     1       4.161   6.243  18.331  0.00  0.00    +0.000 A 
ATOM     10  C   UNL     1       3.960   4.873  18.089  0.00  0.00    +0.000 A 
ENDROOT
BRANCH   1  11
ATOM     11  C   UNL     1       5.736   4.018  16.349  0.00  0.00    +0.000 C 
BRANCH  11  13
ATOM     12  O   UNL     1       5.522   6.090  15.155  0.00  0.00    +0.000 OA
ATOM     13  C   UNL     1       5.466   4.867  15.128  0.00  0.00    +0.000 C 
BRANCH  13  14
ATOM     14  O   UNL     1       5.234   4.203  13.974  0.00  0.00    +0.000 OA
ATOM     15  H   UNL     1       5.456   3.251  13.988  0.00  0.00    +0.000 HD
ENDBRANCH  13  14
ENDBRANCH  11  13
ENDBRANCH   1  11
BRANCH   7  16
ATOM     16  O   UNL     1       1.449   7.087  20.611  0.00  0.00    +0.000 OA
BRANCH  16  17
ATOM     17  C   UNL     1       1.504   8.471  20.253  0.00  0.00    +0.000 C 
BRANCH  17  18
ATOM     18  C   UNL     1       0.581   9.356  21.059  0.00  0.00    +0.000 A 
ATOM     19  C   UNL     1       0.328   9.121  22.416  0.00  0.00    +0.000 A 
ATOM     20  C   UNL     1      -0.526   9.966  23.129  0.00  0.00    +0.000 A 
ATOM     21  C   UNL     1      -1.135  11.045  22.492  0.00  0.00    +0.000 A 
ATOM     22 CL   UNL     1      -2.176  12.088  23.379  0.00  0.00    +0.000 Cl
ATOM     23  C   UNL     1      -0.905  11.288  21.143  0.00  0.00    +0.000 A 
ATOM     24  C   UNL     1      -0.054  10.446  20.431  0.00  0.00    +0.000 A 
ATOM     25 CL   UNL     1       0.190  10.795  18.753  0.00  0.00    +0.000 Cl
ENDBRANCH  17  18
ENDBRANCH  16  17
ENDBRANCH   7  16
TORSDOF 6
ENDMDL
MODEL 9
REMARK VINA RESULT:      -7.2      1.981      2.076
REMARK  Name = 
REMARK  6 active torsions:
REMARK  status: ('A' for Active; 'I' for Inactive)
REMARK    1  A    between atoms: C_2  and  O_3
REMARK    2  A    between atoms: C_2  and  C_4
REMARK    3  A    between atoms: C_4  and  C_5
REMARK    4  A    between atoms: C_11  and  O_12
REMARK    5  A    between atoms: O_12  and  C_13
REMARK    6  A    between atoms: C_13  and  C_14
REMARK                            x       y       z     vdW  Elec       q    Type
REMARK                         _______ _______ _______ _____ _____    ______ ____
ROOT
ATOM      1  C   UNL     1       5.948   4.854  18.052  0.00  0.00    +0.000 A 
ATOM      2  C   UNL     1       5.536   4.057  19.098  0.00  0.00    +0.000 A 
ATOM      3  O   UNL     1       4.355   4.487  19.592  0.00  0.00    +0.000 OA
ATOM      4  C   UNL     1       3.983   5.585  18.874  0.00  0.00    +0.000 A 
ATOM      5  C   UNL     1       2.813   6.322  19.077  0.00  0.00    +0.000 A 
ATOM      6 CL   UNL     1       1.817   5.860  20.408  0.00  0.00    +0.000 Cl
ATOM      7  C   UNL     1       2.584   7.394  18.192  0.00  0.00    +0.000 A 
ATOM      8  C   UNL     1       3.556   7.725  17.231  0.00  0.00    +0.000 A 
ATOM      9  C   UNL     1       4.735   6.975  17.073  0.00  0.00    +0.000 A 
ATOM     10  C   UNL     1       4.940   5.863  17.907  0.00  0.00    +0.000 A 
ENDROOT
BRANCH   1  11
ATOM     11  C   UNL     1       7.198   4.683  17.258  0.00  0.00    +0.000 C 
BRANCH  11  13
ATOM     12  O   UNL     1       7.443   5.174  14.921  0.00  0.00    +0.000 OA
ATOM     13  C   UNL     1       6.985   4.433  15.783  0.00  0.00    +0.000 C 
BRANCH  13  14
ATOM     14  O   UNL     1       6.326   3.301  15.454  0.00  0.00    +0.000 OA
ATOM     15  H   UNL     1       5.354   3.378  15.418  0.00  0.00    +0.000 HD
ENDBRANCH  13  14
ENDBRANCH  11  13
ENDBRANCH   1  11
BRANCH   7  16
ATOM     16  O   UNL     1       1.482   8.220  18.139  0.00  0.00    +0.000 OA
BRANCH  16  17
ATOM     17  C   UNL     1       1.758   9.623  18.152  0.00  0.00    +0.000 C 
BRANCH  17  18
ATOM     18  C   UNL     1       1.086  10.376  19.276  0.00  0.00    +0.000 A 
ATOM     19  C   UNL     1       0.256   9.736  20.205  0.00  0.00    +0.000 A 
ATOM     20  C   UNL     1      -0.342  10.465  21.235  0.00  0.00    +0.000 A 
ATOM     21  C   UNL     1      -0.120  11.837  21.341  0.00  0.00    +0.000 A 
ATOM     22 CL   UNL     1      -0.850  12.726  22.620  0.00  0.00    +0.000 Cl
ATOM     23  C   UNL     1       0.691  12.493  20.423  0.00  0.00    +0.000 A 
ATOM     24  C   UNL     1       1.288  11.766  19.395  0.00  0.00    +0.000 A 
ATOM     25 CL   UNL     1       2.283  12.638  18.278  0.00  0.00    +0.000 Cl
ENDBRANCH  17  18
ENDBRANCH  16  17
ENDBRANCH   7  16
TORSDOF 6
ENDMDL
