MODEL 1
REMARK VINA RESULT:      -7.6      0.000      0.000
REMARK  Name = 
REMARK  3 active torsions:
REMARK  status: ('A' for Active; 'I' for Inactive)
REMARK    1  A    between atoms: C_2  and  C_4
REMARK    2  A    between atoms: C_9  and  C_10
REMARK    3  A    between atoms: C_10  and  C_11
REMARK                            x       y       z     vdW  Elec       q    Type
REMARK                         _______ _______ _______ _____ _____    ______ ____
ROOT
ATOM      1  C   UNL     1      -0.458  11.211  19.217  0.00  0.00    +0.000 A 
ATOM      2  C   UNL     1      -0.525  10.991  20.595  0.00  0.00    +0.000 A 
ATOM      3  C   UNL     1       0.166   9.929  21.191  0.00  0.00    +0.000 A 
ATOM      4  C   UNL     1       0.929   9.104  20.354  0.00  0.00    +0.000 A 
ATOM      5  N   UNL     1       1.699   8.000  20.650  0.00  0.00    +0.000 N 
ATOM      6  C   UNL     1       2.271   7.492  19.508  0.00  0.00    +0.000 A 
ATOM      7  C   UNL     1       1.880   8.302  18.461  0.00  0.00    +0.000 A 
ATOM      8  C   UNL     1       1.026   9.311  18.979  0.00  0.00    +0.000 A 
ATOM      9  C   UNL     1       0.325  10.383  18.398  0.00  0.00    +0.000 A 
ATOM     10  H   UNL     1       1.813   7.619  21.579  0.00  0.00    +0.000 HD
ENDROOT
BRANCH   1  12
ATOM     11  N   UNL     1      -1.287  12.444  17.319  0.00  0.00    +0.000 NA
ATOM     12  C   UNL     1      -1.226  12.333  18.606  0.00  0.00    +0.000 C 
ATOM     13  N   UNL     1      -1.847  13.254  19.403  0.00  0.00    +0.000 N 
ATOM     14  H   UNL     1      -1.882  13.235  17.070  0.00  0.00    +0.000 HD
ATOM     15  H   UNL     1      -2.052  14.143  18.965  0.00  0.00    +0.000 HD
ATOM     16  H   UNL     1      -1.432  13.380  20.321  0.00  0.00    +0.000 HD
ENDBRANCH   1  12
BRANCH   6  17
ATOM     17  C   UNL     1       3.145   6.281  19.520  0.00  0.00    +0.000 C 
BRANCH  17  18
ATOM     18  C   UNL     1       2.371   4.999  19.319  0.00  0.00    +0.000 A 
ATOM     19  C   UNL     1       2.420   4.324  18.090  0.00  0.00    +0.000 A 
ATOM     20  C   UNL     1       1.706   3.138  17.903  0.00  0.00    +0.000 A 
ATOM     21  C   UNL     1       0.930   2.620  18.938  0.00  0.00    +0.000 A 
ATOM     22  C   UNL     1       0.862   3.290  20.158  0.00  0.00    +0.000 A 
ATOM     23  C   UNL     1       1.576   4.475  20.349  0.00  0.00    +0.000 A 
ENDBRANCH  17  18
ENDBRANCH   6  17
TORSDOF 3
ENDMDL
MODEL 2
REMARK VINA RESULT:      -7.6      0.081      1.336
REMARK  Name = 
REMARK  3 active torsions:
REMARK  status: ('A' for Active; 'I' for Inactive)
REMARK    1  A    between atoms: C_2  and  C_4
REMARK    2  A    between atoms: C_9  and  C_10
REMARK    3  A    between atoms: C_10  and  C_11
REMARK                            x       y       z     vdW  Elec       q    Type
REMARK                         _______ _______ _______ _____ _____    ______ ____
ROOT
ATOM      1  C   UNL     1      -0.448  11.203  19.216  0.00  0.00    +0.000 A 
ATOM      2  C   UNL     1      -0.466  11.000  20.598  0.00  0.00    +0.000 A 
ATOM      3  C   UNL     1       0.243   9.943  21.182  0.00  0.00    +0.000 A 
ATOM      4  C   UNL     1       0.975   9.106  20.330  0.00  0.00    +0.000 A 
ATOM      5  N   UNL     1       1.752   8.004  20.611  0.00  0.00    +0.000 N 
ATOM      6  C   UNL     1       2.282   7.481  19.456  0.00  0.00    +0.000 A 
ATOM      7  C   UNL     1       1.856   8.279  18.414  0.00  0.00    +0.000 A 
ATOM      8  C   UNL     1       1.023   9.296  18.950  0.00  0.00    +0.000 A 
ATOM      9  C   UNL     1       0.304  10.363  18.380  0.00  0.00    +0.000 A 
ATOM     10  H   UNL     1       1.898   7.634  21.541  0.00  0.00    +0.000 HD
ENDROOT
BRANCH   1  12
ATOM     11  N   UNL     1      -1.979  13.057  19.375  0.00  0.00    +0.000 NA
ATOM     12  C   UNL     1      -1.234  12.320  18.619  0.00  0.00    +0.000 C 
ATOM     13  N   UNL     1      -1.183  12.551  17.272  0.00  0.00    +0.000 N 
ATOM     14  H   UNL     1      -2.412  13.794  18.817  0.00  0.00    +0.000 HD
ATOM     15  H   UNL     1      -1.961  13.073  16.889  0.00  0.00    +0.000 HD
ATOM     16  H   UNL     1      -0.963  11.740  16.703  0.00  0.00    +0.000 HD
ENDBRANCH   1  12
BRANCH   6  17
ATOM     17  C   UNL     1       3.153   6.268  19.453  0.00  0.00    +0.000 C 
BRANCH  17  18
ATOM     18  C   UNL     1       2.371   4.987  19.273  0.00  0.00    +0.000 A 
ATOM     19  C   UNL     1       1.575   4.487  20.314  0.00  0.00    +0.000 A 
ATOM     20  C   UNL     1       0.851   3.304  20.149  0.00  0.00    +0.000 A 
ATOM     21  C   UNL     1       0.922   2.605  18.946  0.00  0.00    +0.000 A 
ATOM     22  C   UNL     1       1.721   3.084  17.909  0.00  0.00    +0.000 A 
ATOM     23  C   UNL     1       2.444   4.268  18.071  0.00  0.00    +0.000 A 
ENDBRANCH  17  18
ENDBRANCH   6  17
TORSDOF 3
ENDMDL
MODEL 3
REMARK VINA RESULT:      -7.4      2.549      3.517
REMARK  Name = 
REMARK  3 active torsions:
REMARK  status: ('A' for Active; 'I' for Inactive)
REMARK    1  A    between atoms: C_2  and  C_4
REMARK    2  A    between atoms: C_9  and  C_10
REMARK    3  A    between atoms: C_10  and  C_11
REMARK                            x       y       z     vdW  Elec       q    Type
REMARK                         _______ _______ _______ _____ _____    ______ ____
ROOT
ATOM      1  C   UNL     1       0.985   9.715  18.967  0.00  0.00    +0.000 A 
ATOM      2  C   UNL     1       0.797   9.381  20.310  0.00  0.00    +0.000 A 
ATOM      3  C   UNL     1       1.342   8.209  20.846  0.00  0.00    +0.000 A 
ATOM      4  C   UNL     1       2.088   7.391  19.987  0.00  0.00    +0.000 A 
ATOM      5  N   UNL     1       2.730   6.196  20.226  0.00  0.00    +0.000 N 
ATOM      6  C   UNL     1       3.338   5.738  19.081  0.00  0.00    +0.000 A 
ATOM      7  C   UNL     1       3.101   6.672  18.093  0.00  0.00    +0.000 A 
ATOM      8  C   UNL     1       2.305   7.708  18.647  0.00  0.00    +0.000 A 
ATOM      9  C   UNL     1       1.749   8.891  18.126  0.00  0.00    +0.000 A 
ATOM     10  H   UNL     1       2.740   5.725  21.120  0.00  0.00    +0.000 HD
ENDROOT
BRANCH   1  12
ATOM     11  N   UNL     1      -0.810  10.909  17.889  0.00  0.00    +0.000 NA
ATOM     12  C   UNL     1       0.370  10.956  18.416  0.00  0.00    +0.000 C 
ATOM     13  N   UNL     1       1.059  12.137  18.450  0.00  0.00    +0.000 N 
ATOM     14  H   UNL     1      -1.095  11.846  17.601  0.00  0.00    +0.000 HD
ATOM     15  H   UNL     1       0.755  12.839  17.787  0.00  0.00    +0.000 HD
ATOM     16  H   UNL     1       2.070  12.047  18.458  0.00  0.00    +0.000 HD
ENDBRANCH   1  12
BRANCH   6  17
ATOM     17  C   UNL     1       4.095   4.452  19.036  0.00  0.00    +0.000 C 
BRANCH  17  18
ATOM     18  C   UNL     1       5.146   4.430  17.950  0.00  0.00    +0.000 A 
ATOM     19  C   UNL     1       4.827   3.980  16.660  0.00  0.00    +0.000 A 
ATOM     20  C   UNL     1       5.796   3.960  15.656  0.00  0.00    +0.000 A 
ATOM     21  C   UNL     1       7.096   4.381  15.932  0.00  0.00    +0.000 A 
ATOM     22  C   UNL     1       7.428   4.816  17.214  0.00  0.00    +0.000 A 
ATOM     23  C   UNL     1       6.460   4.839  18.219  0.00  0.00    +0.000 A 
ENDBRANCH  17  18
ENDBRANCH   6  17
TORSDOF 3
ENDMDL
MODEL 4
REMARK VINA RESULT:      -7.4      2.153      2.982
REMARK  Name = 
REMARK  3 active torsions:
REMARK  status: ('A' for Active; 'I' for Inactive)
REMARK    1  A    between atoms: C_2  and  C_4
REMARK    2  A    between atoms: C_9  and  C_10
REMARK    3  A    between atoms: C_10  and  C_11
REMARK                            x       y       z     vdW  Elec       q    Type
REMARK                         _______ _______ _______ _____ _____    ______ ____
ROOT
ATOM      1  C   UNL     1       0.326   9.700  21.465  0.00  0.00    +0.000 A 
ATOM      2  C   UNL     1       0.247  10.478  20.308  0.00  0.00    +0.000 A 
ATOM      3  C   UNL     1       0.849  10.062  19.114  0.00  0.00    +0.000 A 
ATOM      4  C   UNL     1       1.525   8.835  19.125  0.00  0.00    +0.000 A 
ATOM      5  N   UNL     1       2.205   8.182  18.121  0.00  0.00    +0.000 N 
ATOM      6  C   UNL     1       2.724   6.996  18.583  0.00  0.00    +0.000 A 
ATOM      7  C   UNL     1       2.349   6.875  19.905  0.00  0.00    +0.000 A 
ATOM      8  C   UNL     1       1.606   8.032  20.261  0.00  0.00    +0.000 A 
ATOM      9  C   UNL     1       0.995   8.466  21.451  0.00  0.00    +0.000 A 
ATOM     10  H   UNL     1       2.309   8.537  17.180  0.00  0.00    +0.000 HD
ENDROOT
BRANCH   1  12
ATOM     11  N   UNL     1      -0.126   9.518  23.825  0.00  0.00    +0.000 NA
ATOM     12  C   UNL     1      -0.302  10.180  22.729  0.00  0.00    +0.000 C 
ATOM     13  N   UNL     1      -1.076  11.307  22.725  0.00  0.00    +0.000 N 
ATOM     14  H   UNL     1      -0.586  10.003  24.597  0.00  0.00    +0.000 HD
ATOM     15  H   UNL     1      -1.726  11.392  23.496  0.00  0.00    +0.000 HD
ATOM     16  H   UNL     1      -1.520  11.522  21.838  0.00  0.00    +0.000 HD
ENDBRANCH   1  12
BRANCH   6  17
ATOM     17  C   UNL     1       3.528   6.083  17.718  0.00  0.00    +0.000 C 
BRANCH  17  18
ATOM     18  C   UNL     1       3.318   4.624  18.052  0.00  0.00    +0.000 A 
ATOM     19  C   UNL     1       2.130   3.974  17.686  0.00  0.00    +0.000 A 
ATOM     20  C   UNL     1       1.935   2.626  17.993  0.00  0.00    +0.000 A 
ATOM     21  C   UNL     1       2.921   1.917  18.677  0.00  0.00    +0.000 A 
ATOM     22  C   UNL     1       4.099   2.556  19.060  0.00  0.00    +0.000 A 
ATOM     23  C   UNL     1       4.297   3.903  18.751  0.00  0.00    +0.000 A 
ENDBRANCH  17  18
ENDBRANCH   6  17
TORSDOF 3
ENDMDL
MODEL 5
REMARK VINA RESULT:      -7.4      4.993      7.685
REMARK  Name = 
REMARK  3 active torsions:
REMARK  status: ('A' for Active; 'I' for Inactive)
REMARK    1  A    between atoms: C_2  and  C_4
REMARK    2  A    between atoms: C_9  and  C_10
REMARK    3  A    between atoms: C_10  and  C_11
REMARK                            x       y       z     vdW  Elec       q    Type
REMARK                         _______ _______ _______ _____ _____    ______ ____
ROOT
ATOM      1  C   UNL     1       2.679   3.845  19.878  0.00  0.00    +0.000 A 
ATOM      2  C   UNL     1       1.985   4.919  19.316  0.00  0.00    +0.000 A 
ATOM      3  C   UNL     1       2.551   5.687  18.292  0.00  0.00    +0.000 A 
ATOM      4  C   UNL     1       3.833   5.334  17.851  0.00  0.00    +0.000 A 
ATOM      5  N   UNL     1       4.631   5.898  16.880  0.00  0.00    +0.000 N 
ATOM      6  C   UNL     1       5.825   5.225  16.787  0.00  0.00    +0.000 A 
ATOM      7  C   UNL     1       5.783   4.192  17.700  0.00  0.00    +0.000 A 
ATOM      8  C   UNL     1       4.541   4.258  18.385  0.00  0.00    +0.000 A 
ATOM      9  C   UNL     1       3.956   3.496  19.412  0.00  0.00    +0.000 A 
ATOM     10  H   UNL     1       4.368   6.702  16.325  0.00  0.00    +0.000 HD
ENDROOT
BRANCH   1  12
ATOM     11  N   UNL     1       2.809   2.578  21.925  0.00  0.00    +0.000 NA
ATOM     12  C   UNL     1       2.062   3.060  20.986  0.00  0.00    +0.000 C 
ATOM     13  N   UNL     1       0.714   2.834  20.999  0.00  0.00    +0.000 N 
ATOM     14  H   UNL     1       2.228   2.107  22.619  0.00  0.00    +0.000 HD
ATOM     15  H   UNL     1       0.409   2.045  21.556  0.00  0.00    +0.000 HD
ATOM     16  H   UNL     1       0.267   2.840  20.088  0.00  0.00    +0.000 HD
ENDBRANCH   1  12
BRANCH   6  17
ATOM     17  C   UNL     1       6.898   5.626  15.829  0.00  0.00    +0.000 C 
BRANCH  17  18
ATOM     18  C   UNL     1       6.764   4.952  14.483  0.00  0.00    +0.000 A 
ATOM     19  C   UNL     1       5.732   4.031  14.249  0.00  0.00    +0.000 A 
ATOM     20  C   UNL     1       5.605   3.408  13.006  0.00  0.00    +0.000 A 
ATOM     21  C   UNL     1       6.513   3.693  11.987  0.00  0.00    +0.000 A 
ATOM     22  C   UNL     1       7.551   4.595  12.213  0.00  0.00    +0.000 A 
ATOM     23  C   UNL     1       7.678   5.221  13.455  0.00  0.00    +0.000 A 
ENDBRANCH  17  18
ENDBRANCH   6  17
TORSDOF 3
ENDMDL
MODEL 6
REMARK VINA RESULT:      -7.3      2.105      2.940
REMARK  Name = 
REMARK  3 active torsions:
REMARK  status: ('A' for Active; 'I' for Inactive)
REMARK    1  A    between atoms: C_2  and  C_4
REMARK    2  A    between atoms: C_9  and  C_10
REMARK    3  A    between atoms: C_10  and  C_11
REMARK                            x       y       z     vdW  Elec       q    Type
REMARK                         _______ _______ _______ _____ _____    ______ ____
ROOT
ATOM      1  C   UNL     1       0.290   9.804  21.464  0.00  0.00    +0.000 A 
ATOM      2  C   UNL     1       0.178  10.556  20.292  0.00  0.00    +0.000 A 
ATOM      3  C   UNL     1       0.760  10.119  19.096  0.00  0.00    +0.000 A 
ATOM      4  C   UNL     1       1.451   8.901  19.120  0.00  0.00    +0.000 A 
ATOM      5  N   UNL     1       2.118   8.232  18.117  0.00  0.00    +0.000 N 
ATOM      6  C   UNL     1       2.661   7.064  18.595  0.00  0.00    +0.000 A 
ATOM      7  C   UNL     1       2.315   6.969  19.928  0.00  0.00    +0.000 A 
ATOM      8  C   UNL     1       1.565   8.124  20.272  0.00  0.00    +0.000 A 
ATOM      9  C   UNL     1       0.973   8.578  21.464  0.00  0.00    +0.000 A 
ATOM     10  H   UNL     1       2.199   8.567  17.167  0.00  0.00    +0.000 HD
ENDROOT
BRANCH   1  12
ATOM     11  N   UNL     1      -0.059   9.710  23.847  0.00  0.00    +0.000 NA
ATOM     12  C   UNL     1      -0.318  10.306  22.729  0.00  0.00    +0.000 C 
ATOM     13  N   UNL     1      -1.162  11.382  22.706  0.00  0.00    +0.000 N 
ATOM     14  H   UNL     1      -0.518  10.203  24.614  0.00  0.00    +0.000 HD
ATOM     15  H   UNL     1      -1.786  11.464  23.498  0.00  0.00    +0.000 HD
ATOM     16  H   UNL     1      -1.653  11.526  21.829  0.00  0.00    +0.000 HD
ENDBRANCH   1  12
BRANCH   6  17
ATOM     17  C   UNL     1       3.459   6.140  17.735  0.00  0.00    +0.000 C 
BRANCH  17  18
ATOM     18  C   UNL     1       3.220   4.684  18.061  0.00  0.00    +0.000 A 
ATOM     19  C   UNL     1       4.242   3.904  18.624  0.00  0.00    +0.000 A 
ATOM     20  C   UNL     1       4.023   2.559  18.928  0.00  0.00    +0.000 A 
ATOM     21  C   UNL     1       2.784   1.977  18.664  0.00  0.00    +0.000 A 
ATOM     22  C   UNL     1       1.766   2.738  18.092  0.00  0.00    +0.000 A 
ATOM     23  C   UNL     1       1.982   4.084  17.790  0.00  0.00    +0.000 A 
ENDBRANCH  17  18
ENDBRANCH   6  17
TORSDOF 3
ENDMDL
MODEL 7
REMARK VINA RESULT:      -7.3      4.196      7.704
REMARK  Name = 
REMARK  3 active torsions:
REMARK  status: ('A' for Active; 'I' for Inactive)
REMARK    1  A    between atoms: C_2  and  C_4
REMARK    2  A    between atoms: C_9  and  C_10
REMARK    3  A    between atoms: C_10  and  C_11
REMARK                            x       y       z     vdW  Elec       q    Type
REMARK                         _______ _______ _______ _____ _____    ______ ____
ROOT
ATOM      1  C   UNL     1       6.359   4.737  15.669  0.00  0.00    +0.000 A 
ATOM      2  C   UNL     1       7.260   4.768  16.736  0.00  0.00    +0.000 A 
ATOM      3  C   UNL     1       6.819   4.987  18.047  0.00  0.00    +0.000 A 
ATOM      4  C   UNL     1       5.444   5.166  18.246  0.00  0.00    +0.000 A 
ATOM      5  N   UNL     1       4.731   5.400  19.401  0.00  0.00    +0.000 N 
ATOM      6  C   UNL     1       3.391   5.519  19.125  0.00  0.00    +0.000 A 
ATOM      7  C   UNL     1       3.237   5.334  17.766  0.00  0.00    +0.000 A 
ATOM      8  C   UNL     1       4.522   5.125  17.201  0.00  0.00    +0.000 A 
ATOM      9  C   UNL     1       4.983   4.903  15.891  0.00  0.00    +0.000 A 
ATOM     10  H   UNL     1       5.148   5.479  20.319  0.00  0.00    +0.000 HD
ENDROOT
BRANCH   1  12
ATOM     11  N   UNL     1       7.763   5.319  13.798  0.00  0.00    +0.000 NA
ATOM     12  C   UNL     1       6.859   4.529  14.280  0.00  0.00    +0.000 C 
ATOM     13  N   UNL     1       6.350   3.519  13.512  0.00  0.00    +0.000 N 
ATOM     14  H   UNL     1       8.020   5.013  12.858  0.00  0.00    +0.000 HD
ATOM     15  H   UNL     1       6.467   3.630  12.513  0.00  0.00    +0.000 HD
ATOM     16  H   UNL     1       5.405   3.234  13.746  0.00  0.00    +0.000 HD
ENDBRANCH   1  12
BRANCH   6  17
ATOM     17  C   UNL     1       2.376   5.794  20.185  0.00  0.00    +0.000 C 
BRANCH  17  18
ATOM     18  C   UNL     1       1.833   7.203  20.124  0.00  0.00    +0.000 A 
ATOM     19  C   UNL     1       1.139   7.747  21.215  0.00  0.00    +0.000 A 
ATOM     20  C   UNL     1       0.638   9.049  21.161  0.00  0.00    +0.000 A 
ATOM     21  C   UNL     1       0.819   9.818  20.013  0.00  0.00    +0.000 A 
ATOM     22  C   UNL     1       1.494   9.285  18.917  0.00  0.00    +0.000 A 
ATOM     23  C   UNL     1       1.998   7.983  18.970  0.00  0.00    +0.000 A 
ENDBRANCH  17  18
ENDBRANCH   6  17
TORSDOF 3
ENDMDL
MODEL 8
REMARK VINA RESULT:      -7.3      2.560      3.621
REMARK  Name = 
REMARK  3 active torsions:
REMARK  status: ('A' for Active; 'I' for Inactive)
REMARK    1  A    between atoms: C_2  and  C_4
REMARK    2  A    between atoms: C_9  and  C_10
REMARK    3  A    between atoms: C_10  and  C_11
REMARK                            x       y       z     vdW  Elec       q    Type
REMARK                         _______ _______ _______ _____ _____    ______ ____
ROOT
ATOM      1  C   UNL     1       1.096   9.739  19.225  0.00  0.00    +0.000 A 
ATOM      2  C   UNL     1       0.872   9.305  20.534  0.00  0.00    +0.000 A 
ATOM      3  C   UNL     1       1.344   8.062  20.973  0.00  0.00    +0.000 A 
ATOM      4  C   UNL     1       2.053   7.277  20.054  0.00  0.00    +0.000 A 
ATOM      5  N   UNL     1       2.623   6.032  20.196  0.00  0.00    +0.000 N 
ATOM      6  C   UNL     1       3.218   5.637  19.021  0.00  0.00    +0.000 A 
ATOM      7  C   UNL     1       3.046   6.662  18.113  0.00  0.00    +0.000 A 
ATOM      8  C   UNL     1       2.304   7.693  18.747  0.00  0.00    +0.000 A 
ATOM      9  C   UNL     1       1.823   8.945  18.324  0.00  0.00    +0.000 A 
ATOM     10  H   UNL     1       2.595   5.488  21.047  0.00  0.00    +0.000 HD
ENDROOT
BRANCH   1  12
ATOM     11  N   UNL     1      -0.649  11.395  19.086  0.00  0.00    +0.000 NA
ATOM     12  C   UNL     1       0.559  11.055  18.776  0.00  0.00    +0.000 C 
ATOM     13  N   UNL     1       1.335  11.892  18.023  0.00  0.00    +0.000 N 
ATOM     14  H   UNL     1      -0.841  12.335  18.738  0.00  0.00    +0.000 HD
ATOM     15  H   UNL     1       0.832  12.583  17.482  0.00  0.00    +0.000 HD
ATOM     16  H   UNL     1       2.051  11.434  17.469  0.00  0.00    +0.000 HD
ENDBRANCH   1  12
BRANCH   6  17
ATOM     17  C   UNL     1       3.901   4.318  18.873  0.00  0.00    +0.000 C 
BRANCH  17  18
ATOM     18  C   UNL     1       5.000   4.341  17.835  0.00  0.00    +0.000 A 
ATOM     19  C   UNL     1       6.306   4.710  18.190  0.00  0.00    +0.000 A 
ATOM     20  C   UNL     1       7.322   4.731  17.233  0.00  0.00    +0.000 A 
ATOM     21  C   UNL     1       7.042   4.392  15.910  0.00  0.00    +0.000 A 
ATOM     22  C   UNL     1       5.745   4.038  15.543  0.00  0.00    +0.000 A 
ATOM     23  C   UNL     1       4.727   4.014  16.499  0.00  0.00    +0.000 A 
ENDBRANCH  17  18
ENDBRANCH   6  17
TORSDOF 3
ENDMDL
MODEL 9
REMARK VINA RESULT:      -7.3      5.361      8.042
REMARK  Name = 
REMARK  3 active torsions:
REMARK  status: ('A' for Active; 'I' for Inactive)
REMARK    1  A    between atoms: C_2  and  C_4
REMARK    2  A    between atoms: C_9  and  C_10
REMARK    3  A    between atoms: C_10  and  C_11
REMARK                            x       y       z     vdW  Elec       q    Type
REMARK                         _______ _______ _______ _____ _____    ______ ____
ROOT
ATOM      1  C   UNL     1       5.947   3.867  13.702  0.00  0.00    +0.000 A 
ATOM      2  C   UNL     1       7.073   4.636  14.007  0.00  0.00    +0.000 A 
ATOM      3  C   UNL     1       7.211   5.248  15.258  0.00  0.00    +0.000 A 
ATOM      4  C   UNL     1       6.184   5.054  16.191  0.00  0.00    +0.000 A 
ATOM      5  N   UNL     1       6.044   5.527  17.477  0.00  0.00    +0.000 N 
ATOM      6  C   UNL     1       4.863   5.088  18.026  0.00  0.00    +0.000 A 
ATOM      7  C   UNL     1       4.243   4.297  17.080  0.00  0.00    +0.000 A 
ATOM      8  C   UNL     1       5.058   4.279  15.918  0.00  0.00    +0.000 A 
ATOM      9  C   UNL     1       4.936   3.671  14.655  0.00  0.00    +0.000 A 
ATOM     10  H   UNL     1       6.718   6.120  17.941  0.00  0.00    +0.000 HD
ENDROOT
BRANCH   1  12
ATOM     11  N   UNL     1       6.818   2.623  11.830  0.00  0.00    +0.000 NA
ATOM     12  C   UNL     1       5.814   3.248  12.352  0.00  0.00    +0.000 C 
ATOM     13  N   UNL     1       4.639   3.358  11.660  0.00  0.00    +0.000 N 
ATOM     14  H   UNL     1       6.545   2.228  10.929  0.00  0.00    +0.000 HD
ATOM     15  H   UNL     1       4.709   3.227  10.659  0.00  0.00    +0.000 HD
ATOM     16  H   UNL     1       4.078   4.172  11.890  0.00  0.00    +0.000 HD
ENDBRANCH   1  12
BRANCH   6  17
ATOM     17  C   UNL     1       4.435   5.460  19.407  0.00  0.00    +0.000 C 
BRANCH  17  18
ATOM     18  C   UNL     1       3.288   4.615  19.912  0.00  0.00    +0.000 A 
ATOM     19  C   UNL     1       3.501   3.283  20.298  0.00  0.00    +0.000 A 
ATOM     20  C   UNL     1       2.442   2.502  20.765  0.00  0.00    +0.000 A 
ATOM     21  C   UNL     1       1.159   3.040  20.843  0.00  0.00    +0.000 A 
ATOM     22  C   UNL     1       0.932   4.357  20.449  0.00  0.00    +0.000 A 
ATOM     23  C   UNL     1       1.990   5.141  19.983  0.00  0.00    +0.000 A 
ENDBRANCH  17  18
ENDBRANCH   6  17
TORSDOF 3
ENDMDL
