MODEL 1
REMARK VINA RESULT:      -9.0      0.000      0.000
REMARK  Name = 
REMARK  7 active torsions:
REMARK  status: ('A' for Active; 'I' for Inactive)
REMARK    1  A    between atoms: C_1  and  O_2
REMARK    2  A    between atoms: O_2  and  C_3
REMARK    3  A    between atoms: C_7  and  C_8
REMARK    4  A    between atoms: C_20  and  O_21
REMARK    5  A    between atoms: O_21  and  C_22
REMARK    6  A    between atoms: C_22  and  C_23
REMARK    7  A    between atoms: C_23  and  N_24
REMARK                            x       y       z     vdW  Elec       q    Type
REMARK                         _______ _______ _______ _____ _____    ______ ____
ROOT
ATOM      1  C   UNL     1       2.546   6.506  19.818  0.00  0.00    +0.000 A 
ATOM      2  C   UNL     1       1.880   5.391  20.372  0.00  0.00    +0.000 A 
ATOM      3  C   UNL     1       2.353   4.087  20.145  0.00  0.00    +0.000 A 
ATOM      4  C   UNL     1       3.550   3.926  19.464  0.00  0.00    +0.000 A 
ATOM      5  C   UNL     1       4.394   5.004  19.429  0.00  0.00    +0.000 A 
ATOM      6  C   UNL     1       3.855   6.289  19.401  0.00  0.00    +0.000 A 
ATOM      7  N   UNL     1       5.750   4.763  19.198  0.00  0.00    +0.000 N 
ATOM      8  C   UNL     1       6.129   4.866  17.851  0.00  0.00    +0.000 A 
ATOM      9  C   UNL     1       5.498   3.964  16.954  0.00  0.00    +0.000 A 
ATOM     10  C   UNL     1       5.758   4.123  15.598  0.00  0.00    +0.000 A 
ATOM     11  C   UNL     1       6.539   5.220  15.165  0.00  0.00    +0.000 A 
ATOM     12  C   UNL     1       7.146   6.102  16.083  0.00  0.00    +0.000 A 
ATOM     13  C   UNL     1       6.995   5.902  17.447  0.00  0.00    +0.000 A 
ATOM     14  N   UNL     1       4.648   2.901  17.424  0.00  0.00    +0.000 N 
ATOM     15  C   UNL     1       3.901   2.743  18.613  0.00  0.00    +0.000 C 
ATOM     16  O   UNL     1       3.410   1.650  18.890  0.00  0.00    +0.000 OA
ATOM     17  H   UNL     1       5.978   3.811  19.496  0.00  0.00    +0.000 HD
ATOM     18  H   UNL     1       4.527   2.118  16.789  0.00  0.00    +0.000 HD
ENDROOT
BRANCH   1  23
ATOM     19  C   UNL     1       0.512   9.630  20.502  0.00  0.00    +0.000 A 
ATOM     20  C   UNL     1       0.510  10.240  19.253  0.00  0.00    +0.000 A 
ATOM     21  C   UNL     1       1.219   9.679  18.196  0.00  0.00    +0.000 A 
ATOM     22  C   UNL     1       1.920   8.484  18.396  0.00  0.00    +0.000 A 
ATOM     23  C   UNL     1       1.900   7.819  19.640  0.00  0.00    +0.000 A 
ATOM     24  C   UNL     1       1.189   8.421  20.691  0.00  0.00    +0.000 A 
BRANCH  19  26
ATOM     25  C   UNL     1      -0.123   9.664  22.766  0.00  0.00    +0.000 C 
ATOM     26  O   UNL     1      -0.213  10.262  21.475  0.00  0.00    +0.000 OA
ENDBRANCH  19  26
ENDBRANCH   1  23
BRANCH  13  27
ATOM     27  O   UNL     1       7.694   6.760  18.295  0.00  0.00    +0.000 OA
BRANCH  27  28
ATOM     28  C   UNL     1       7.756   8.128  17.841  0.00  0.00    +0.000 C 
BRANCH  28  29
ATOM     29  C   UNL     1       8.958   8.977  18.258  0.00  0.00    +0.000 C 
BRANCH  29  30
ATOM     30  N   UNL     1       8.502  10.301  18.776  0.00  0.00    +0.000 NA
ATOM     31  C   UNL     1       8.691  11.443  17.845  0.00  0.00    +0.000 C 
ATOM     32  C   UNL     1      10.154  11.884  17.674  0.00  0.00    +0.000 C 
ATOM     33  O   UNL     1      10.756  12.191  18.938  0.00  0.00    +0.000 OA
ATOM     34  C   UNL     1      10.652  11.082  19.841  0.00  0.00    +0.000 C 
ATOM     35  C   UNL     1       9.191  10.653  20.039  0.00  0.00    +0.000 C 
ENDBRANCH  29  30
ENDBRANCH  28  29
ENDBRANCH  27  28
ENDBRANCH  13  27
TORSDOF 6
ENDMDL
MODEL 2
REMARK VINA RESULT:      -8.7      3.633      6.623
REMARK  Name = 
REMARK  7 active torsions:
REMARK  status: ('A' for Active; 'I' for Inactive)
REMARK    1  A    between atoms: C_1  and  O_2
REMARK    2  A    between atoms: O_2  and  C_3
REMARK    3  A    between atoms: C_7  and  C_8
REMARK    4  A    between atoms: C_20  and  O_21
REMARK    5  A    between atoms: O_21  and  C_22
REMARK    6  A    between atoms: C_22  and  C_23
REMARK    7  A    between atoms: C_23  and  N_24
REMARK                            x       y       z     vdW  Elec       q    Type
REMARK                         _______ _______ _______ _____ _____    ______ ____
ROOT
ATOM      1  C   UNL     1      -1.089  10.706  18.779  0.00  0.00    +0.000 A 
ATOM      2  C   UNL     1      -1.220  11.460  19.965  0.00  0.00    +0.000 A 
ATOM      3  C   UNL     1      -0.468  11.136  21.108  0.00  0.00    +0.000 A 
ATOM      4  C   UNL     1       0.486  10.134  21.011  0.00  0.00    +0.000 A 
ATOM      5  C   UNL     1       0.933   9.824  19.754  0.00  0.00    +0.000 A 
ATOM      6  C   UNL     1       0.057   9.925  18.675  0.00  0.00    +0.000 A 
ATOM      7  N   UNL     1       2.181   9.207  19.640  0.00  0.00    +0.000 N 
ATOM      8  C   UNL     1       2.124   7.806  19.586  0.00  0.00    +0.000 A 
ATOM      9  C   UNL     1       1.563   7.159  20.718  0.00  0.00    +0.000 A 
ATOM     10  C   UNL     1       1.378   5.784  20.643  0.00  0.00    +0.000 A 
ATOM     11  C   UNL     1       1.652   5.111  19.429  0.00  0.00    +0.000 A 
ATOM     12  C   UNL     1       2.204   5.785  18.320  0.00  0.00    +0.000 A 
ATOM     13  C   UNL     1       2.503   7.137  18.403  0.00  0.00    +0.000 A 
ATOM     14  N   UNL     1       1.226   7.886  21.915  0.00  0.00    +0.000 N 
ATOM     15  C   UNL     1       0.917   9.247  22.139  0.00  0.00    +0.000 C 
ATOM     16  O   UNL     1       0.865   9.684  23.287  0.00  0.00    +0.000 OA
ATOM     17  H   UNL     1       2.751   9.447  20.455  0.00  0.00    +0.000 HD
ATOM     18  H   UNL     1       1.168   7.335  22.765  0.00  0.00    +0.000 HD
ENDROOT
BRANCH   1  23
ATOM     19  C   UNL     1      -4.296  11.388  16.875  0.00  0.00    +0.000 A 
ATOM     20  C   UNL     1      -4.156  10.540  15.783  0.00  0.00    +0.000 A 
ATOM     21  C   UNL     1      -2.998   9.788  15.620  0.00  0.00    +0.000 A 
ATOM     22  C   UNL     1      -1.979   9.879  16.577  0.00  0.00    +0.000 A 
ATOM     23  C   UNL     1      -2.114  10.696  17.718  0.00  0.00    +0.000 A 
ATOM     24  C   UNL     1      -3.289  11.455  17.844  0.00  0.00    +0.000 A 
BRANCH  19  26
ATOM     25  C   UNL     1      -6.427  11.550  17.856  0.00  0.00    +0.000 C 
ATOM     26  O   UNL     1      -5.471  12.085  16.944  0.00  0.00    +0.000 OA
ENDBRANCH  19  26
ENDBRANCH   1  23
BRANCH  13  27
ATOM     27  O   UNL     1       3.126   7.718  17.300  0.00  0.00    +0.000 OA
BRANCH  27  28
ATOM     28  C   UNL     1       4.521   7.380  17.157  0.00  0.00    +0.000 C 
BRANCH  28  29
ATOM     29  C   UNL     1       4.954   6.602  15.912  0.00  0.00    +0.000 C 
BRANCH  29  30
ATOM     30  N   UNL     1       5.055   5.145  16.222  0.00  0.00    +0.000 NA
ATOM     31  C   UNL     1       5.754   4.814  17.490  0.00  0.00    +0.000 C 
ATOM     32  C   UNL     1       7.276   5.028  17.447  0.00  0.00    +0.000 C 
ATOM     33  O   UNL     1       7.874   4.301  16.366  0.00  0.00    +0.000 OA
ATOM     34  C   UNL     1       7.267   4.647  15.115  0.00  0.00    +0.000 C 
ATOM     35  C   UNL     1       5.749   4.409  15.139  0.00  0.00    +0.000 C 
ENDBRANCH  29  30
ENDBRANCH  28  29
ENDBRANCH  27  28
ENDBRANCH  13  27
TORSDOF 6
ENDMDL
MODEL 3
REMARK VINA RESULT:      -8.6      0.871      1.500
REMARK  Name = 
REMARK  7 active torsions:
REMARK  status: ('A' for Active; 'I' for Inactive)
REMARK    1  A    between atoms: C_1  and  O_2
REMARK    2  A    between atoms: O_2  and  C_3
REMARK    3  A    between atoms: C_7  and  C_8
REMARK    4  A    between atoms: C_20  and  O_21
REMARK    5  A    between atoms: O_21  and  C_22
REMARK    6  A    between atoms: C_22  and  C_23
REMARK    7  A    between atoms: C_23  and  N_24
REMARK                            x       y       z     vdW  Elec       q    Type
REMARK                         _______ _______ _______ _____ _____    ______ ____
ROOT
ATOM      1  C   UNL     1       2.508   6.142  20.063  0.00  0.00    +0.000 A 
ATOM      2  C   UNL     1       1.888   4.965  20.535  0.00  0.00    +0.000 A 
ATOM      3  C   UNL     1       2.381   3.699  20.172  0.00  0.00    +0.000 A 
ATOM      4  C   UNL     1       3.554   3.632  19.437  0.00  0.00    +0.000 A 
ATOM      5  C   UNL     1       4.372   4.729  19.473  0.00  0.00    +0.000 A 
ATOM      6  C   UNL     1       3.805   5.998  19.583  0.00  0.00    +0.000 A 
ATOM      7  N   UNL     1       5.724   4.545  19.173  0.00  0.00    +0.000 N 
ATOM      8  C   UNL     1       6.050   4.780  17.828  0.00  0.00    +0.000 A 
ATOM      9  C   UNL     1       5.407   3.948  16.875  0.00  0.00    +0.000 A 
ATOM     10  C   UNL     1       5.612   4.238  15.531  0.00  0.00    +0.000 A 
ATOM     11  C   UNL     1       6.352   5.389  15.174  0.00  0.00    +0.000 A 
ATOM     12  C   UNL     1       6.973   6.198  16.148  0.00  0.00    +0.000 A 
ATOM     13  C   UNL     1       6.878   5.871  17.492  0.00  0.00    +0.000 A 
ATOM     14  N   UNL     1       4.598   2.826  17.274  0.00  0.00    +0.000 N 
ATOM     15  C   UNL     1       3.899   2.541  18.469  0.00  0.00    +0.000 C 
ATOM     16  O   UNL     1       3.443   1.415  18.661  0.00  0.00    +0.000 OA
ATOM     17  H   UNL     1       5.984   3.576  19.374  0.00  0.00    +0.000 HD
ATOM     18  H   UNL     1       4.470   2.102  16.574  0.00  0.00    +0.000 HD
ENDROOT
BRANCH   1  23
ATOM     19  C   UNL     1       1.367   9.571  18.918  0.00  0.00    +0.000 A 
ATOM     20  C   UNL     1       0.678  10.023  20.038  0.00  0.00    +0.000 A 
ATOM     21  C   UNL     1       0.524   9.199  21.148  0.00  0.00    +0.000 A 
ATOM     22  C   UNL     1       1.084   7.916  21.135  0.00  0.00    +0.000 A 
ATOM     23  C   UNL     1       1.827   7.450  20.030  0.00  0.00    +0.000 A 
ATOM     24  C   UNL     1       1.950   8.300  18.919  0.00  0.00    +0.000 A 
BRANCH  19  26
ATOM     25  C   UNL     1       2.249  11.612  18.153  0.00  0.00    +0.000 C 
ATOM     26  O   UNL     1       1.462  10.456  17.879  0.00  0.00    +0.000 OA
ENDBRANCH  19  26
ENDBRANCH   1  23
BRANCH  13  27
ATOM     27  O   UNL     1       7.589   6.665  18.390  0.00  0.00    +0.000 OA
BRANCH  27  28
ATOM     28  C   UNL     1       7.835   8.010  17.932  0.00  0.00    +0.000 C 
BRANCH  28  29
ATOM     29  C   UNL     1       8.965   8.805  18.590  0.00  0.00    +0.000 C 
BRANCH  29  30
ATOM     30  N   UNL     1       8.521  10.203  18.867  0.00  0.00    +0.000 NA
ATOM     31  C   UNL     1       8.856  11.194  17.812  0.00  0.00    +0.000 C 
ATOM     32  C   UNL     1      10.348  11.559  17.739  0.00  0.00    +0.000 C 
ATOM     33  O   UNL     1      10.833  12.024  19.005  0.00  0.00    +0.000 OA
ATOM     34  C   UNL     1      10.587  11.059  20.036  0.00  0.00    +0.000 C 
ATOM     35  C   UNL     1       9.094  10.710  20.136  0.00  0.00    +0.000 C 
ENDBRANCH  29  30
ENDBRANCH  28  29
ENDBRANCH  27  28
ENDBRANCH  13  27
TORSDOF 6
ENDMDL
MODEL 4
REMARK VINA RESULT:      -8.5      3.357      6.124
REMARK  Name = 
REMARK  7 active torsions:
REMARK  status: ('A' for Active; 'I' for Inactive)
REMARK    1  A    between atoms: C_1  and  O_2
REMARK    2  A    between atoms: O_2  and  C_3
REMARK    3  A    between atoms: C_7  and  C_8
REMARK    4  A    between atoms: C_20  and  O_21
REMARK    5  A    between atoms: O_21  and  C_22
REMARK    6  A    between atoms: C_22  and  C_23
REMARK    7  A    between atoms: C_23  and  N_24
REMARK                            x       y       z     vdW  Elec       q    Type
REMARK                         _______ _______ _______ _____ _____    ______ ____
ROOT
ATOM      1  C   UNL     1      -0.948  10.587  18.601  0.00  0.00    +0.000 A 
ATOM      2  C   UNL     1      -1.018  11.349  19.787  0.00  0.00    +0.000 A 
ATOM      3  C   UNL     1      -0.236  11.010  20.905  0.00  0.00    +0.000 A 
ATOM      4  C   UNL     1       0.687   9.983  20.780  0.00  0.00    +0.000 A 
ATOM      5  C   UNL     1       1.082   9.655  19.510  0.00  0.00    +0.000 A 
ATOM      6  C   UNL     1       0.172   9.775  18.461  0.00  0.00    +0.000 A 
ATOM      7  N   UNL     1       2.309   9.005  19.357  0.00  0.00    +0.000 N 
ATOM      8  C   UNL     1       2.213   7.605  19.313  0.00  0.00    +0.000 A 
ATOM      9  C   UNL     1       1.674   6.979  20.467  0.00  0.00    +0.000 A 
ATOM     10  C   UNL     1       1.451   5.609  20.406  0.00  0.00    +0.000 A 
ATOM     11  C   UNL     1       1.665   4.924  19.186  0.00  0.00    +0.000 A 
ATOM     12  C   UNL     1       2.196   5.578  18.056  0.00  0.00    +0.000 A 
ATOM     13  C   UNL     1       2.533   6.922  18.121  0.00  0.00    +0.000 A 
ATOM     14  N   UNL     1       1.398   7.720  21.670  0.00  0.00    +0.000 N 
ATOM     15  C   UNL     1       1.133   9.090  21.897  0.00  0.00    +0.000 C 
ATOM     16  O   UNL     1       1.132   9.533  23.044  0.00  0.00    +0.000 OA
ATOM     17  H   UNL     1       2.913   9.233  20.151  0.00  0.00    +0.000 HD
ATOM     18  H   UNL     1       1.355   7.174  22.525  0.00  0.00    +0.000 HD
ENDROOT
BRANCH   1  23
ATOM     19  C   UNL     1      -4.202  11.341  16.807  0.00  0.00    +0.000 A 
ATOM     20  C   UNL     1      -4.120  10.488  15.713  0.00  0.00    +0.000 A 
ATOM     21  C   UNL     1      -2.985   9.710  15.512  0.00  0.00    +0.000 A 
ATOM     22  C   UNL     1      -1.933   9.778  16.432  0.00  0.00    +0.000 A 
ATOM     23  C   UNL     1      -2.010  10.599  17.576  0.00  0.00    +0.000 A 
ATOM     24  C   UNL     1      -3.162  11.386  17.741  0.00  0.00    +0.000 A 
BRANCH  19  26
ATOM     25  C   UNL     1      -5.706  12.434  18.247  0.00  0.00    +0.000 C 
ATOM     26  O   UNL     1      -5.358  12.065  16.915  0.00  0.00    +0.000 OA
ENDBRANCH  19  26
ENDBRANCH   1  23
BRANCH  13  27
ATOM     27  O   UNL     1       3.133   7.481  16.994  0.00  0.00    +0.000 OA
BRANCH  27  28
ATOM     28  C   UNL     1       4.465   6.998  16.727  0.00  0.00    +0.000 C 
BRANCH  28  29
ATOM     29  C   UNL     1       5.578   7.357  17.713  0.00  0.00    +0.000 C 
BRANCH  29  30
ATOM     30  N   UNL     1       6.912   7.018  17.135  0.00  0.00    +0.000 NA
ATOM     31  C   UNL     1       6.983   5.714  16.427  0.00  0.00    +0.000 C 
ATOM     32  C   UNL     1       6.946   4.489  17.356  0.00  0.00    +0.000 C 
ATOM     33  O   UNL     1       7.980   4.554  18.346  0.00  0.00    +0.000 OA
ATOM     34  C   UNL     1       7.900   5.774  19.095  0.00  0.00    +0.000 C 
ATOM     35  C   UNL     1       7.965   7.004  18.177  0.00  0.00    +0.000 C 
ENDBRANCH  29  30
ENDBRANCH  28  29
ENDBRANCH  27  28
ENDBRANCH  13  27
TORSDOF 6
ENDMDL
MODEL 5
REMARK VINA RESULT:      -8.4      3.528      6.722
REMARK  Name = 
REMARK  7 active torsions:
REMARK  status: ('A' for Active; 'I' for Inactive)
REMARK    1  A    between atoms: C_1  and  O_2
REMARK    2  A    between atoms: O_2  and  C_3
REMARK    3  A    between atoms: C_7  and  C_8
REMARK    4  A    between atoms: C_20  and  O_21
REMARK    5  A    between atoms: O_21  and  C_22
REMARK    6  A    between atoms: C_22  and  C_23
REMARK    7  A    between atoms: C_23  and  N_24
REMARK                            x       y       z     vdW  Elec       q    Type
REMARK                         _______ _______ _______ _____ _____    ______ ____
ROOT
ATOM      1  C   UNL     1      -1.208  10.779  18.937  0.00  0.00    +0.000 A 
ATOM      2  C   UNL     1      -1.333  11.500  20.145  0.00  0.00    +0.000 A 
ATOM      3  C   UNL     1      -0.545  11.170  21.262  0.00  0.00    +0.000 A 
ATOM      4  C   UNL     1       0.435  10.200  21.116  0.00  0.00    +0.000 A 
ATOM      5  C   UNL     1       0.862   9.935  19.842  0.00  0.00    +0.000 A 
ATOM      6  C   UNL     1      -0.043  10.036  18.786  0.00  0.00    +0.000 A 
ATOM      7  N   UNL     1       2.124   9.359  19.684  0.00  0.00    +0.000 N 
ATOM      8  C   UNL     1       2.108   7.958  19.596  0.00  0.00    +0.000 A 
ATOM      9  C   UNL     1       1.593   7.267  20.723  0.00  0.00    +0.000 A 
ATOM     10  C   UNL     1       1.447   5.889  20.618  0.00  0.00    +0.000 A 
ATOM     11  C   UNL     1       1.712   5.255  19.381  0.00  0.00    +0.000 A 
ATOM     12  C   UNL     1       2.217   5.973  18.277  0.00  0.00    +0.000 A 
ATOM     13  C   UNL     1       2.477   7.331  18.388  0.00  0.00    +0.000 A 
ATOM     14  N   UNL     1       1.263   7.953  21.945  0.00  0.00    +0.000 N 
ATOM     15  C   UNL     1       0.920   9.299  22.211  0.00  0.00    +0.000 C 
ATOM     16  O   UNL     1       0.881   9.705  23.371  0.00  0.00    +0.000 OA
ATOM     17  H   UNL     1       2.706   9.596  20.492  0.00  0.00    +0.000 HD
ATOM     18  H   UNL     1       1.241   7.380  22.783  0.00  0.00    +0.000 HD
ENDROOT
BRANCH   1  23
ATOM     19  C   UNL     1      -2.967  10.312  15.612  0.00  0.00    +0.000 A 
ATOM     20  C   UNL     1      -4.201  10.901  15.864  0.00  0.00    +0.000 A 
ATOM     21  C   UNL     1      -4.497  11.397  17.129  0.00  0.00    +0.000 A 
ATOM     22  C   UNL     1      -3.534  11.315  18.143  0.00  0.00    +0.000 A 
ATOM     23  C   UNL     1      -2.258  10.765  17.900  0.00  0.00    +0.000 A 
ATOM     24  C   UNL     1      -1.997  10.257  16.617  0.00  0.00    +0.000 A 
BRANCH  19  26
ATOM     25  C   UNL     1      -3.915   9.961  13.488  0.00  0.00    +0.000 C 
ATOM     26  O   UNL     1      -2.775   9.854  14.337  0.00  0.00    +0.000 OA
ENDBRANCH  19  26
ENDBRANCH   1  23
BRANCH  13  27
ATOM     27  O   UNL     1       3.057   7.958  17.286  0.00  0.00    +0.000 OA
BRANCH  27  28
ATOM     28  C   UNL     1       4.015   7.147  16.575  0.00  0.00    +0.000 C 
BRANCH  28  29
ATOM     29  C   UNL     1       5.295   6.731  17.303  0.00  0.00    +0.000 C 
BRANCH  29  30
ATOM     30  N   UNL     1       5.335   5.248  17.472  0.00  0.00    +0.000 NA
ATOM     31  C   UNL     1       6.284   4.754  18.503  0.00  0.00    +0.000 C 
ATOM     32  C   UNL     1       7.765   4.864  18.104  0.00  0.00    +0.000 C 
ATOM     33  O   UNL     1       8.020   4.200  16.860  0.00  0.00    +0.000 OA
ATOM     34  C   UNL     1       7.166   4.702  15.823  0.00  0.00    +0.000 C 
ATOM     35  C   UNL     1       5.683   4.569  16.202  0.00  0.00    +0.000 C 
ENDBRANCH  29  30
ENDBRANCH  28  29
ENDBRANCH  27  28
ENDBRANCH  13  27
TORSDOF 6
ENDMDL
MODEL 6
REMARK VINA RESULT:      -8.4      3.454      6.487
REMARK  Name = 
REMARK  7 active torsions:
REMARK  status: ('A' for Active; 'I' for Inactive)
REMARK    1  A    between atoms: C_1  and  O_2
REMARK    2  A    between atoms: O_2  and  C_3
REMARK    3  A    between atoms: C_7  and  C_8
REMARK    4  A    between atoms: C_20  and  O_21
REMARK    5  A    between atoms: O_21  and  C_22
REMARK    6  A    between atoms: C_22  and  C_23
REMARK    7  A    between atoms: C_23  and  N_24
REMARK                            x       y       z     vdW  Elec       q    Type
REMARK                         _______ _______ _______ _____ _____    ______ ____
ROOT
ATOM      1  C   UNL     1      -1.105  10.655  18.785  0.00  0.00    +0.000 A 
ATOM      2  C   UNL     1      -1.196  11.423  19.966  0.00  0.00    +0.000 A 
ATOM      3  C   UNL     1      -0.405  11.112  21.086  0.00  0.00    +0.000 A 
ATOM      4  C   UNL     1       0.545  10.109  20.968  0.00  0.00    +0.000 A 
ATOM      5  C   UNL     1       0.950   9.785  19.701  0.00  0.00    +0.000 A 
ATOM      6  C   UNL     1       0.037   9.873  18.651  0.00  0.00    +0.000 A 
ATOM      7  N   UNL     1       2.193   9.166  19.552  0.00  0.00    +0.000 N 
ATOM      8  C   UNL     1       2.136   7.765  19.517  0.00  0.00    +0.000 A 
ATOM      9  C   UNL     1       1.614   7.131  20.675  0.00  0.00    +0.000 A 
ATOM     10  C   UNL     1       1.427   5.755  20.622  0.00  0.00    +0.000 A 
ATOM     11  C   UNL     1       1.660   5.069  19.407  0.00  0.00    +0.000 A 
ATOM     12  C   UNL     1       2.174   5.730  18.273  0.00  0.00    +0.000 A 
ATOM     13  C   UNL     1       2.474   7.083  18.330  0.00  0.00    +0.000 A 
ATOM     14  N   UNL     1       1.317   7.872  21.873  0.00  0.00    +0.000 N 
ATOM     15  C   UNL     1       1.015   9.236  22.091  0.00  0.00    +0.000 C 
ATOM     16  O   UNL     1       1.001   9.686  23.235  0.00  0.00    +0.000 OA
ATOM     17  H   UNL     1       2.791   9.416  20.345  0.00  0.00    +0.000 HD
ATOM     18  H   UNL     1       1.288   7.331  22.732  0.00  0.00    +0.000 HD
ENDROOT
BRANCH   1  23
ATOM     19  C   UNL     1      -2.873  10.289  15.451  0.00  0.00    +0.000 A 
ATOM     20  C   UNL     1      -4.144  10.761  15.758  0.00  0.00    +0.000 A 
ATOM     21  C   UNL     1      -4.458  11.141  17.058  0.00  0.00    +0.000 A 
ATOM     22  C   UNL     1      -3.477  11.062  18.053  0.00  0.00    +0.000 A 
ATOM     23  C   UNL     1      -2.166  10.632  17.760  0.00  0.00    +0.000 A 
ATOM     24  C   UNL     1      -1.886  10.239  16.441  0.00  0.00    +0.000 A 
BRANCH  19  26
ATOM     25  C   UNL     1      -3.841   9.919  13.341  0.00  0.00    +0.000 C 
ATOM     26  O   UNL     1      -2.665   9.939  14.145  0.00  0.00    +0.000 OA
ENDBRANCH  19  26
ENDBRANCH   1  23
BRANCH  13  27
ATOM     27  O   UNL     1       3.059   7.650  17.199  0.00  0.00    +0.000 OA
BRANCH  27  28
ATOM     28  C   UNL     1       4.491   7.495  17.127  0.00  0.00    +0.000 C 
BRANCH  28  29
ATOM     29  C   UNL     1       5.058   6.420  16.198  0.00  0.00    +0.000 C 
BRANCH  29  30
ATOM     30  N   UNL     1       6.547   6.519  16.140  0.00  0.00    +0.000 NA
ATOM     31  C   UNL     1       7.252   5.260  15.786  0.00  0.00    +0.000 C 
ATOM     32  C   UNL     1       7.250   4.200  16.901  0.00  0.00    +0.000 C 
ATOM     33  O   UNL     1       7.790   4.726  18.120  0.00  0.00    +0.000 OA
ATOM     34  C   UNL     1       7.086   5.906  18.528  0.00  0.00    +0.000 C 
ATOM     35  C   UNL     1       7.108   6.982  17.431  0.00  0.00    +0.000 C 
ENDBRANCH  29  30
ENDBRANCH  28  29
ENDBRANCH  27  28
ENDBRANCH  13  27
TORSDOF 6
ENDMDL
MODEL 7
REMARK VINA RESULT:      -8.4      1.005      1.789
REMARK  Name = 
REMARK  7 active torsions:
REMARK  status: ('A' for Active; 'I' for Inactive)
REMARK    1  A    between atoms: C_1  and  O_2
REMARK    2  A    between atoms: O_2  and  C_3
REMARK    3  A    between atoms: C_7  and  C_8
REMARK    4  A    between atoms: C_20  and  O_21
REMARK    5  A    between atoms: O_21  and  C_22
REMARK    6  A    between atoms: C_22  and  C_23
REMARK    7  A    between atoms: C_23  and  N_24
REMARK                            x       y       z     vdW  Elec       q    Type
REMARK                         _______ _______ _______ _____ _____    ______ ____
ROOT
ATOM      1  C   UNL     1       2.506   6.266  20.084  0.00  0.00    +0.000 A 
ATOM      2  C   UNL     1       1.926   5.098  20.626  0.00  0.00    +0.000 A 
ATOM      3  C   UNL     1       2.434   3.828  20.302  0.00  0.00    +0.000 A 
ATOM      4  C   UNL     1       3.585   3.752  19.531  0.00  0.00    +0.000 A 
ATOM      5  C   UNL     1       4.380   4.866  19.493  0.00  0.00    +0.000 A 
ATOM      6  C   UNL     1       3.789   6.127  19.567  0.00  0.00    +0.000 A 
ATOM      7  N   UNL     1       5.725   4.697  19.156  0.00  0.00    +0.000 N 
ATOM      8  C   UNL     1       6.001   4.879  17.793  0.00  0.00    +0.000 A 
ATOM      9  C   UNL     1       5.346   3.994  16.898  0.00  0.00    +0.000 A 
ATOM     10  C   UNL     1       5.501   4.229  15.537  0.00  0.00    +0.000 A 
ATOM     11  C   UNL     1       6.204   5.379  15.106  0.00  0.00    +0.000 A 
ATOM     12  C   UNL     1       6.839   6.242  16.023  0.00  0.00    +0.000 A 
ATOM     13  C   UNL     1       6.794   5.971  17.382  0.00  0.00    +0.000 A 
ATOM     14  N   UNL     1       4.575   2.874  17.371  0.00  0.00    +0.000 N 
ATOM     15  C   UNL     1       3.921   2.627  18.600  0.00  0.00    +0.000 C 
ATOM     16  O   UNL     1       3.496   1.502  18.855  0.00  0.00    +0.000 OA
ATOM     17  H   UNL     1       6.012   3.742  19.389  0.00  0.00    +0.000 HD
ATOM     18  H   UNL     1       4.440   2.118  16.707  0.00  0.00    +0.000 HD
ENDROOT
BRANCH   1  23
ATOM     19  C   UNL     1       1.373   9.687  18.909  0.00  0.00    +0.000 A 
ATOM     20  C   UNL     1       0.584  10.100  19.976  0.00  0.00    +0.000 A 
ATOM     21  C   UNL     1       0.360   9.252  21.055  0.00  0.00    +0.000 A 
ATOM     22  C   UNL     1       0.953   7.983  21.066  0.00  0.00    +0.000 A 
ATOM     23  C   UNL     1       1.796   7.557  20.018  0.00  0.00    +0.000 A 
ATOM     24  C   UNL     1       1.987   8.431  18.936  0.00  0.00    +0.000 A 
BRANCH  19  26
ATOM     25  C   UNL     1       2.089  11.842  18.298  0.00  0.00    +0.000 C 
ATOM     26  O   UNL     1       1.530  10.594  17.896  0.00  0.00    +0.000 OA
ENDBRANCH  19  26
ENDBRANCH   1  23
BRANCH  13  27
ATOM     27  O   UNL     1       7.517   6.817  18.222  0.00  0.00    +0.000 OA
BRANCH  27  28
ATOM     28  C   UNL     1       8.052   7.988  17.571  0.00  0.00    +0.000 C 
BRANCH  28  29
ATOM     29  C   UNL     1       7.950   9.331  18.297  0.00  0.00    +0.000 C 
BRANCH  29  30
ATOM     30  N   UNL     1       9.312   9.849  18.622  0.00  0.00    +0.000 NA
ATOM     31  C   UNL     1       9.491  10.330  20.015  0.00  0.00    +0.000 C 
ATOM     32  C   UNL     1       8.786  11.663  20.319  0.00  0.00    +0.000 C 
ATOM     33  O   UNL     1       9.192  12.687  19.402  0.00  0.00    +0.000 OA
ATOM     34  C   UNL     1       8.969  12.281  18.045  0.00  0.00    +0.000 C 
ATOM     35  C   UNL     1       9.694  10.965  17.725  0.00  0.00    +0.000 C 
ENDBRANCH  29  30
ENDBRANCH  28  29
ENDBRANCH  27  28
ENDBRANCH  13  27
TORSDOF 6
ENDMDL
MODEL 8
REMARK VINA RESULT:      -7.7      3.497      6.906
REMARK  Name = 
REMARK  7 active torsions:
REMARK  status: ('A' for Active; 'I' for Inactive)
REMARK    1  A    between atoms: C_1  and  O_2
REMARK    2  A    between atoms: O_2  and  C_3
REMARK    3  A    between atoms: C_7  and  C_8
REMARK    4  A    between atoms: C_20  and  O_21
REMARK    5  A    between atoms: O_21  and  C_22
REMARK    6  A    between atoms: C_22  and  C_23
REMARK    7  A    between atoms: C_23  and  N_24
REMARK                            x       y       z     vdW  Elec       q    Type
REMARK                         _______ _______ _______ _____ _____    ______ ____
ROOT
ATOM      1  C   UNL     1      -1.136  10.708  18.795  0.00  0.00    +0.000 A 
ATOM      2  C   UNL     1      -1.198  11.476  19.978  0.00  0.00    +0.000 A 
ATOM      3  C   UNL     1      -0.380  11.167  21.079  0.00  0.00    +0.000 A 
ATOM      4  C   UNL     1       0.568  10.165  20.937  0.00  0.00    +0.000 A 
ATOM      5  C   UNL     1       0.942   9.841  19.660  0.00  0.00    +0.000 A 
ATOM      6  C   UNL     1       0.003   9.928  18.633  0.00  0.00    +0.000 A 
ATOM      7  N   UNL     1       2.182   9.224  19.480  0.00  0.00    +0.000 N 
ATOM      8  C   UNL     1       2.125   7.822  19.446  0.00  0.00    +0.000 A 
ATOM      9  C   UNL     1       1.633   7.188  20.617  0.00  0.00    +0.000 A 
ATOM     10  C   UNL     1       1.447   5.812  20.569  0.00  0.00    +0.000 A 
ATOM     11  C   UNL     1       1.650   5.125  19.349  0.00  0.00    +0.000 A 
ATOM     12  C   UNL     1       2.135   5.787  18.202  0.00  0.00    +0.000 A 
ATOM     13  C   UNL     1       2.434   7.140  18.251  0.00  0.00    +0.000 A 
ATOM     14  N   UNL     1       1.365   7.929  21.822  0.00  0.00    +0.000 N 
ATOM     15  C   UNL     1       1.067   9.292  22.048  0.00  0.00    +0.000 C 
ATOM     16  O   UNL     1       1.081   9.742  23.192  0.00  0.00    +0.000 OA
ATOM     17  H   UNL     1       2.798   9.475  20.258  0.00  0.00    +0.000 HD
ATOM     18  H   UNL     1       1.358   7.388  22.681  0.00  0.00    +0.000 HD
ENDROOT
BRANCH   1  23
ATOM     19  C   UNL     1      -2.990  10.317  15.512  0.00  0.00    +0.000 A 
ATOM     20  C   UNL     1      -4.247  10.810  15.842  0.00  0.00    +0.000 A 
ATOM     21  C   UNL     1      -4.524  11.212  17.144  0.00  0.00    +0.000 A 
ATOM     22  C   UNL     1      -3.520  11.136  18.116  0.00  0.00    +0.000 A 
ATOM     23  C   UNL     1      -2.222  10.684  17.797  0.00  0.00    +0.000 A 
ATOM     24  C   UNL     1      -1.980  10.269  16.478  0.00  0.00    +0.000 A 
BRANCH  19  26
ATOM     25  C   UNL     1      -4.016   9.917  13.434  0.00  0.00    +0.000 C 
ATOM     26  O   UNL     1      -2.818   9.946  14.206  0.00  0.00    +0.000 OA
ENDBRANCH  19  26
ENDBRANCH   1  23
BRANCH  13  27
ATOM     27  O   UNL     1       2.991   7.709  17.106  0.00  0.00    +0.000 OA
BRANCH  27  28
ATOM     28  C   UNL     1       4.265   7.152  16.723  0.00  0.00    +0.000 C 
BRANCH  28  29
ATOM     29  C   UNL     1       5.210   6.677  17.828  0.00  0.00    +0.000 C 
BRANCH  29  30
ATOM     30  N   UNL     1       5.981   5.482  17.372  0.00  0.00    +0.000 NA
ATOM     31  C   UNL     1       5.317   4.661  16.327  0.00  0.00    +0.000 C 
ATOM     32  C   UNL     1       4.122   3.839  16.835  0.00  0.00    +0.000 C 
ATOM     33  O   UNL     1       4.496   3.002  17.938  0.00  0.00    +0.000 OA
ATOM     34  C   UNL     1       5.080   3.773  18.995  0.00  0.00    +0.000 C 
ATOM     35  C   UNL     1       6.293   4.576  18.502  0.00  0.00    +0.000 C 
ENDBRANCH  29  30
ENDBRANCH  28  29
ENDBRANCH  27  28
ENDBRANCH  13  27
TORSDOF 6
ENDMDL
MODEL 9
REMARK VINA RESULT:      -7.5      5.113      9.575
REMARK  Name = 
REMARK  7 active torsions:
REMARK  status: ('A' for Active; 'I' for Inactive)
REMARK    1  A    between atoms: C_1  and  O_2
REMARK    2  A    between atoms: O_2  and  C_3
REMARK    3  A    between atoms: C_7  and  C_8
REMARK    4  A    between atoms: C_20  and  O_21
REMARK    5  A    between atoms: O_21  and  C_22
REMARK    6  A    between atoms: C_22  and  C_23
REMARK    7  A    between atoms: C_23  and  N_24
REMARK                            x       y       z     vdW  Elec       q    Type
REMARK                         _______ _______ _______ _____ _____    ______ ____
ROOT
ATOM      1  C   UNL     1      -0.508  10.341  18.571  0.00  0.00    +0.000 A 
ATOM      2  C   UNL     1      -1.412  10.100  17.514  0.00  0.00    +0.000 A 
ATOM      3  C   UNL     1      -2.651  10.763  17.464  0.00  0.00    +0.000 A 
ATOM      4  C   UNL     1      -2.916  11.741  18.411  0.00  0.00    +0.000 A 
ATOM      5  C   UNL     1      -1.838  12.295  19.049  0.00  0.00    +0.000 A 
ATOM      6  C   UNL     1      -0.716  11.507  19.299  0.00  0.00    +0.000 A 
ATOM      7  N   UNL     1      -1.997  13.560  19.619  0.00  0.00    +0.000 N 
ATOM      8  C   UNL     1      -2.348  13.536  20.978  0.00  0.00    +0.000 A 
ATOM      9  C   UNL     1      -3.575  12.899  21.295  0.00  0.00    +0.000 A 
ATOM     10  C   UNL     1      -3.889  12.749  22.641  0.00  0.00    +0.000 A 
ATOM     11  C   UNL     1      -2.944  13.133  23.621  0.00  0.00    +0.000 A 
ATOM     12  C   UNL     1      -1.730  13.759  23.271  0.00  0.00    +0.000 A 
ATOM     13  C   UNL     1      -1.439  14.022  21.941  0.00  0.00    +0.000 A 
ATOM     14  N   UNL     1      -4.483  12.452  20.271  0.00  0.00    +0.000 N 
ATOM     15  C   UNL     1      -4.280  12.099  18.917  0.00  0.00    +0.000 C 
ATOM     16  O   UNL     1      -5.246  11.945  18.172  0.00  0.00    +0.000 OA
ATOM     17  H   UNL     1      -2.746  14.058  19.131  0.00  0.00    +0.000 HD
ATOM     18  H   UNL     1      -5.450  12.336  20.556  0.00  0.00    +0.000 HD
ENDROOT
BRANCH   1  23
ATOM     19  C   UNL     1       2.493   8.041  18.289  0.00  0.00    +0.000 A 
ATOM     20  C   UNL     1       2.532   7.478  19.560  0.00  0.00    +0.000 A 
ATOM     21  C   UNL     1       1.629   7.884  20.536  0.00  0.00    +0.000 A 
ATOM     22  C   UNL     1       0.667   8.852  20.223  0.00  0.00    +0.000 A 
ATOM     23  C   UNL     1       0.575   9.405  18.929  0.00  0.00    +0.000 A 
ATOM     24  C   UNL     1       1.512   8.986  17.970  0.00  0.00    +0.000 A 
BRANCH  19  26
ATOM     25  C   UNL     1       4.034   6.342  17.771  0.00  0.00    +0.000 C 
ATOM     26  O   UNL     1       3.424   7.576  17.401  0.00  0.00    +0.000 OA
ENDBRANCH  19  26
ENDBRANCH   1  23
BRANCH  13  27
ATOM     27  O   UNL     1      -0.262  14.721  21.675  0.00  0.00    +0.000 OA
BRANCH  27  28
ATOM     28  C   UNL     1       0.919  13.897  21.613  0.00  0.00    +0.000 C 
BRANCH  28  29
ATOM     29  C   UNL     1       2.070  14.347  20.709  0.00  0.00    +0.000 C 
BRANCH  29  30
ATOM     30  N   UNL     1       1.674  14.237  19.274  0.00  0.00    +0.000 NA
ATOM     31  C   UNL     1       2.694  13.633  18.380  0.00  0.00    +0.000 C 
ATOM     32  C   UNL     1       3.903  14.539  18.097  0.00  0.00    +0.000 C 
ATOM     33  O   UNL     1       3.492  15.806  17.567  0.00  0.00    +0.000 OA
ATOM     34  C   UNL     1       2.556  16.450  18.441  0.00  0.00    +0.000 C 
ATOM     35  C   UNL     1       1.330  15.562  18.706  0.00  0.00    +0.000 C 
ENDBRANCH  29  30
ENDBRANCH  28  29
ENDBRANCH  27  28
ENDBRANCH  13  27
TORSDOF 6
ENDMDL
