MODEL 1
REMARK VINA RESULT:      -9.2      0.000      0.000
REMARK  Name = 
REMARK  4 active torsions:
REMARK  status: ('A' for Active; 'I' for Inactive)
REMARK    1  A    between atoms: N_1  and  C_2
REMARK    2  A    between atoms: C_2  and  C_3
REMARK    3  A    between atoms: C_6  and  C_7
REMARK    4  A    between atoms: C_15  and  C_16
REMARK                            x       y       z     vdW  Elec       q    Type
REMARK                         _______ _______ _______ _____ _____    ______ ____
ROOT
ATOM      1  C   UNL     1       3.772   5.901  17.589  0.00  0.00    +0.000 A 
ATOM      2  N   UNL     1       4.522   6.388  16.638  0.00  0.00    +0.000 NA
ATOM      3  N   UNL     1       5.285   5.468  16.007  0.00  0.00    +0.000 N 
ATOM      4  C   UNL     1       6.152   5.733  14.982  0.00  0.00    +0.000 A 
ATOM      5  C   UNL     1       6.710   4.524  14.650  0.00  0.00    +0.000 A 
ATOM      6  N   UNL     1       6.202   3.519  15.438  0.00  0.00    +0.000 NA
ATOM      7  C   UNL     1       5.346   4.109  16.245  0.00  0.00    +0.000 A 
ATOM      8  C   UNL     1       4.513   3.597  17.254  0.00  0.00    +0.000 A 
ATOM      9  C   UNL     1       3.710   4.420  17.952  0.00  0.00    +0.000 A 
ENDROOT
BRANCH   1  13
ATOM     10  C   UNL     1       1.263   8.775  19.710  0.00  0.00    +0.000 A 
ATOM     11  C   UNL     1       1.588   8.917  18.346  0.00  0.00    +0.000 A 
ATOM     12  C   UNL     1       2.393   7.989  17.666  0.00  0.00    +0.000 A 
ATOM     13  C   UNL     1       2.918   6.882  18.337  0.00  0.00    +0.000 A 
ATOM     14  C   UNL     1       2.669   6.771  19.701  0.00  0.00    +0.000 A 
ATOM     15  C   UNL     1       1.816   7.659  20.353  0.00  0.00    +0.000 A 
BRANCH  10  16
ATOM     16  C   UNL     1       0.354   9.792  20.493  0.00  0.00    +0.000 C 
ATOM     17  C   UNL     1       0.920  11.169  20.960  0.00  0.00    +0.000 C 
ATOM     18  C   UNL     1       0.249  11.780  19.715  0.00  0.00    +0.000 C 
ATOM     19  C   UNL     1      -0.745  10.601  19.754  0.00  0.00    +0.000 C 
BRANCH  16  20
ATOM     20  N   UNL     1      -0.248   9.144  21.658  0.00  0.00    +0.000 NA
ATOM     21  H   UNL     1      -0.876   8.381  21.402  0.00  0.00    +0.000 HD
ATOM     22  H   UNL     1      -0.818   9.779  22.216  0.00  0.00    +0.000 HD
ENDBRANCH  16  20
ENDBRANCH  10  16
ENDBRANCH   1  13
BRANCH   9  23
ATOM     23  C   UNL     1       2.810   3.825  18.951  0.00  0.00    +0.000 A 
ATOM     24  C   UNL     1       3.299   3.473  20.220  0.00  0.00    +0.000 A 
ATOM     25  C   UNL     1       2.421   3.068  21.227  0.00  0.00    +0.000 A 
ATOM     26  C   UNL     1       1.060   2.944  20.953  0.00  0.00    +0.000 A 
ATOM     27  C   UNL     1       0.578   3.216  19.674  0.00  0.00    +0.000 A 
ATOM     28  C   UNL     1       1.447   3.663  18.675  0.00  0.00    +0.000 A 
ENDBRANCH   9  23
TORSDOF 4
ENDMDL
MODEL 2
REMARK VINA RESULT:      -9.1      0.780      1.158
REMARK  Name = 
REMARK  4 active torsions:
REMARK  status: ('A' for Active; 'I' for Inactive)
REMARK    1  A    between atoms: N_1  and  C_2
REMARK    2  A    between atoms: C_2  and  C_3
REMARK    3  A    between atoms: C_6  and  C_7
REMARK    4  A    between atoms: C_15  and  C_16
REMARK                            x       y       z     vdW  Elec       q    Type
REMARK                         _______ _______ _______ _____ _____    ______ ____
ROOT
ATOM      1  C   UNL     1       3.796   5.817  17.603  0.00  0.00    +0.000 A 
ATOM      2  N   UNL     1       4.532   6.354  16.668  0.00  0.00    +0.000 NA
ATOM      3  N   UNL     1       5.304   5.473  15.994  0.00  0.00    +0.000 N 
ATOM      4  C   UNL     1       6.159   5.794  14.975  0.00  0.00    +0.000 A 
ATOM      5  C   UNL     1       6.733   4.609  14.590  0.00  0.00    +0.000 A 
ATOM      6  N   UNL     1       6.246   3.564  15.338  0.00  0.00    +0.000 NA
ATOM      7  C   UNL     1       5.387   4.107  16.174  0.00  0.00    +0.000 A 
ATOM      8  C   UNL     1       4.569   3.541  17.167  0.00  0.00    +0.000 A 
ATOM      9  C   UNL     1       3.759   4.322  17.904  0.00  0.00    +0.000 A 
ENDROOT
BRANCH   1  13
ATOM     10  C   UNL     1       1.264   8.565  19.859  0.00  0.00    +0.000 A 
ATOM     11  C   UNL     1       1.645   8.811  18.524  0.00  0.00    +0.000 A 
ATOM     12  C   UNL     1       2.457   7.923  17.800  0.00  0.00    +0.000 A 
ATOM     13  C   UNL     1       2.934   6.753  18.397  0.00  0.00    +0.000 A 
ATOM     14  C   UNL     1       2.631   6.537  19.738  0.00  0.00    +0.000 A 
ATOM     15  C   UNL     1       1.770   7.389  20.428  0.00  0.00    +0.000 A 
BRANCH  10  16
ATOM     16  C   UNL     1       0.346   9.536  20.689  0.00  0.00    +0.000 C 
ATOM     17  C   UNL     1      -0.513   8.999  21.874  0.00  0.00    +0.000 C 
ATOM     18  C   UNL     1       0.596   9.511  22.812  0.00  0.00    +0.000 C 
ATOM     19  C   UNL     1       0.965  10.527  21.711  0.00  0.00    +0.000 C 
BRANCH  16  20
ATOM     20  N   UNL     1      -0.544  10.280  19.798  0.00  0.00    +0.000 NA
ATOM     21  H   UNL     1      -1.421   9.790  19.619  0.00  0.00    +0.000 HD
ATOM     22  H   UNL     1      -0.139  10.442  18.877  0.00  0.00    +0.000 HD
ENDBRANCH  16  20
ENDBRANCH  10  16
ENDBRANCH   1  13
BRANCH   9  23
ATOM     23  C   UNL     1       2.875   3.672  18.884  0.00  0.00    +0.000 A 
ATOM     24  C   UNL     1       3.367   3.316  20.150  0.00  0.00    +0.000 A 
ATOM     25  C   UNL     1       2.497   2.857  21.141  0.00  0.00    +0.000 A 
ATOM     26  C   UNL     1       1.144   2.684  20.852  0.00  0.00    +0.000 A 
ATOM     27  C   UNL     1       0.663   2.960  19.573  0.00  0.00    +0.000 A 
ATOM     28  C   UNL     1       1.522   3.460  18.592  0.00  0.00    +0.000 A 
ENDBRANCH   9  23
TORSDOF 4
ENDMDL
MODEL 3
REMARK VINA RESULT:      -8.9      0.276      1.353
REMARK  Name = 
REMARK  4 active torsions:
REMARK  status: ('A' for Active; 'I' for Inactive)
REMARK    1  A    between atoms: N_1  and  C_2
REMARK    2  A    between atoms: C_2  and  C_3
REMARK    3  A    between atoms: C_6  and  C_7
REMARK    4  A    between atoms: C_15  and  C_16
REMARK                            x       y       z     vdW  Elec       q    Type
REMARK                         _______ _______ _______ _____ _____    ______ ____
ROOT
ATOM      1  C   UNL     1       3.700   6.072  17.628  0.00  0.00    +0.000 A 
ATOM      2  N   UNL     1       4.472   6.500  16.667  0.00  0.00    +0.000 NA
ATOM      3  N   UNL     1       5.237   5.541  16.100  0.00  0.00    +0.000 N 
ATOM      4  C   UNL     1       6.126   5.744  15.079  0.00  0.00    +0.000 A 
ATOM      5  C   UNL     1       6.678   4.514  14.824  0.00  0.00    +0.000 A 
ATOM      6  N   UNL     1       6.147   3.557  15.654  0.00  0.00    +0.000 NA
ATOM      7  C   UNL     1       5.282   4.197  16.412  0.00  0.00    +0.000 A 
ATOM      8  C   UNL     1       4.426   3.747  17.432  0.00  0.00    +0.000 A 
ATOM      9  C   UNL     1       3.618   4.613  18.069  0.00  0.00    +0.000 A 
ENDROOT
BRANCH   1  13
ATOM     10  C   UNL     1       1.229   9.042  19.660  0.00  0.00    +0.000 A 
ATOM     11  C   UNL     1       1.778   7.929  20.329  0.00  0.00    +0.000 A 
ATOM     12  C   UNL     1       2.575   6.977  19.673  0.00  0.00    +0.000 A 
ATOM     13  C   UNL     1       2.842   7.099  18.307  0.00  0.00    +0.000 A 
ATOM     14  C   UNL     1       2.244   8.149  17.618  0.00  0.00    +0.000 A 
ATOM     15  C   UNL     1       1.510   9.125  18.289  0.00  0.00    +0.000 A 
BRANCH  10  16
ATOM     16  C   UNL     1       0.344  10.129  20.372  0.00  0.00    +0.000 C 
ATOM     17  C   UNL     1       0.930  11.533  20.716  0.00  0.00    +0.000 C 
ATOM     18  C   UNL     1       0.245  12.049  19.437  0.00  0.00    +0.000 C 
ATOM     19  C   UNL     1      -0.760  10.888  19.587  0.00  0.00    +0.000 C 
BRANCH  16  20
ATOM     20  N   UNL     1      -0.245   9.584  21.595  0.00  0.00    +0.000 NA
ATOM     21  H   UNL     1      -1.223   9.851  21.713  0.00  0.00    +0.000 HD
ATOM     22  H   UNL     1       0.221   9.909  22.441  0.00  0.00    +0.000 HD
ENDBRANCH  16  20
ENDBRANCH  10  16
ENDBRANCH   1  13
BRANCH   9  23
ATOM     23  C   UNL     1       2.694   4.080  19.082  0.00  0.00    +0.000 A 
ATOM     24  C   UNL     1       1.405   3.664  18.711  0.00  0.00    +0.000 A 
ATOM     25  C   UNL     1       0.586   3.002  19.628  0.00  0.00    +0.000 A 
ATOM     26  C   UNL     1       1.021   2.817  20.940  0.00  0.00    +0.000 A 
ATOM     27  C   UNL     1       2.268   3.298  21.336  0.00  0.00    +0.000 A 
ATOM     28  C   UNL     1       3.107   3.922  20.410  0.00  0.00    +0.000 A 
ENDBRANCH   9  23
TORSDOF 4
ENDMDL
MODEL 4
REMARK VINA RESULT:      -8.8      0.751      1.417
REMARK  Name = 
REMARK  4 active torsions:
REMARK  status: ('A' for Active; 'I' for Inactive)
REMARK    1  A    between atoms: N_1  and  C_2
REMARK    2  A    between atoms: C_2  and  C_3
REMARK    3  A    between atoms: C_6  and  C_7
REMARK    4  A    between atoms: C_15  and  C_16
REMARK                            x       y       z     vdW  Elec       q    Type
REMARK                         _______ _______ _______ _____ _____    ______ ____
ROOT
ATOM      1  C   UNL     1       3.727   5.998  17.622  0.00  0.00    +0.000 A 
ATOM      2  N   UNL     1       4.489   6.425  16.652  0.00  0.00    +0.000 NA
ATOM      3  N   UNL     1       5.263   5.469  16.092  0.00  0.00    +0.000 N 
ATOM      4  C   UNL     1       6.143   5.670  15.065  0.00  0.00    +0.000 A 
ATOM      5  C   UNL     1       6.709   4.445  14.820  0.00  0.00    +0.000 A 
ATOM      6  N   UNL     1       6.193   3.490  15.663  0.00  0.00    +0.000 NA
ATOM      7  C   UNL     1       5.324   4.129  16.418  0.00  0.00    +0.000 A 
ATOM      8  C   UNL     1       4.478   3.680  17.447  0.00  0.00    +0.000 A 
ATOM      9  C   UNL     1       3.664   4.543  18.079  0.00  0.00    +0.000 A 
ENDROOT
BRANCH   1  13
ATOM     10  C   UNL     1       1.182   8.995  19.519  0.00  0.00    +0.000 A 
ATOM     11  C   UNL     1       1.545   9.063  18.158  0.00  0.00    +0.000 A 
ATOM     12  C   UNL     1       2.361   8.095  17.551  0.00  0.00    +0.000 A 
ATOM     13  C   UNL     1       2.860   7.022  18.294  0.00  0.00    +0.000 A 
ATOM     14  C   UNL     1       2.574   6.985  19.655  0.00  0.00    +0.000 A 
ATOM     15  C   UNL     1       1.710   7.912  20.235  0.00  0.00    +0.000 A 
BRANCH  10  16
ATOM     16  C   UNL     1       0.260  10.058  20.222  0.00  0.00    +0.000 C 
ATOM     17  C   UNL     1      -0.671   9.646  21.403  0.00  0.00    +0.000 C 
ATOM     18  C   UNL     1       0.410  10.200  22.350  0.00  0.00    +0.000 C 
ATOM     19  C   UNL     1       0.864  11.111  21.190  0.00  0.00    +0.000 C 
BRANCH  16  20
ATOM     20  N   UNL     1      -0.562  10.752  19.231  0.00  0.00    +0.000 NA
ATOM     21  H   UNL     1      -0.010  11.331  18.598  0.00  0.00    +0.000 HD
ATOM     22  H   UNL     1      -1.237  11.390  19.651  0.00  0.00    +0.000 HD
ENDBRANCH  16  20
ENDBRANCH  10  16
ENDBRANCH   1  13
BRANCH   9  23
ATOM     23  C   UNL     1       2.751   4.011  19.102  0.00  0.00    +0.000 A 
ATOM     24  C   UNL     1       1.421   3.705  18.770  0.00  0.00    +0.000 A 
ATOM     25  C   UNL     1       0.600   3.043  19.685  0.00  0.00    +0.000 A 
ATOM     26  C   UNL     1       1.078   2.748  20.961  0.00  0.00    +0.000 A 
ATOM     27  C   UNL     1       2.372   3.120  21.324  0.00  0.00    +0.000 A 
ATOM     28  C   UNL     1       3.210   3.743  20.397  0.00  0.00    +0.000 A 
ENDBRANCH   9  23
TORSDOF 4
ENDMDL
MODEL 5
REMARK VINA RESULT:      -8.8      3.144      5.481
REMARK  Name = 
REMARK  4 active torsions:
REMARK  status: ('A' for Active; 'I' for Inactive)
REMARK    1  A    between atoms: N_1  and  C_2
REMARK    2  A    between atoms: C_2  and  C_3
REMARK    3  A    between atoms: C_6  and  C_7
REMARK    4  A    between atoms: C_15  and  C_16
REMARK                            x       y       z     vdW  Elec       q    Type
REMARK                         _______ _______ _______ _____ _____    ______ ____
ROOT
ATOM      1  C   UNL     1       5.337   4.441  15.567  0.00  0.00    +0.000 A 
ATOM      2  N   UNL     1       4.862   3.799  14.535  0.00  0.00    +0.000 NA
ATOM      3  N   UNL     1       5.670   3.812  13.452  0.00  0.00    +0.000 N 
ATOM      4  C   UNL     1       5.392   3.212  12.254  0.00  0.00    +0.000 A 
ATOM      5  C   UNL     1       6.472   3.477  11.450  0.00  0.00    +0.000 A 
ATOM      6  N   UNL     1       7.414   4.217  12.125  0.00  0.00    +0.000 NA
ATOM      7  C   UNL     1       6.911   4.405  13.326  0.00  0.00    +0.000 A 
ATOM      8  C   UNL     1       7.420   5.071  14.455  0.00  0.00    +0.000 A 
ATOM      9  C   UNL     1       6.702   5.124  15.591  0.00  0.00    +0.000 A 
ENDROOT
BRANCH   1  13
ATOM     10  C   UNL     1       2.836   4.481  19.144  0.00  0.00    +0.000 A 
ATOM     11  C   UNL     1       3.231   3.284  18.510  0.00  0.00    +0.000 A 
ATOM     12  C   UNL     1       4.039   3.276  17.362  0.00  0.00    +0.000 A 
ATOM     13  C   UNL     1       4.471   4.476  16.792  0.00  0.00    +0.000 A 
ATOM     14  C   UNL     1       4.025   5.664  17.360  0.00  0.00    +0.000 A 
ATOM     15  C   UNL     1       3.280   5.664  18.538  0.00  0.00    +0.000 A 
BRANCH  10  16
ATOM     16  C   UNL     1       1.942   4.520  20.438  0.00  0.00    +0.000 C 
ATOM     17  C   UNL     1       0.584   3.756  20.490  0.00  0.00    +0.000 C 
ATOM     18  C   UNL     1       1.330   2.634  21.237  0.00  0.00    +0.000 C 
ATOM     19  C   UNL     1       2.341   3.705  21.698  0.00  0.00    +0.000 C 
BRANCH  16  20
ATOM     20  N   UNL     1       1.688   5.903  20.839  0.00  0.00    +0.000 NA
ATOM     21  H   UNL     1       1.561   6.527  20.041  0.00  0.00    +0.000 HD
ATOM     22  H   UNL     1       2.455   6.310  21.372  0.00  0.00    +0.000 HD
ENDBRANCH  16  20
ENDBRANCH  10  16
ENDBRANCH   1  13
BRANCH   9  23
ATOM     23  C   UNL     1       7.308   5.775  16.763  0.00  0.00    +0.000 A 
ATOM     24  C   UNL     1       7.502   7.166  16.774  0.00  0.00    +0.000 A 
ATOM     25  C   UNL     1       7.916   7.810  17.941  0.00  0.00    +0.000 A 
ATOM     26  C   UNL     1       8.207   7.063  19.082  0.00  0.00    +0.000 A 
ATOM     27  C   UNL     1       8.093   5.674  19.053  0.00  0.00    +0.000 A 
ATOM     28  C   UNL     1       7.637   5.029  17.900  0.00  0.00    +0.000 A 
ENDBRANCH   9  23
TORSDOF 4
ENDMDL
MODEL 6
REMARK VINA RESULT:      -8.1      3.441      5.553
REMARK  Name = 
REMARK  4 active torsions:
REMARK  status: ('A' for Active; 'I' for Inactive)
REMARK    1  A    between atoms: N_1  and  C_2
REMARK    2  A    between atoms: C_2  and  C_3
REMARK    3  A    between atoms: C_6  and  C_7
REMARK    4  A    between atoms: C_15  and  C_16
REMARK                            x       y       z     vdW  Elec       q    Type
REMARK                         _______ _______ _______ _____ _____    ______ ____
ROOT
ATOM      1  C   UNL     1       5.400   4.162  15.393  0.00  0.00    +0.000 A 
ATOM      2  N   UNL     1       5.080   3.551  14.285  0.00  0.00    +0.000 NA
ATOM      3  N   UNL     1       5.942   3.763  13.266  0.00  0.00    +0.000 N 
ATOM      4  C   UNL     1       5.820   3.234  12.009  0.00  0.00    +0.000 A 
ATOM      5  C   UNL     1       6.899   3.707  11.306  0.00  0.00    +0.000 A 
ATOM      6  N   UNL     1       7.689   4.506  12.099  0.00  0.00    +0.000 NA
ATOM      7  C   UNL     1       7.094   4.523  13.273  0.00  0.00    +0.000 A 
ATOM      8  C   UNL     1       7.438   5.154  14.482  0.00  0.00    +0.000 A 
ATOM      9  C   UNL     1       6.653   5.015  15.564  0.00  0.00    +0.000 A 
ENDROOT
BRANCH   1  13
ATOM     10  C   UNL     1       2.657   3.685  18.755  0.00  0.00    +0.000 A 
ATOM     11  C   UNL     1       2.961   4.945  18.201  0.00  0.00    +0.000 A 
ATOM     12  C   UNL     1       3.842   5.094  17.117  0.00  0.00    +0.000 A 
ATOM     13  C   UNL     1       4.466   3.979  16.554  0.00  0.00    +0.000 A 
ATOM     14  C   UNL     1       4.236   2.739  17.140  0.00  0.00    +0.000 A 
ATOM     15  C   UNL     1       3.310   2.591  18.172  0.00  0.00    +0.000 A 
BRANCH  10  16
ATOM     16  C   UNL     1       1.665   3.488  19.960  0.00  0.00    +0.000 C 
ATOM     17  C   UNL     1       2.113   2.719  21.241  0.00  0.00    +0.000 C 
ATOM     18  C   UNL     1       2.365   4.095  21.887  0.00  0.00    +0.000 C 
ATOM     19  C   UNL     1       1.324   4.671  20.905  0.00  0.00    +0.000 C 
BRANCH  16  20
ATOM     20  N   UNL     1       0.415   2.886  19.497  0.00  0.00    +0.000 NA
ATOM     21  H   UNL     1       0.011   2.244  20.179  0.00  0.00    +0.000 HD
ATOM     22  H   UNL     1       0.532   2.331  18.650  0.00  0.00    +0.000 HD
ENDBRANCH  16  20
ENDBRANCH  10  16
ENDBRANCH   1  13
BRANCH   9  23
ATOM     23  C   UNL     1       7.093   5.640  16.822  0.00  0.00    +0.000 A 
ATOM     24  C   UNL     1       7.423   4.841  17.928  0.00  0.00    +0.000 A 
ATOM     25  C   UNL     1       8.001   5.412  19.063  0.00  0.00    +0.000 A 
ATOM     26  C   UNL     1       8.187   6.793  19.129  0.00  0.00    +0.000 A 
ATOM     27  C   UNL     1       7.788   7.601  18.066  0.00  0.00    +0.000 A 
ATOM     28  C   UNL     1       7.249   7.029  16.911  0.00  0.00    +0.000 A 
ENDBRANCH   9  23
TORSDOF 4
ENDMDL
MODEL 7
REMARK VINA RESULT:      -7.9      1.672      6.785
REMARK  Name = 
REMARK  4 active torsions:
REMARK  status: ('A' for Active; 'I' for Inactive)
REMARK    1  A    between atoms: N_1  and  C_2
REMARK    2  A    between atoms: C_2  and  C_3
REMARK    3  A    between atoms: C_6  and  C_7
REMARK    4  A    between atoms: C_15  and  C_16
REMARK                            x       y       z     vdW  Elec       q    Type
REMARK                         _______ _______ _______ _____ _____    ______ ____
ROOT
ATOM      1  C   UNL     1       2.385   7.136  19.592  0.00  0.00    +0.000 A 
ATOM      2  N   UNL     1       2.321   8.440  19.591  0.00  0.00    +0.000 NA
ATOM      3  N   UNL     1       1.337   8.947  20.366  0.00  0.00    +0.000 N 
ATOM      4  C   UNL     1       1.068  10.280  20.526  0.00  0.00    +0.000 A 
ATOM      5  C   UNL     1      -0.000  10.339  21.385  0.00  0.00    +0.000 A 
ATOM      6  N   UNL     1      -0.392   9.078  21.766  0.00  0.00    +0.000 NA
ATOM      7  C   UNL     1       0.427   8.258  21.142  0.00  0.00    +0.000 A 
ATOM      8  C   UNL     1       0.526   6.855  21.152  0.00  0.00    +0.000 A 
ATOM      9  C   UNL     1       1.468   6.238  20.417  0.00  0.00    +0.000 A 
ENDROOT
BRANCH   1  13
ATOM     10  C   UNL     1       5.479   5.285  17.132  0.00  0.00    +0.000 A 
ATOM     11  C   UNL     1       5.290   4.949  18.488  0.00  0.00    +0.000 A 
ATOM     12  C   UNL     1       4.291   5.545  19.275  0.00  0.00    +0.000 A 
ATOM     13  C   UNL     1       3.448   6.517  18.732  0.00  0.00    +0.000 A 
ATOM     14  C   UNL     1       3.674   6.914  17.419  0.00  0.00    +0.000 A 
ATOM     15  C   UNL     1       4.622   6.271  16.625  0.00  0.00    +0.000 A 
BRANCH  10  16
ATOM     16  C   UNL     1       6.581   4.626  16.224  0.00  0.00    +0.000 C 
ATOM     17  C   UNL     1       6.235   3.415  15.303  0.00  0.00    +0.000 C 
ATOM     18  C   UNL     1       6.119   4.426  14.146  0.00  0.00    +0.000 C 
ATOM     19  C   UNL     1       7.077   5.340  14.938  0.00  0.00    +0.000 C 
BRANCH  16  20
ATOM     20  N   UNL     1       7.745   4.251  17.027  0.00  0.00    +0.000 NA
ATOM     21  H   UNL     1       8.158   3.366  16.733  0.00  0.00    +0.000 HD
ATOM     22  H   UNL     1       7.523   4.124  18.014  0.00  0.00    +0.000 HD
ENDBRANCH  16  20
ENDBRANCH  10  16
ENDBRANCH   1  13
BRANCH   9  23
ATOM     23  C   UNL     1       1.572   4.774  20.515  0.00  0.00    +0.000 A 
ATOM     24  C   UNL     1       1.049   3.961  19.496  0.00  0.00    +0.000 A 
ATOM     25  C   UNL     1       1.293   2.586  19.496  0.00  0.00    +0.000 A 
ATOM     26  C   UNL     1       1.998   2.005  20.549  0.00  0.00    +0.000 A 
ATOM     27  C   UNL     1       2.451   2.796  21.604  0.00  0.00    +0.000 A 
ATOM     28  C   UNL     1       2.247   4.178  21.586  0.00  0.00    +0.000 A 
ENDBRANCH   9  23
TORSDOF 4
ENDMDL
MODEL 8
REMARK VINA RESULT:      -7.7      1.485      6.675
REMARK  Name = 
REMARK  4 active torsions:
REMARK  status: ('A' for Active; 'I' for Inactive)
REMARK    1  A    between atoms: N_1  and  C_2
REMARK    2  A    between atoms: C_2  and  C_3
REMARK    3  A    between atoms: C_6  and  C_7
REMARK    4  A    between atoms: C_15  and  C_16
REMARK                            x       y       z     vdW  Elec       q    Type
REMARK                         _______ _______ _______ _____ _____    ______ ____
ROOT
ATOM      1  C   UNL     1       2.349   7.293  19.136  0.00  0.00    +0.000 A 
ATOM      2  N   UNL     1       2.259   8.584  18.969  0.00  0.00    +0.000 NA
ATOM      3  N   UNL     1       1.329   9.181  19.747  0.00  0.00    +0.000 N 
ATOM      4  C   UNL     1       1.048  10.521  19.751  0.00  0.00    +0.000 A 
ATOM      5  C   UNL     1       0.049  10.683  20.677  0.00  0.00    +0.000 A 
ATOM      6  N   UNL     1      -0.287   9.480  21.251  0.00  0.00    +0.000 NA
ATOM      7  C   UNL     1       0.497   8.592  20.677  0.00  0.00    +0.000 A 
ATOM      8  C   UNL     1       0.624   7.205  20.864  0.00  0.00    +0.000 A 
ATOM      9  C   UNL     1       1.518   6.504  20.143  0.00  0.00    +0.000 A 
ENDROOT
BRANCH   1  13
ATOM     10  C   UNL     1       5.315   5.247  16.672  0.00  0.00    +0.000 A 
ATOM     11  C   UNL     1       5.472   6.584  17.090  0.00  0.00    +0.000 A 
ATOM     12  C   UNL     1       4.517   7.238  17.886  0.00  0.00    +0.000 A 
ATOM     13  C   UNL     1       3.353   6.575  18.282  0.00  0.00    +0.000 A 
ATOM     14  C   UNL     1       3.149   5.282  17.812  0.00  0.00    +0.000 A 
ATOM     15  C   UNL     1       4.131   4.618  17.079  0.00  0.00    +0.000 A 
BRANCH  10  16
ATOM     16  C   UNL     1       6.374   4.487  15.791  0.00  0.00    +0.000 C 
ATOM     17  C   UNL     1       5.973   3.211  14.990  0.00  0.00    +0.000 C 
ATOM     18  C   UNL     1       5.841   4.120  13.754  0.00  0.00    +0.000 C 
ATOM     19  C   UNL     1       6.843   5.077  14.434  0.00  0.00    +0.000 C 
BRANCH  16  20
ATOM     20  N   UNL     1       7.555   4.156  16.589  0.00  0.00    +0.000 NA
ATOM     21  H   UNL     1       8.239   4.912  16.611  0.00  0.00    +0.000 HD
ATOM     22  H   UNL     1       8.064   3.350  16.228  0.00  0.00    +0.000 HD
ENDBRANCH  16  20
ENDBRANCH  10  16
ENDBRANCH   1  13
BRANCH   9  23
ATOM     23  C   UNL     1       1.658   5.067  20.423  0.00  0.00    +0.000 A 
ATOM     24  C   UNL     1       2.573   4.624  21.392  0.00  0.00    +0.000 A 
ATOM     25  C   UNL     1       2.591   3.284  21.785  0.00  0.00    +0.000 A 
ATOM     26  C   UNL     1       1.748   2.366  21.161  0.00  0.00    +0.000 A 
ATOM     27  C   UNL     1       0.892   2.784  20.142  0.00  0.00    +0.000 A 
ATOM     28  C   UNL     1       0.841   4.132  19.777  0.00  0.00    +0.000 A 
ENDBRANCH   9  23
TORSDOF 4
ENDMDL
MODEL 9
REMARK VINA RESULT:      -7.5      3.118      8.222
REMARK  Name = 
REMARK  4 active torsions:
REMARK  status: ('A' for Active; 'I' for Inactive)
REMARK    1  A    between atoms: N_1  and  C_2
REMARK    2  A    between atoms: C_2  and  C_3
REMARK    3  A    between atoms: C_6  and  C_7
REMARK    4  A    between atoms: C_15  and  C_16
REMARK                            x       y       z     vdW  Elec       q    Type
REMARK                         _______ _______ _______ _____ _____    ______ ____
ROOT
ATOM      1  C   UNL     1       1.076  11.938  19.025  0.00  0.00    +0.000 A 
ATOM      2  N   UNL     1       2.031  12.756  19.376  0.00  0.00    +0.000 NA
ATOM      3  N   UNL     1       1.710  14.064  19.264  0.00  0.00    +0.000 N 
ATOM      4  C   UNL     1       2.541  15.108  19.568  0.00  0.00    +0.000 A 
ATOM      5  C   UNL     1       1.817  16.243  19.305  0.00  0.00    +0.000 A 
ATOM      6  N   UNL     1       0.557  15.927  18.856  0.00  0.00    +0.000 NA
ATOM      7  C   UNL     1       0.515  14.611  18.841  0.00  0.00    +0.000 A 
ATOM      8  C   UNL     1      -0.512  13.716  18.491  0.00  0.00    +0.000 A 
ATOM      9  C   UNL     1      -0.306  12.389  18.563  0.00  0.00    +0.000 A 
ENDROOT
BRANCH   1  13
ATOM     10  C   UNL     1       2.017   7.680  19.227  0.00  0.00    +0.000 A 
ATOM     11  C   UNL     1       2.270   8.457  18.078  0.00  0.00    +0.000 A 
ATOM     12  C   UNL     1       1.969   9.827  18.018  0.00  0.00    +0.000 A 
ATOM     13  C   UNL     1       1.385  10.472  19.111  0.00  0.00    +0.000 A 
ATOM     14  C   UNL     1       1.059   9.702  20.223  0.00  0.00    +0.000 A 
ATOM     15  C   UNL     1       1.422   8.358  20.299  0.00  0.00    +0.000 A 
BRANCH  10  16
ATOM     16  C   UNL     1       2.356   6.147  19.326  0.00  0.00    +0.000 C 
ATOM     17  C   UNL     1       2.093   5.194  18.120  0.00  0.00    +0.000 C 
ATOM     18  C   UNL     1       3.588   5.335  17.780  0.00  0.00    +0.000 C 
ATOM     19  C   UNL     1       3.828   5.658  19.270  0.00  0.00    +0.000 C 
BRANCH  16  20
ATOM     20  N   UNL     1       1.714   5.560  20.503  0.00  0.00    +0.000 NA
ATOM     21  H   UNL     1       1.813   6.141  21.336  0.00  0.00    +0.000 HD
ATOM     22  H   UNL     1       2.109   4.657  20.762  0.00  0.00    +0.000 HD
ENDBRANCH  16  20
ENDBRANCH  10  16
ENDBRANCH   1  13
BRANCH   9  23
ATOM     23  C   UNL     1      -1.433  11.497  18.250  0.00  0.00    +0.000 A 
ATOM     24  C   UNL     1      -2.703  11.747  18.796  0.00  0.00    +0.000 A 
ATOM     25  C   UNL     1      -3.810  11.010  18.371  0.00  0.00    +0.000 A 
ATOM     26  C   UNL     1      -3.645   9.973  17.456  0.00  0.00    +0.000 A 
ATOM     27  C   UNL     1      -2.374   9.667  16.970  0.00  0.00    +0.000 A 
ATOM     28  C   UNL     1      -1.270  10.430  17.359  0.00  0.00    +0.000 A 
ENDBRANCH   9  23
TORSDOF 4
ENDMDL
