MODEL 1
REMARK VINA RESULT:      -8.7      0.000      0.000
REMARK  Name = 
REMARK  5 active torsions:
REMARK  status: ('A' for Active; 'I' for Inactive)
REMARK    1  A    between atoms: C_1  and  C_2
REMARK    2  A    between atoms: C_2  and  C_3
REMARK    3  A    between atoms: C_3  and  N_4
REMARK    4  A    between atoms: C_7  and  N_8
REMARK    5  A    between atoms: C_10  and  C_11
REMARK                            x       y       z     vdW  Elec       q    Type
REMARK                         _______ _______ _______ _____ _____    ______ ____
ROOT
ATOM      1  N   UNL     1       4.422   6.002  17.509  0.00  0.00    +0.000 N 
ATOM      2  C   UNL     1       3.797   7.108  18.037  0.00  0.00    +0.000 A 
ATOM      3  C   UNL     1       2.777   6.686  18.855  0.00  0.00    +0.000 A 
ATOM      4  C   UNL     1       2.730   5.253  18.790  0.00  0.00    +0.000 A 
ATOM      5  C   UNL     1       1.920   4.217  19.322  0.00  0.00    +0.000 A 
ATOM      6  N   UNL     1       0.842   4.393  20.171  0.00  0.00    +0.000 N 
ATOM      7  N   UNL     1       2.192   2.943  18.977  0.00  0.00    +0.000 NA
ATOM      8  C   UNL     1       3.211   2.715  18.136  0.00  0.00    +0.000 A 
ATOM      9  N   UNL     1       4.042   3.608  17.557  0.00  0.00    +0.000 NA
ATOM     10  C   UNL     1       3.760   4.868  17.928  0.00  0.00    +0.000 A 
ATOM     11  H   UNL     1       0.336   5.257  20.075  0.00  0.00    +0.000 HD
ATOM     12  H   UNL     1       0.274   3.560  20.270  0.00  0.00    +0.000 HD
ENDROOT
BRANCH   3  13
ATOM     13  C   UNL     1       1.869   7.612  19.499  0.00  0.00    +0.000 A 
ATOM     14  C   UNL     1       1.643   7.557  20.896  0.00  0.00    +0.000 A 
ATOM     15  C   UNL     1       1.139   8.664  21.579  0.00  0.00    +0.000 A 
ATOM     16  C   UNL     1       0.982   9.827  20.844  0.00  0.00    +0.000 A 
ATOM     17  C   UNL     1       1.117   9.828  19.479  0.00  0.00    +0.000 A 
ATOM     18  C   UNL     1       1.436   8.710  18.759  0.00  0.00    +0.000 A 
ATOM     19  O   UNL     1       1.132  11.087  18.950  0.00  0.00    +0.000 OA
ATOM     20  C   UNL     1       1.276  11.837  20.166  0.00  0.00    +0.000 C 
ATOM     21  O   UNL     1       0.839  11.092  21.328  0.00  0.00    +0.000 OA
ENDBRANCH   3  13
BRANCH   1  25
ATOM     22  N   UNL     1       6.422   4.927  14.637  0.00  0.00    +0.000 NA
ATOM     23  C   UNL     1       7.471   5.041  15.640  0.00  0.00    +0.000 C 
ATOM     24  C   UNL     1       6.740   5.268  16.941  0.00  0.00    +0.000 C 
ATOM     25  C   UNL     1       5.510   6.099  16.547  0.00  0.00    +0.000 C 
ATOM     26  C   UNL     1       5.233   5.654  15.102  0.00  0.00    +0.000 C 
BRANCH  22  27
ATOM     27  C   UNL     1       6.194   3.617  14.017  0.00  0.00    +0.000 C 
BRANCH  27  29
ATOM     28  C   UNL     1       7.137   4.338  11.703  0.00  0.00    +0.000 C 
ATOM     29  C   UNL     1       6.096   3.540  12.484  0.00  0.00    +0.000 C 
ATOM     30  C   UNL     1       6.089   2.088  11.934  0.00  0.00    +0.000 C 
ATOM     31  O   UNL     1       4.930   2.380  11.113  0.00  0.00    +0.000 OA
ATOM     32  C   UNL     1       4.665   3.560  11.911  0.00  0.00    +0.000 C 
ENDBRANCH  27  29
ENDBRANCH  22  27
ENDBRANCH   1  25
TORSDOF 4
ENDMDL
MODEL 2
REMARK VINA RESULT:      -8.3      2.310      8.238
REMARK  Name = 
REMARK  5 active torsions:
REMARK  status: ('A' for Active; 'I' for Inactive)
REMARK    1  A    between atoms: C_1  and  C_2
REMARK    2  A    between atoms: C_2  and  C_3
REMARK    3  A    between atoms: C_3  and  N_4
REMARK    4  A    between atoms: C_7  and  N_8
REMARK    5  A    between atoms: C_10  and  C_11
REMARK                            x       y       z     vdW  Elec       q    Type
REMARK                         _______ _______ _______ _____ _____    ______ ____
ROOT
ATOM      1  N   UNL     1       1.925   6.652  20.054  0.00  0.00    +0.000 N 
ATOM      2  C   UNL     1       3.045   7.037  19.355  0.00  0.00    +0.000 A 
ATOM      3  C   UNL     1       3.693   5.910  18.909  0.00  0.00    +0.000 A 
ATOM      4  C   UNL     1       2.972   4.769  19.400  0.00  0.00    +0.000 A 
ATOM      5  C   UNL     1       3.113   3.359  19.363  0.00  0.00    +0.000 A 
ATOM      6  N   UNL     1       4.126   2.667  18.723  0.00  0.00    +0.000 N 
ATOM      7  N   UNL     1       2.204   2.602  20.008  0.00  0.00    +0.000 NA
ATOM      8  C   UNL     1       1.214   3.219  20.666  0.00  0.00    +0.000 A 
ATOM      9  N   UNL     1       0.977   4.543  20.786  0.00  0.00    +0.000 NA
ATOM     10  C   UNL     1       1.888   5.276  20.122  0.00  0.00    +0.000 A 
ATOM     11  H   UNL     1       5.013   3.138  18.656  0.00  0.00    +0.000 HD
ATOM     12  H   UNL     1       4.167   1.689  18.984  0.00  0.00    +0.000 HD
ENDROOT
BRANCH   3  13
ATOM     13  C   UNL     1       4.958   5.971  18.208  0.00  0.00    +0.000 A 
ATOM     14  C   UNL     1       6.135   5.432  18.783  0.00  0.00    +0.000 A 
ATOM     15  C   UNL     1       7.228   5.096  17.983  0.00  0.00    +0.000 A 
ATOM     16  C   UNL     1       7.053   5.214  16.615  0.00  0.00    +0.000 A 
ATOM     17  C   UNL     1       5.943   5.825  16.090  0.00  0.00    +0.000 A 
ATOM     18  C   UNL     1       4.932   6.329  16.862  0.00  0.00    +0.000 A 
ATOM     19  O   UNL     1       5.842   5.668  14.737  0.00  0.00    +0.000 OA
ATOM     20  C   UNL     1       6.853   4.666  14.554  0.00  0.00    +0.000 C 
ATOM     21  O   UNL     1       7.814   4.647  15.637  0.00  0.00    +0.000 OA
ENDBRANCH   3  13
BRANCH   1  25
ATOM     22  N   UNL     1       0.422   9.941  20.626  0.00  0.00    +0.000 NA
ATOM     23  C   UNL     1       0.912   9.657  21.967  0.00  0.00    +0.000 C 
ATOM     24  C   UNL     1       1.755   8.413  21.817  0.00  0.00    +0.000 C 
ATOM     25  C   UNL     1       1.048   7.605  20.717  0.00  0.00    +0.000 C 
ATOM     26  C   UNL     1       0.384   8.691  19.854  0.00  0.00    +0.000 C 
BRANCH  22  27
ATOM     27  C   UNL     1       0.937  11.127  19.935  0.00  0.00    +0.000 C 
BRANCH  27  29
ATOM     28  C   UNL     1       0.540  13.511  18.975  0.00  0.00    +0.000 C 
ATOM     29  C   UNL     1      -0.064  12.202  19.480  0.00  0.00    +0.000 C 
ATOM     30  C   UNL     1      -1.078  11.698  18.418  0.00  0.00    +0.000 C 
ATOM     31  O   UNL     1      -2.183  12.247  19.180  0.00  0.00    +0.000 OA
ATOM     32  C   UNL     1      -1.330  12.337  20.348  0.00  0.00    +0.000 C 
ENDBRANCH  27  29
ENDBRANCH  22  27
ENDBRANCH   1  25
TORSDOF 4
ENDMDL
MODEL 3
REMARK VINA RESULT:      -8.3      2.233      8.387
REMARK  Name = 
REMARK  5 active torsions:
REMARK  status: ('A' for Active; 'I' for Inactive)
REMARK    1  A    between atoms: C_1  and  C_2
REMARK    2  A    between atoms: C_2  and  C_3
REMARK    3  A    between atoms: C_3  and  N_4
REMARK    4  A    between atoms: C_7  and  N_8
REMARK    5  A    between atoms: C_10  and  C_11
REMARK                            x       y       z     vdW  Elec       q    Type
REMARK                         _______ _______ _______ _____ _____    ______ ____
ROOT
ATOM      1  N   UNL     1       2.034   6.957  19.799  0.00  0.00    +0.000 N 
ATOM      2  C   UNL     1       2.986   7.314  18.873  0.00  0.00    +0.000 A 
ATOM      3  C   UNL     1       3.761   6.214  18.595  0.00  0.00    +0.000 A 
ATOM      4  C   UNL     1       3.304   5.137  19.428  0.00  0.00    +0.000 A 
ATOM      5  C   UNL     1       3.678   3.792  19.682  0.00  0.00    +0.000 A 
ATOM      6  N   UNL     1       4.715   3.114  19.066  0.00  0.00    +0.000 N 
ATOM      7  N   UNL     1       2.989   3.095  20.606  0.00  0.00    +0.000 NA
ATOM      8  C   UNL     1       1.989   3.709  21.253  0.00  0.00    +0.000 A 
ATOM      9  N   UNL     1       1.546   4.977  21.112  0.00  0.00    +0.000 NA
ATOM     10  C   UNL     1       2.239   5.647  20.174  0.00  0.00    +0.000 A 
ATOM     11  H   UNL     1       5.495   3.674  18.766  0.00  0.00    +0.000 HD
ATOM     12  H   UNL     1       4.951   2.244  19.528  0.00  0.00    +0.000 HD
ENDROOT
BRANCH   3  13
ATOM     13  C   UNL     1       4.910   6.279  17.718  0.00  0.00    +0.000 A 
ATOM     14  C   UNL     1       6.225   6.163  18.230  0.00  0.00    +0.000 A 
ATOM     15  C   UNL     1       7.284   5.796  17.399  0.00  0.00    +0.000 A 
ATOM     16  C   UNL     1       6.958   5.451  16.098  0.00  0.00    +0.000 A 
ATOM     17  C   UNL     1       5.697   5.662  15.601  0.00  0.00    +0.000 A 
ATOM     18  C   UNL     1       4.680   6.192  16.346  0.00  0.00    +0.000 A 
ATOM     19  O   UNL     1       5.504   5.078  14.382  0.00  0.00    +0.000 OA
ATOM     20  C   UNL     1       6.687   4.265  14.335  0.00  0.00    +0.000 C 
ATOM     21  O   UNL     1       7.727   4.754  15.215  0.00  0.00    +0.000 OA
ENDBRANCH   3  13
BRANCH   1  25
ATOM     22  N   UNL     1       0.673  10.293  20.451  0.00  0.00    +0.000 NA
ATOM     23  C   UNL     1       0.787   9.802  21.816  0.00  0.00    +0.000 C 
ATOM     24  C   UNL     1       1.549   8.504  21.699  0.00  0.00    +0.000 C 
ATOM     25  C   UNL     1       1.087   7.911  20.359  0.00  0.00    +0.000 C 
ATOM     26  C   UNL     1       0.743   9.155  19.524  0.00  0.00    +0.000 C 
BRANCH  22  27
ATOM     27  C   UNL     1       1.430  11.493  20.080  0.00  0.00    +0.000 C 
BRANCH  27  29
ATOM     28  C   UNL     1       0.846  13.800  21.130  0.00  0.00    +0.000 C 
ATOM     29  C   UNL     1       0.675  12.828  19.964  0.00  0.00    +0.000 C 
ATOM     30  C   UNL     1       0.970  13.598  18.648  0.00  0.00    +0.000 C 
ATOM     31  O   UNL     1      -0.449  13.786  18.414  0.00  0.00    +0.000 OA
ATOM     32  C   UNL     1      -0.744  12.737  19.368  0.00  0.00    +0.000 C 
ENDBRANCH  27  29
ENDBRANCH  22  27
ENDBRANCH   1  25
TORSDOF 4
ENDMDL
MODEL 4
REMARK VINA RESULT:      -7.9      2.112      7.922
REMARK  Name = 
REMARK  5 active torsions:
REMARK  status: ('A' for Active; 'I' for Inactive)
REMARK    1  A    between atoms: C_1  and  C_2
REMARK    2  A    between atoms: C_2  and  C_3
REMARK    3  A    between atoms: C_3  and  N_4
REMARK    4  A    between atoms: C_7  and  N_8
REMARK    5  A    between atoms: C_10  and  C_11
REMARK                            x       y       z     vdW  Elec       q    Type
REMARK                         _______ _______ _______ _____ _____    ______ ____
ROOT
ATOM      1  N   UNL     1       1.953   6.358  20.324  0.00  0.00    +0.000 N 
ATOM      2  C   UNL     1       3.059   6.834  19.660  0.00  0.00    +0.000 A 
ATOM      3  C   UNL     1       3.623   5.801  18.951  0.00  0.00    +0.000 A 
ATOM      4  C   UNL     1       2.864   4.615  19.230  0.00  0.00    +0.000 A 
ATOM      5  C   UNL     1       2.926   3.240  18.888  0.00  0.00    +0.000 A 
ATOM      6  N   UNL     1       3.870   2.657  18.060  0.00  0.00    +0.000 N 
ATOM      7  N   UNL     1       2.007   2.403  19.408  0.00  0.00    +0.000 NA
ATOM      8  C   UNL     1       1.083   2.908  20.237  0.00  0.00    +0.000 A 
ATOM      9  N   UNL     1       0.926   4.185  20.647  0.00  0.00    +0.000 NA
ATOM     10  C   UNL     1       1.844   5.002  20.102  0.00  0.00    +0.000 A 
ATOM     11  H   UNL     1       4.776   3.092  18.045  0.00  0.00    +0.000 HD
ATOM     12  H   UNL     1       3.869   1.645  18.106  0.00  0.00    +0.000 HD
ENDROOT
BRANCH   3  13
ATOM     13  C   UNL     1       4.856   5.955  18.209  0.00  0.00    +0.000 A 
ATOM     14  C   UNL     1       6.089   5.504  18.742  0.00  0.00    +0.000 A 
ATOM     15  C   UNL     1       7.176   5.249  17.906  0.00  0.00    +0.000 A 
ATOM     16  C   UNL     1       6.947   5.354  16.544  0.00  0.00    +0.000 A 
ATOM     17  C   UNL     1       5.779   5.882  16.058  0.00  0.00    +0.000 A 
ATOM     18  C   UNL     1       4.760   6.311  16.865  0.00  0.00    +0.000 A 
ATOM     19  O   UNL     1       5.645   5.719  14.709  0.00  0.00    +0.000 OA
ATOM     20  C   UNL     1       6.720   4.793  14.490  0.00  0.00    +0.000 C 
ATOM     21  O   UNL     1       7.715   4.845  15.540  0.00  0.00    +0.000 OA
ENDBRANCH   3  13
BRANCH   1  25
ATOM     22  N   UNL     1      -0.304   9.112  21.179  0.00  0.00    +0.000 NA
ATOM     23  C   UNL     1       0.793   9.398  22.092  0.00  0.00    +0.000 C 
ATOM     24  C   UNL     1       1.896   8.453  21.683  0.00  0.00    +0.000 C 
ATOM     25  C   UNL     1       1.160   7.185  21.222  0.00  0.00    +0.000 C 
ATOM     26  C   UNL     1      -0.181   7.727  20.702  0.00  0.00    +0.000 C 
BRANCH  22  27
ATOM     27  C   UNL     1      -0.657  10.125  20.179  0.00  0.00    +0.000 C 
BRANCH  27  29
ATOM     28  C   UNL     1       1.285   9.908  18.463  0.00  0.00    +0.000 C 
ATOM     29  C   UNL     1       0.477  10.807  19.396  0.00  0.00    +0.000 C 
ATOM     30  C   UNL     1       0.016  12.050  18.588  0.00  0.00    +0.000 C 
ATOM     31  O   UNL     1       1.107  12.836  19.130  0.00  0.00    +0.000 OA
ATOM     32  C   UNL     1       1.286  11.857  20.184  0.00  0.00    +0.000 C 
ENDBRANCH  27  29
ENDBRANCH  22  27
ENDBRANCH   1  25
TORSDOF 4
ENDMDL
MODEL 5
REMARK VINA RESULT:      -7.8      2.231      8.002
REMARK  Name = 
REMARK  5 active torsions:
REMARK  status: ('A' for Active; 'I' for Inactive)
REMARK    1  A    between atoms: C_1  and  C_2
REMARK    2  A    between atoms: C_2  and  C_3
REMARK    3  A    between atoms: C_3  and  N_4
REMARK    4  A    between atoms: C_7  and  N_8
REMARK    5  A    between atoms: C_10  and  C_11
REMARK                            x       y       z     vdW  Elec       q    Type
REMARK                         _______ _______ _______ _____ _____    ______ ____
ROOT
ATOM      1  N   UNL     1       1.945   6.998  19.933  0.00  0.00    +0.000 N 
ATOM      2  C   UNL     1       2.988   7.386  19.124  0.00  0.00    +0.000 A 
ATOM      3  C   UNL     1       3.682   6.265  18.737  0.00  0.00    +0.000 A 
ATOM      4  C   UNL     1       3.076   5.133  19.379  0.00  0.00    +0.000 A 
ATOM      5  C   UNL     1       3.313   3.737  19.460  0.00  0.00    +0.000 A 
ATOM      6  N   UNL     1       4.328   3.053  18.815  0.00  0.00    +0.000 N 
ATOM      7  N   UNL     1       2.502   2.988  20.233  0.00  0.00    +0.000 NA
ATOM      8  C   UNL     1       1.516   3.601  20.902  0.00  0.00    +0.000 A 
ATOM      9  N   UNL     1       1.196   4.913  20.918  0.00  0.00    +0.000 NA
ATOM     10  C   UNL     1       2.009   5.635  20.128  0.00  0.00    +0.000 A 
ATOM     11  H   UNL     1       5.173   3.571  18.643  0.00  0.00    +0.000 HD
ATOM     12  H   UNL     1       4.454   2.109  19.160  0.00  0.00    +0.000 HD
ENDROOT
BRANCH   3  13
ATOM     13  C   UNL     1       4.892   6.339  17.946  0.00  0.00    +0.000 A 
ATOM     14  C   UNL     1       6.146   5.977  18.496  0.00  0.00    +0.000 A 
ATOM     15  C   UNL     1       7.214   5.632  17.668  0.00  0.00    +0.000 A 
ATOM     16  C   UNL     1       6.947   5.559  16.311  0.00  0.00    +0.000 A 
ATOM     17  C   UNL     1       5.756   6.005  15.796  0.00  0.00    +0.000 A 
ATOM     18  C   UNL     1       4.753   6.519  16.571  0.00  0.00    +0.000 A 
ATOM     19  O   UNL     1       5.588   5.669  14.483  0.00  0.00    +0.000 OA
ATOM     20  C   UNL     1       6.673   4.737  14.352  0.00  0.00    +0.000 C 
ATOM     21  O   UNL     1       7.695   4.936  15.358  0.00  0.00    +0.000 OA
ENDBRANCH   3  13
BRANCH   1  25
ATOM     22  N   UNL     1       0.772  10.338  20.872  0.00  0.00    +0.000 NA
ATOM     23  C   UNL     1       0.837   9.719  22.188  0.00  0.00    +0.000 C 
ATOM     24  C   UNL     1       1.524   8.394  21.961  0.00  0.00    +0.000 C 
ATOM     25  C   UNL     1       1.048   7.952  20.568  0.00  0.00    +0.000 C 
ATOM     26  C   UNL     1       0.790   9.285  19.846  0.00  0.00    +0.000 C 
BRANCH  22  27
ATOM     27  C   UNL     1       1.604  11.519  20.618  0.00  0.00    +0.000 C 
BRANCH  27  29
ATOM     28  C   UNL     1      -0.052  12.643  18.957  0.00  0.00    +0.000 C 
ATOM     29  C   UNL     1       1.393  12.294  19.307  0.00  0.00    +0.000 C 
ATOM     30  C   UNL     1       2.240  13.592  19.209  0.00  0.00    +0.000 C 
ATOM     31  O   UNL     1       2.700  13.219  17.885  0.00  0.00    +0.000 OA
ATOM     32  C   UNL     1       2.282  11.853  18.127  0.00  0.00    +0.000 C 
ENDBRANCH  27  29
ENDBRANCH  22  27
ENDBRANCH   1  25
TORSDOF 4
ENDMDL
MODEL 6
REMARK VINA RESULT:      -7.7      3.161      8.367
REMARK  Name = 
REMARK  5 active torsions:
REMARK  status: ('A' for Active; 'I' for Inactive)
REMARK    1  A    between atoms: C_1  and  C_2
REMARK    2  A    between atoms: C_2  and  C_3
REMARK    3  A    between atoms: C_3  and  N_4
REMARK    4  A    between atoms: C_7  and  N_8
REMARK    5  A    between atoms: C_10  and  C_11
REMARK                            x       y       z     vdW  Elec       q    Type
REMARK                         _______ _______ _______ _____ _____    ______ ____
ROOT
ATOM      1  N   UNL     1       2.048   8.265  18.975  0.00  0.00    +0.000 N 
ATOM      2  C   UNL     1       3.022   8.334  18.005  0.00  0.00    +0.000 A 
ATOM      3  C   UNL     1       3.686   7.131  17.966  0.00  0.00    +0.000 A 
ATOM      4  C   UNL     1       3.136   6.295  18.996  0.00  0.00    +0.000 A 
ATOM      5  C   UNL     1       3.382   5.002  19.523  0.00  0.00    +0.000 A 
ATOM      6  N   UNL     1       4.345   4.117  19.069  0.00  0.00    +0.000 N 
ATOM      7  N   UNL     1       2.638   4.576  20.562  0.00  0.00    +0.000 NA
ATOM      8  C   UNL     1       1.707   5.401  21.059  0.00  0.00    +0.000 A 
ATOM      9  N   UNL     1       1.386   6.650  20.657  0.00  0.00    +0.000 NA
ATOM     10  C   UNL     1       2.131   7.046  19.611  0.00  0.00    +0.000 A 
ATOM     11  H   UNL     1       5.172   4.526  18.670  0.00  0.00    +0.000 HD
ATOM     12  H   UNL     1       4.500   3.340  19.701  0.00  0.00    +0.000 HD
ENDROOT
BRANCH   3  13
ATOM     13  C   UNL     1       4.829   6.907  17.106  0.00  0.00    +0.000 A 
ATOM     14  C   UNL     1       6.147   6.940  17.623  0.00  0.00    +0.000 A 
ATOM     15  C   UNL     1       7.194   6.320  16.942  0.00  0.00    +0.000 A 
ATOM     16  C   UNL     1       6.855   5.592  15.814  0.00  0.00    +0.000 A 
ATOM     17  C   UNL     1       5.592   5.653  15.283  0.00  0.00    +0.000 A 
ATOM     18  C   UNL     1       4.586   6.401  15.831  0.00  0.00    +0.000 A 
ATOM     19  O   UNL     1       5.383   4.722  14.305  0.00  0.00    +0.000 OA
ATOM     20  C   UNL     1       6.557   3.920  14.508  0.00  0.00    +0.000 C 
ATOM     21  O   UNL     1       7.609   4.646  15.188  0.00  0.00    +0.000 OA
ENDBRANCH   3  13
BRANCH   1  25
ATOM     22  N   UNL     1      -0.766  10.565  18.527  0.00  0.00    +0.000 NA
ATOM     23  C   UNL     1       0.327  11.524  18.604  0.00  0.00    +0.000 C 
ATOM     24  C   UNL     1       1.582  10.685  18.568  0.00  0.00    +0.000 C 
ATOM     25  C   UNL     1       1.202   9.399  19.318  0.00  0.00    +0.000 C 
ATOM     26  C   UNL     1      -0.308   9.273  19.056  0.00  0.00    +0.000 C 
BRANCH  22  27
ATOM     27  C   UNL     1      -1.572  10.528  17.303  0.00  0.00    +0.000 C 
BRANCH  27  29
ATOM     28  C   UNL     1      -3.709   9.212  17.982  0.00  0.00    +0.000 C 
ATOM     29  C   UNL     1      -3.104  10.503  17.435  0.00  0.00    +0.000 C 
ATOM     30  C   UNL     1      -3.677  11.690  18.256  0.00  0.00    +0.000 C 
ATOM     31  O   UNL     1      -4.652  11.966  17.218  0.00  0.00    +0.000 OA
ATOM     32  C   UNL     1      -3.879  11.174  16.284  0.00  0.00    +0.000 C 
ENDBRANCH  27  29
ENDBRANCH  22  27
ENDBRANCH   1  25
TORSDOF 4
ENDMDL
MODEL 7
REMARK VINA RESULT:      -7.3      2.850      9.277
REMARK  Name = 
REMARK  5 active torsions:
REMARK  status: ('A' for Active; 'I' for Inactive)
REMARK    1  A    between atoms: C_1  and  C_2
REMARK    2  A    between atoms: C_2  and  C_3
REMARK    3  A    between atoms: C_3  and  N_4
REMARK    4  A    between atoms: C_7  and  N_8
REMARK    5  A    between atoms: C_10  and  C_11
REMARK                            x       y       z     vdW  Elec       q    Type
REMARK                         _______ _______ _______ _____ _____    ______ ____
ROOT
ATOM      1  N   UNL     1       1.995   8.836  18.400  0.00  0.00    +0.000 N 
ATOM      2  C   UNL     1       3.036   8.694  17.512  0.00  0.00    +0.000 A 
ATOM      3  C   UNL     1       3.653   7.489  17.748  0.00  0.00    +0.000 A 
ATOM      4  C   UNL     1       2.999   6.877  18.870  0.00  0.00    +0.000 A 
ATOM      5  C   UNL     1       3.156   5.700  19.646  0.00  0.00    +0.000 A 
ATOM      6  N   UNL     1       4.112   4.720  19.441  0.00  0.00    +0.000 N 
ATOM      7  N   UNL     1       2.325   5.497  20.687  0.00  0.00    +0.000 NA
ATOM      8  C   UNL     1       1.395   6.426  20.949  0.00  0.00    +0.000 A 
ATOM      9  N   UNL     1       1.153   7.584  20.299  0.00  0.00    +0.000 NA
ATOM     10  C   UNL     1       1.984   7.756  19.256  0.00  0.00    +0.000 A 
ATOM     11  H   UNL     1       4.981   5.026  19.036  0.00  0.00    +0.000 HD
ATOM     12  H   UNL     1       4.191   4.073  20.216  0.00  0.00    +0.000 HD
ENDROOT
BRANCH   3  13
ATOM     13  C   UNL     1       4.843   7.076  17.035  0.00  0.00    +0.000 A 
ATOM     14  C   UNL     1       6.096   7.001  17.691  0.00  0.00    +0.000 A 
ATOM     15  C   UNL     1       7.127   6.220  17.169  0.00  0.00    +0.000 A 
ATOM     16  C   UNL     1       6.821   5.453  16.057  0.00  0.00    +0.000 A 
ATOM     17  C   UNL     1       5.635   5.615  15.387  0.00  0.00    +0.000 A 
ATOM     18  C   UNL     1       4.674   6.508  15.774  0.00  0.00    +0.000 A 
ATOM     19  O   UNL     1       5.419   4.644  14.451  0.00  0.00    +0.000 OA
ATOM     20  C   UNL     1       6.463   3.734  14.831  0.00  0.00    +0.000 C 
ATOM     21  O   UNL     1       7.519   4.386  15.577  0.00  0.00    +0.000 OA
ENDBRANCH   3  13
BRANCH   1  25
ATOM     22  N   UNL     1      -0.244  11.250  20.001  0.00  0.00    +0.000 NA
ATOM     23  C   UNL     1      -1.033  10.925  18.823  0.00  0.00    +0.000 C 
ATOM     24  C   UNL     1      -0.313   9.762  18.182  0.00  0.00    +0.000 C 
ATOM     25  C   UNL     1       1.173  10.035  18.461  0.00  0.00    +0.000 C 
ATOM     26  C   UNL     1       1.145  10.820  19.783  0.00  0.00    +0.000 C 
BRANCH  22  27
ATOM     27  C   UNL     1      -0.819  10.972  21.321  0.00  0.00    +0.000 C 
BRANCH  27  29
ATOM     28  C   UNL     1      -0.515  13.362  22.300  0.00  0.00    +0.000 C 
ATOM     29  C   UNL     1      -1.416  12.142  22.121  0.00  0.00    +0.000 C 
ATOM     30  C   UNL     1      -2.787  12.631  21.581  0.00  0.00    +0.000 C 
ATOM     31  O   UNL     1      -3.355  12.583  22.914  0.00  0.00    +0.000 OA
ATOM     32  C   UNL     1      -2.257  11.743  23.349  0.00  0.00    +0.000 C 
ENDBRANCH  27  29
ENDBRANCH  22  27
ENDBRANCH   1  25
TORSDOF 4
ENDMDL
MODEL 8
REMARK VINA RESULT:      -7.2      5.108      9.895
REMARK  Name = 
REMARK  5 active torsions:
REMARK  status: ('A' for Active; 'I' for Inactive)
REMARK    1  A    between atoms: C_1  and  C_2
REMARK    2  A    between atoms: C_2  and  C_3
REMARK    3  A    between atoms: C_3  and  N_4
REMARK    4  A    between atoms: C_7  and  N_8
REMARK    5  A    between atoms: C_10  and  C_11
REMARK                            x       y       z     vdW  Elec       q    Type
REMARK                         _______ _______ _______ _____ _____    ______ ____
ROOT
ATOM      1  N   UNL     1      -0.523  10.182  18.571  0.00  0.00    +0.000 N 
ATOM      2  C   UNL     1       0.415   9.249  18.194  0.00  0.00    +0.000 A 
ATOM      3  C   UNL     1       1.102   8.842  19.313  0.00  0.00    +0.000 A 
ATOM      4  C   UNL     1       0.604   9.596  20.429  0.00  0.00    +0.000 A 
ATOM      5  C   UNL     1       0.894   9.715  21.812  0.00  0.00    +0.000 A 
ATOM      6  N   UNL     1       1.859   8.997  22.498  0.00  0.00    +0.000 N 
ATOM      7  N   UNL     1       0.195  10.604  22.544  0.00  0.00    +0.000 NA
ATOM      8  C   UNL     1      -0.736  11.345  21.927  0.00  0.00    +0.000 A 
ATOM      9  N   UNL     1      -1.095  11.335  20.625  0.00  0.00    +0.000 NA
ATOM     10  C   UNL     1      -0.395  10.430  19.920  0.00  0.00    +0.000 A 
ATOM     11  H   UNL     1       2.663   8.713  21.965  0.00  0.00    +0.000 HD
ATOM     12  H   UNL     1       2.051   9.370  23.420  0.00  0.00    +0.000 HD
ENDROOT
BRANCH   3  13
ATOM     13  C   UNL     1       2.219   7.924  19.243  0.00  0.00    +0.000 A 
ATOM     14  C   UNL     1       2.227   6.728  20.002  0.00  0.00    +0.000 A 
ATOM     15  C   UNL     1       3.047   5.660  19.638  0.00  0.00    +0.000 A 
ATOM     16  C   UNL     1       3.752   5.796  18.454  0.00  0.00    +0.000 A 
ATOM     17  C   UNL     1       3.802   6.995  17.790  0.00  0.00    +0.000 A 
ATOM     18  C   UNL     1       3.149   8.117  18.224  0.00  0.00    +0.000 A 
ATOM     19  O   UNL     1       4.365   6.891  16.550  0.00  0.00    +0.000 OA
ATOM     20  C   UNL     1       4.387   5.460  16.437  0.00  0.00    +0.000 C 
ATOM     21  O   UNL     1       4.335   4.803  17.726  0.00  0.00    +0.000 OA
ENDBRANCH   3  13
BRANCH   1  25
ATOM     22  N   UNL     1      -3.704  11.448  17.272  0.00  0.00    +0.000 NA
ATOM     23  C   UNL     1      -3.262  10.667  16.126  0.00  0.00    +0.000 C 
ATOM     24  C   UNL     1      -2.054   9.907  16.616  0.00  0.00    +0.000 C 
ATOM     25  C   UNL     1      -1.380  10.864  17.612  0.00  0.00    +0.000 C 
ATOM     26  C   UNL     1      -2.557  11.687  18.160  0.00  0.00    +0.000 C 
BRANCH  22  27
ATOM     27  C   UNL     1      -4.970  11.083  17.914  0.00  0.00    +0.000 C 
BRANCH  27  29
ATOM     28  C   UNL     1      -6.446  13.046  17.059  0.00  0.00    +0.000 C 
ATOM     29  C   UNL     1      -5.975  12.200  18.240  0.00  0.00    +0.000 C 
ATOM     30  C   UNL     1      -7.230  11.704  19.009  0.00  0.00    +0.000 C 
ATOM     31  O   UNL     1      -7.077  12.763  19.988  0.00  0.00    +0.000 OA
ATOM     32  C   UNL     1      -5.710  12.966  19.552  0.00  0.00    +0.000 C 
ENDBRANCH  27  29
ENDBRANCH  22  27
ENDBRANCH   1  25
TORSDOF 4
ENDMDL
MODEL 9
REMARK VINA RESULT:      -7.2      3.514      8.811
REMARK  Name = 
REMARK  5 active torsions:
REMARK  status: ('A' for Active; 'I' for Inactive)
REMARK    1  A    between atoms: C_1  and  C_2
REMARK    2  A    between atoms: C_2  and  C_3
REMARK    3  A    between atoms: C_3  and  N_4
REMARK    4  A    between atoms: C_7  and  N_8
REMARK    5  A    between atoms: C_10  and  C_11
REMARK                            x       y       z     vdW  Elec       q    Type
REMARK                         _______ _______ _______ _____ _____    ______ ____
ROOT
ATOM      1  N   UNL     1       1.674   9.766  18.394  0.00  0.00    +0.000 N 
ATOM      2  C   UNL     1       2.477   8.871  17.725  0.00  0.00    +0.000 A 
ATOM      3  C   UNL     1       2.554   7.714  18.463  0.00  0.00    +0.000 A 
ATOM      4  C   UNL     1       1.808   7.919  19.673  0.00  0.00    +0.000 A 
ATOM      5  C   UNL     1       1.530   7.186  20.855  0.00  0.00    +0.000 A 
ATOM      6  N   UNL     1       1.968   5.902  21.129  0.00  0.00    +0.000 N 
ATOM      7  N   UNL     1       0.787   7.770  21.816  0.00  0.00    +0.000 NA
ATOM      8  C   UNL     1       0.357   9.023  21.615  0.00  0.00    +0.000 A 
ATOM      9  N   UNL     1       0.562   9.824  20.548  0.00  0.00    +0.000 NA
ATOM     10  C   UNL     1       1.291   9.214  19.597  0.00  0.00    +0.000 A 
ATOM     11  H   UNL     1       2.844   5.634  20.716  0.00  0.00    +0.000 HD
ATOM     12  H   UNL     1       1.840   5.637  22.099  0.00  0.00    +0.000 HD
ENDROOT
BRANCH   3  13
ATOM     13  C   UNL     1       3.394   6.602  18.072  0.00  0.00    +0.000 A 
ATOM     14  C   UNL     1       2.866   5.292  17.970  0.00  0.00    +0.000 A 
ATOM     15  C   UNL     1       3.514   4.321  17.205  0.00  0.00    +0.000 A 
ATOM     16  C   UNL     1       4.616   4.739  16.479  0.00  0.00    +0.000 A 
ATOM     17  C   UNL     1       5.162   5.983  16.668  0.00  0.00    +0.000 A 
ATOM     18  C   UNL     1       4.651   6.896  17.550  0.00  0.00    +0.000 A 
ATOM     19  O   UNL     1       6.105   6.296  15.731  0.00  0.00    +0.000 OA
ATOM     20  C   UNL     1       5.861   5.226  14.805  0.00  0.00    +0.000 C 
ATOM     21  O   UNL     1       5.199   4.098  15.428  0.00  0.00    +0.000 OA
ENDBRANCH   3  13
BRANCH   1  25
ATOM     22  N   UNL     1       2.049  13.408  18.402  0.00  0.00    +0.000 NA
ATOM     23  C   UNL     1       0.597  13.308  18.451  0.00  0.00    +0.000 C 
ATOM     24  C   UNL     1       0.316  11.843  18.677  0.00  0.00    +0.000 C 
ATOM     25  C   UNL     1       1.436  11.118  17.912  0.00  0.00    +0.000 C 
ATOM     26  C   UNL     1       2.604  12.117  17.970  0.00  0.00    +0.000 C 
BRANCH  22  27
ATOM     27  C   UNL     1       2.737  14.085  19.506  0.00  0.00    +0.000 C 
BRANCH  27  29
ATOM     28  C   UNL     1       5.122  15.121  19.547  0.00  0.00    +0.000 C 
ATOM     29  C   UNL     1       3.648  15.279  19.179  0.00  0.00    +0.000 C 
ATOM     30  C   UNL     1       3.567  15.736  17.697  0.00  0.00    +0.000 C 
ATOM     31  O   UNL     1       3.388  17.115  18.108  0.00  0.00    +0.000 OA
ATOM     32  C   UNL     1       3.036  16.670  19.441  0.00  0.00    +0.000 C 
ENDBRANCH  27  29
ENDBRANCH  22  27
ENDBRANCH   1  25
TORSDOF 4
ENDMDL
