MODEL 1
REMARK VINA RESULT:      -8.1      0.000      0.000
REMARK  Name = 
REMARK  9 active torsions:
REMARK  status: ('A' for Active; 'I' for Inactive)
REMARK    1  A    between atoms: C_1  and  N_2
REMARK    2  A    between atoms: N_2  and  C_3
REMARK    3  A    between atoms: N_2  and  C_4
REMARK    4  A    between atoms: C_7  and  N_8
REMARK    5  A    between atoms: C_9  and  C_11
REMARK    6  A    between atoms: C_12  and  N_13
REMARK    7  A    between atoms: N_13  and  C_14
REMARK    8  A    between atoms: C_14  and  C_15
REMARK    9  A    between atoms: C_15  and  C_16
REMARK                            x       y       z     vdW  Elec       q    Type
REMARK                         _______ _______ _______ _____ _____    ______ ____
ROOT
ATOM      1  C   UNL     1       3.448   4.703  18.762  0.00  0.00    +0.000 A 
ATOM      2  C   UNL     1       3.907   3.978  17.705  0.00  0.00    +0.000 A 
ATOM      3  C   UNL     1       3.739   2.528  17.733  0.00  0.00    +0.000 A 
ATOM      4  C   UNL     1       3.203   1.901  18.783  0.00  0.00    +0.000 A 
ATOM      5  N   UNL     1       2.854   2.615  19.893  0.00  0.00    +0.000 N 
ATOM      6  C   UNL     1       2.991   3.976  19.991  0.00  0.00    +0.000 A 
ATOM      7  O   UNL     1       2.752   4.562  21.045  0.00  0.00    +0.000 OA
ATOM      8  H   UNL     1       2.490   2.141  20.712  0.00  0.00    +0.000 HD
ENDROOT
BRANCH   1  10
ATOM      9  N   UNL     1       2.212   6.744  19.301  0.00  0.00    +0.000 N 
ATOM     10  C   UNL     1       3.310   6.195  18.660  0.00  0.00    +0.000 C 
ATOM     11  O   UNL     1       4.130   6.825  17.996  0.00  0.00    +0.000 OA
ATOM     12  H   UNL     1       1.577   6.097  19.770  0.00  0.00    +0.000 HD
BRANCH   9  16
ATOM     13  C   UNL     1       0.949  10.839  19.308  0.00  0.00    +0.000 A 
ATOM     14  C   UNL     1       1.433  10.221  18.149  0.00  0.00    +0.000 A 
ATOM     15  C   UNL     1       1.872   8.891  18.132  0.00  0.00    +0.000 A 
ATOM     16  C   UNL     1       1.810   8.100  19.273  0.00  0.00    +0.000 A 
ATOM     17  C   UNL     1       1.302   8.679  20.438  0.00  0.00    +0.000 A 
ATOM     18  C   UNL     1       0.883  10.024  20.450  0.00  0.00    +0.000 A 
BRANCH  13  20
ATOM     19  C   UNL     1       1.262  13.159  18.527  0.00  0.00    +0.000 C 
ATOM     20  N   UNL     1       0.523  12.171  19.312  0.00  0.00    +0.000 N 
ATOM     21  C   UNL     1      -0.162  12.673  20.500  0.00  0.00    +0.000 C 
ENDBRANCH  13  20
ENDBRANCH   9  16
ENDBRANCH   1  10
BRANCH   2  22
ATOM     22  N   UNL     1       4.416   4.436  16.481  0.00  0.00    +0.000 N 
ATOM     23  H   UNL     1       4.786   5.378  16.665  0.00  0.00    +0.000 HD
BRANCH  22  24
ATOM     24  C   UNL     1       5.514   3.749  15.762  0.00  0.00    +0.000 C 
BRANCH  24  25
ATOM     25  C   UNL     1       6.702   4.664  15.456  0.00  0.00    +0.000 C 
BRANCH  25  26
ATOM     26  C   UNL     1       7.191   5.396  16.689  0.00  0.00    +0.000 A 
ATOM     27  C   UNL     1       7.519   4.689  17.855  0.00  0.00    +0.000 A 
ATOM     28  C   UNL     1       7.987   5.360  18.989  0.00  0.00    +0.000 A 
ATOM     29  C   UNL     1       8.123   6.747  18.975  0.00  0.00    +0.000 A 
ATOM     30  C   UNL     1       7.783   7.459  17.827  0.00  0.00    +0.000 A 
ATOM     31 CL   UNL     1       7.937   9.174  17.810  0.00  0.00    +0.000 Cl
ATOM     32  C   UNL     1       7.313   6.793  16.691  0.00  0.00    +0.000 A 
ENDBRANCH  25  26
ENDBRANCH  24  25
ENDBRANCH  22  24
ENDBRANCH   2  22
TORSDOF 7
ENDMDL
MODEL 2
REMARK VINA RESULT:      -7.8      0.842      1.268
REMARK  Name = 
REMARK  9 active torsions:
REMARK  status: ('A' for Active; 'I' for Inactive)
REMARK    1  A    between atoms: C_1  and  N_2
REMARK    2  A    between atoms: N_2  and  C_3
REMARK    3  A    between atoms: N_2  and  C_4
REMARK    4  A    between atoms: C_7  and  N_8
REMARK    5  A    between atoms: C_9  and  C_11
REMARK    6  A    between atoms: C_12  and  N_13
REMARK    7  A    between atoms: N_13  and  C_14
REMARK    8  A    between atoms: C_14  and  C_15
REMARK    9  A    between atoms: C_15  and  C_16
REMARK                            x       y       z     vdW  Elec       q    Type
REMARK                         _______ _______ _______ _____ _____    ______ ____
ROOT
ATOM      1  C   UNL     1       3.001   4.673  19.146  0.00  0.00    +0.000 A 
ATOM      2  C   UNL     1       3.736   4.133  18.135  0.00  0.00    +0.000 A 
ATOM      3  C   UNL     1       4.076   2.715  18.204  0.00  0.00    +0.000 A 
ATOM      4  C   UNL     1       3.733   1.959  19.250  0.00  0.00    +0.000 A 
ATOM      5  N   UNL     1       3.102   2.527  20.319  0.00  0.00    +0.000 N 
ATOM      6  C   UNL     1       2.758   3.853  20.377  0.00  0.00    +0.000 A 
ATOM      7  O   UNL     1       2.276   4.338  21.399  0.00  0.00    +0.000 OA
ATOM      8  H   UNL     1       2.881   1.970  21.137  0.00  0.00    +0.000 HD
ENDROOT
BRANCH   1  10
ATOM      9  N   UNL     1       2.347   6.819  20.121  0.00  0.00    +0.000 N 
ATOM     10  C   UNL     1       2.364   6.023  18.988  0.00  0.00    +0.000 C 
ATOM     11  O   UNL     1       1.865   6.324  17.906  0.00  0.00    +0.000 OA
ATOM     12  H   UNL     1       2.747   6.423  20.972  0.00  0.00    +0.000 HD
BRANCH   9  16
ATOM     13  C   UNL     1       0.504  10.674  20.437  0.00  0.00    +0.000 A 
ATOM     14  C   UNL     1       0.643   9.833  21.547  0.00  0.00    +0.000 A 
ATOM     15  C   UNL     1       1.222   8.561  21.459  0.00  0.00    +0.000 A 
ATOM     16  C   UNL     1       1.727   8.083  20.255  0.00  0.00    +0.000 A 
ATOM     17  C   UNL     1       1.631   8.912  19.136  0.00  0.00    +0.000 A 
ATOM     18  C   UNL     1       1.028  10.182  19.230  0.00  0.00    +0.000 A 
BRANCH  13  20
ATOM     19  C   UNL     1       0.367  13.009  19.650  0.00  0.00    +0.000 C 
ATOM     20  N   UNL     1      -0.085  11.939  20.537  0.00  0.00    +0.000 N 
ATOM     21  C   UNL     1      -0.610  12.355  21.835  0.00  0.00    +0.000 C 
ENDBRANCH  13  20
ENDBRANCH   9  16
ENDBRANCH   1  10
BRANCH   2  22
ATOM     22  N   UNL     1       4.121   4.718  16.920  0.00  0.00    +0.000 N 
ATOM     23  H   UNL     1       4.602   5.593  17.168  0.00  0.00    +0.000 HD
BRANCH  22  24
ATOM     24  C   UNL     1       5.041   4.056  15.966  0.00  0.00    +0.000 C 
BRANCH  24  25
ATOM     25  C   UNL     1       6.221   4.939  15.553  0.00  0.00    +0.000 C 
BRANCH  25  26
ATOM     26  C   UNL     1       6.910   5.565  16.748  0.00  0.00    +0.000 A 
ATOM     27  C   UNL     1       7.328   4.773  17.827  0.00  0.00    +0.000 A 
ATOM     28  C   UNL     1       7.979   5.346  18.923  0.00  0.00    +0.000 A 
ATOM     29  C   UNL     1       8.213   6.720  18.959  0.00  0.00    +0.000 A 
ATOM     30  C   UNL     1       7.786   7.517  17.898  0.00  0.00    +0.000 A 
ATOM     31 CL   UNL     1       8.062   9.216  17.944  0.00  0.00    +0.000 Cl
ATOM     32  C   UNL     1       7.133   6.949  16.801  0.00  0.00    +0.000 A 
ENDBRANCH  25  26
ENDBRANCH  24  25
ENDBRANCH  22  24
ENDBRANCH   2  22
TORSDOF 7
ENDMDL
MODEL 3
REMARK VINA RESULT:      -7.7      2.408      3.292
REMARK  Name = 
REMARK  9 active torsions:
REMARK  status: ('A' for Active; 'I' for Inactive)
REMARK    1  A    between atoms: C_1  and  N_2
REMARK    2  A    between atoms: N_2  and  C_3
REMARK    3  A    between atoms: N_2  and  C_4
REMARK    4  A    between atoms: C_7  and  N_8
REMARK    5  A    between atoms: C_9  and  C_11
REMARK    6  A    between atoms: C_12  and  N_13
REMARK    7  A    between atoms: N_13  and  C_14
REMARK    8  A    between atoms: C_14  and  C_15
REMARK    9  A    between atoms: C_15  and  C_16
REMARK                            x       y       z     vdW  Elec       q    Type
REMARK                         _______ _______ _______ _____ _____    ______ ____
ROOT
ATOM      1  C   UNL     1       3.260   4.949  19.577  0.00  0.00    +0.000 A 
ATOM      2  C   UNL     1       4.504   4.555  19.191  0.00  0.00    +0.000 A 
ATOM      3  C   UNL     1       4.895   3.167  19.417  0.00  0.00    +0.000 A 
ATOM      4  C   UNL     1       4.089   2.300  20.036  0.00  0.00    +0.000 A 
ATOM      5  N   UNL     1       2.890   2.725  20.531  0.00  0.00    +0.000 N 
ATOM      6  C   UNL     1       2.431   4.012  20.403  0.00  0.00    +0.000 A 
ATOM      7  O   UNL     1       1.389   4.369  20.948  0.00  0.00    +0.000 OA
ATOM      8  H   UNL     1       2.293   2.086  21.044  0.00  0.00    +0.000 HD
ENDROOT
BRANCH   1  10
ATOM      9  N   UNL     1       2.251   7.118  20.091  0.00  0.00    +0.000 N 
ATOM     10  C   UNL     1       2.691   6.255  19.101  0.00  0.00    +0.000 C 
ATOM     11  O   UNL     1       2.608   6.464  17.893  0.00  0.00    +0.000 OA
ATOM     12  H   UNL     1       2.328   6.795  21.056  0.00  0.00    +0.000 HD
BRANCH   9  16
ATOM     13  C   UNL     1       0.210  10.853  19.596  0.00  0.00    +0.000 A 
ATOM     14  C   UNL     1       0.958  10.281  18.561  0.00  0.00    +0.000 A 
ATOM     15  C   UNL     1       1.650   9.073  18.710  0.00  0.00    +0.000 A 
ATOM     16  C   UNL     1       1.595   8.356  19.900  0.00  0.00    +0.000 A 
ATOM     17  C   UNL     1       0.831   8.885  20.942  0.00  0.00    +0.000 A 
ATOM     18  C   UNL     1       0.155  10.112  20.789  0.00  0.00    +0.000 A 
BRANCH  13  20
ATOM     19  C   UNL     1      -1.602  12.132  18.514  0.00  0.00    +0.000 C 
ATOM     20  N   UNL     1      -0.469  12.065  19.436  0.00  0.00    +0.000 N 
ATOM     21  C   UNL     1       0.277  13.305  19.634  0.00  0.00    +0.000 C 
ENDBRANCH  13  20
ENDBRANCH   9  16
ENDBRANCH   1  10
BRANCH   2  22
ATOM     22  N   UNL     1       5.462   5.269  18.457  0.00  0.00    +0.000 N 
ATOM     23  H   UNL     1       6.270   5.385  19.084  0.00  0.00    +0.000 HD
BRANCH  22  24
ATOM     24  C   UNL     1       6.052   4.759  17.197  0.00  0.00    +0.000 C 
BRANCH  24  25
ATOM     25  C   UNL     1       5.112   4.880  15.997  0.00  0.00    +0.000 C 
BRANCH  25  26
ATOM     26  C   UNL     1       5.822   4.606  14.686  0.00  0.00    +0.000 A 
ATOM     27  C   UNL     1       7.027   5.253  14.378  0.00  0.00    +0.000 A 
ATOM     28  C   UNL     1       7.692   4.990  13.177  0.00  0.00    +0.000 A 
ATOM     29  C   UNL     1       7.156   4.083  12.264  0.00  0.00    +0.000 A 
ATOM     30  C   UNL     1       5.950   3.449  12.555  0.00  0.00    +0.000 A 
ATOM     31 CL   UNL     1       5.278   2.338  11.424  0.00  0.00    +0.000 Cl
ATOM     32  C   UNL     1       5.280   3.709  13.753  0.00  0.00    +0.000 A 
ENDBRANCH  25  26
ENDBRANCH  24  25
ENDBRANCH  22  24
ENDBRANCH   2  22
TORSDOF 7
ENDMDL
MODEL 4
REMARK VINA RESULT:      -7.6      2.520      3.415
REMARK  Name = 
REMARK  9 active torsions:
REMARK  status: ('A' for Active; 'I' for Inactive)
REMARK    1  A    between atoms: C_1  and  N_2
REMARK    2  A    between atoms: N_2  and  C_3
REMARK    3  A    between atoms: N_2  and  C_4
REMARK    4  A    between atoms: C_7  and  N_8
REMARK    5  A    between atoms: C_9  and  C_11
REMARK    6  A    between atoms: C_12  and  N_13
REMARK    7  A    between atoms: N_13  and  C_14
REMARK    8  A    between atoms: C_14  and  C_15
REMARK    9  A    between atoms: C_15  and  C_16
REMARK                            x       y       z     vdW  Elec       q    Type
REMARK                         _______ _______ _______ _____ _____    ______ ____
ROOT
ATOM      1  C   UNL     1       3.227   5.291  19.501  0.00  0.00    +0.000 A 
ATOM      2  C   UNL     1       4.322   4.975  18.755  0.00  0.00    +0.000 A 
ATOM      3  C   UNL     1       4.747   3.580  18.701  0.00  0.00    +0.000 A 
ATOM      4  C   UNL     1       4.126   2.627  19.401  0.00  0.00    +0.000 A 
ATOM      5  N   UNL     1       3.104   2.962  20.243  0.00  0.00    +0.000 N 
ATOM      6  C   UNL     1       2.639   4.243  20.396  0.00  0.00    +0.000 A 
ATOM      7  O   UNL     1       1.781   4.508  21.236  0.00  0.00    +0.000 OA
ATOM      8  H   UNL     1       2.659   2.251  20.814  0.00  0.00    +0.000 HD
ENDROOT
BRANCH   1  10
ATOM      9  N   UNL     1       2.128   7.220  20.527  0.00  0.00    +0.000 N 
ATOM     10  C   UNL     1       2.564   6.630  19.353  0.00  0.00    +0.000 C 
ATOM     11  O   UNL     1       2.409   7.097  18.227  0.00  0.00    +0.000 OA
ATOM     12  H   UNL     1       2.271   6.696  21.391  0.00  0.00    +0.000 HD
BRANCH   9  16
ATOM     13  C   UNL     1      -0.121  10.840  20.976  0.00  0.00    +0.000 A 
ATOM     14  C   UNL     1       0.368  10.427  19.731  0.00  0.00    +0.000 A 
ATOM     15  C   UNL     1       1.123   9.260  19.568  0.00  0.00    +0.000 A 
ATOM     16  C   UNL     1       1.396   8.425  20.645  0.00  0.00    +0.000 A 
ATOM     17  C   UNL     1       0.895   8.793  21.896  0.00  0.00    +0.000 A 
ATOM     18  C   UNL     1       0.153   9.980  22.053  0.00  0.00    +0.000 A 
BRANCH  13  20
ATOM     19  C   UNL     1      -2.025  12.239  20.262  0.00  0.00    +0.000 C 
ATOM     20  N   UNL     1      -0.867  12.013  21.126  0.00  0.00    +0.000 N 
ATOM     21  C   UNL     1      -0.183  13.209  21.613  0.00  0.00    +0.000 C 
ENDBRANCH  13  20
ENDBRANCH   9  16
ENDBRANCH   1  10
BRANCH   2  22
ATOM     22  N   UNL     1       5.058   5.795  17.887  0.00  0.00    +0.000 N 
ATOM     23  H   UNL     1       6.019   5.804  18.254  0.00  0.00    +0.000 HD
BRANCH  22  24
ATOM     24  C   UNL     1       5.224   5.492  16.446  0.00  0.00    +0.000 C 
BRANCH  24  25
ATOM     25  C   UNL     1       6.576   4.856  16.114  0.00  0.00    +0.000 C 
BRANCH  25  26
ATOM     26  C   UNL     1       6.771   4.679  14.622  0.00  0.00    +0.000 A 
ATOM     27  C   UNL     1       7.704   5.461  13.926  0.00  0.00    +0.000 A 
ATOM     28  C   UNL     1       7.899   5.289  12.553  0.00  0.00    +0.000 A 
ATOM     29  C   UNL     1       7.156   4.337  11.855  0.00  0.00    +0.000 A 
ATOM     30  C   UNL     1       6.214   3.568  12.535  0.00  0.00    +0.000 A 
ATOM     31 CL   UNL     1       5.286   2.401  11.674  0.00  0.00    +0.000 Cl
ATOM     32  C   UNL     1       6.015   3.737  13.908  0.00  0.00    +0.000 A 
ENDBRANCH  25  26
ENDBRANCH  24  25
ENDBRANCH  22  24
ENDBRANCH   2  22
TORSDOF 7
ENDMDL
MODEL 5
REMARK VINA RESULT:      -7.6      1.121      1.635
REMARK  Name = 
REMARK  9 active torsions:
REMARK  status: ('A' for Active; 'I' for Inactive)
REMARK    1  A    between atoms: C_1  and  N_2
REMARK    2  A    between atoms: N_2  and  C_3
REMARK    3  A    between atoms: N_2  and  C_4
REMARK    4  A    between atoms: C_7  and  N_8
REMARK    5  A    between atoms: C_9  and  C_11
REMARK    6  A    between atoms: C_12  and  N_13
REMARK    7  A    between atoms: N_13  and  C_14
REMARK    8  A    between atoms: C_14  and  C_15
REMARK    9  A    between atoms: C_15  and  C_16
REMARK                            x       y       z     vdW  Elec       q    Type
REMARK                         _______ _______ _______ _____ _____    ______ ____
ROOT
ATOM      1  C   UNL     1       2.617   4.490  19.550  0.00  0.00    +0.000 A 
ATOM      2  C   UNL     1       2.818   3.872  18.354  0.00  0.00    +0.000 A 
ATOM      3  C   UNL     1       2.483   2.456  18.237  0.00  0.00    +0.000 A 
ATOM      4  C   UNL     1       2.041   1.750  19.281  0.00  0.00    +0.000 A 
ATOM      5  N   UNL     1       1.953   2.338  20.510  0.00  0.00    +0.000 N 
ATOM      6  C   UNL     1       2.268   3.652  20.743  0.00  0.00    +0.000 A 
ATOM      7  O   UNL     1       2.263   4.111  21.884  0.00  0.00    +0.000 OA
ATOM      8  H   UNL     1       1.663   1.796  21.317  0.00  0.00    +0.000 HD
ENDROOT
BRANCH   1  10
ATOM      9  N   UNL     1       1.651   6.561  20.423  0.00  0.00    +0.000 N 
ATOM     10  C   UNL     1       2.646   5.988  19.650  0.00  0.00    +0.000 C 
ATOM     11  O   UNL     1       3.500   6.610  19.022  0.00  0.00    +0.000 OA
ATOM     12  H   UNL     1       0.969   5.929  20.845  0.00  0.00    +0.000 HD
BRANCH   9  16
ATOM     13  C   UNL     1       0.936  10.764  20.846  0.00  0.00    +0.000 A 
ATOM     14  C   UNL     1       1.063   9.925  21.959  0.00  0.00    +0.000 A 
ATOM     15  C   UNL     1       1.275   8.545  21.841  0.00  0.00    +0.000 A 
ATOM     16  C   UNL     1       1.407   7.943  20.595  0.00  0.00    +0.000 A 
ATOM     17  C   UNL     1       1.316   8.760  19.466  0.00  0.00    +0.000 A 
ATOM     18  C   UNL     1       1.082  10.143  19.594  0.00  0.00    +0.000 A 
BRANCH  13  20
ATOM     19  C   UNL     1      -0.552  12.608  21.537  0.00  0.00    +0.000 C 
ATOM     20  N   UNL     1       0.716  12.139  20.979  0.00  0.00    +0.000 N 
ATOM     21  C   UNL     1       1.379  13.039  20.038  0.00  0.00    +0.000 C 
ENDBRANCH  13  20
ENDBRANCH   9  16
ENDBRANCH   1  10
BRANCH   2  22
ATOM     22  N   UNL     1       3.188   4.439  17.125  0.00  0.00    +0.000 N 
ATOM     23  H   UNL     1       3.168   5.458  17.267  0.00  0.00    +0.000 HD
BRANCH  22  24
ATOM     24  C   UNL     1       4.502   4.187  16.488  0.00  0.00    +0.000 C 
BRANCH  24  25
ATOM     25  C   UNL     1       5.218   5.467  16.054  0.00  0.00    +0.000 C 
BRANCH  25  26
ATOM     26  C   UNL     1       6.267   5.902  17.057  0.00  0.00    +0.000 A 
ATOM     27  C   UNL     1       6.762   4.999  18.010  0.00  0.00    +0.000 A 
ATOM     28  C   UNL     1       7.742   5.392  18.926  0.00  0.00    +0.000 A 
ATOM     29  C   UNL     1       8.234   6.696  18.907  0.00  0.00    +0.000 A 
ATOM     30  C   UNL     1       7.736   7.605  17.975  0.00  0.00    +0.000 A 
ATOM     31 CL   UNL     1       8.332   9.220  17.958  0.00  0.00    +0.000 Cl
ATOM     32  C   UNL     1       6.755   7.217  17.059  0.00  0.00    +0.000 A 
ENDBRANCH  25  26
ENDBRANCH  24  25
ENDBRANCH  22  24
ENDBRANCH   2  22
TORSDOF 7
ENDMDL
MODEL 6
REMARK VINA RESULT:      -7.6      2.387      3.278
REMARK  Name = 
REMARK  9 active torsions:
REMARK  status: ('A' for Active; 'I' for Inactive)
REMARK    1  A    between atoms: C_1  and  N_2
REMARK    2  A    between atoms: N_2  and  C_3
REMARK    3  A    between atoms: N_2  and  C_4
REMARK    4  A    between atoms: C_7  and  N_8
REMARK    5  A    between atoms: C_9  and  C_11
REMARK    6  A    between atoms: C_12  and  N_13
REMARK    7  A    between atoms: N_13  and  C_14
REMARK    8  A    between atoms: C_14  and  C_15
REMARK    9  A    between atoms: C_15  and  C_16
REMARK                            x       y       z     vdW  Elec       q    Type
REMARK                         _______ _______ _______ _____ _____    ______ ____
ROOT
ATOM      1  C   UNL     1       3.079   4.708  19.201  0.00  0.00    +0.000 A 
ATOM      2  C   UNL     1       4.296   4.203  18.855  0.00  0.00    +0.000 A 
ATOM      3  C   UNL     1       4.411   2.767  18.622  0.00  0.00    +0.000 A 
ATOM      4  C   UNL     1       3.375   1.941  18.791  0.00  0.00    +0.000 A 
ATOM      5  N   UNL     1       2.188   2.429  19.254  0.00  0.00    +0.000 N 
ATOM      6  C   UNL     1       1.972   3.755  19.533  0.00  0.00    +0.000 A 
ATOM      7  O   UNL     1       0.916   4.131  20.038  0.00  0.00    +0.000 OA
ATOM      8  H   UNL     1       1.411   1.801  19.430  0.00  0.00    +0.000 HD
ENDROOT
BRANCH   1  10
ATOM      9  N   UNL     1       2.097   6.710  20.207  0.00  0.00    +0.000 N 
ATOM     10  C   UNL     1       2.826   6.187  19.152  0.00  0.00    +0.000 C 
ATOM     11  O   UNL     1       3.228   6.829  18.184  0.00  0.00    +0.000 OA
ATOM     12  H   UNL     1       1.774   6.053  20.918  0.00  0.00    +0.000 HD
BRANCH   9  16
ATOM     13  C   UNL     1       0.709  10.732  20.716  0.00  0.00    +0.000 A 
ATOM     14  C   UNL     1       1.010  10.212  19.452  0.00  0.00    +0.000 A 
ATOM     15  C   UNL     1       1.486   8.909  19.267  0.00  0.00    +0.000 A 
ATOM     16  C   UNL     1       1.649   8.044  20.343  0.00  0.00    +0.000 A 
ATOM     17  C   UNL     1       1.326   8.523  21.615  0.00  0.00    +0.000 A 
ATOM     18  C   UNL     1       0.868   9.844  21.793  0.00  0.00    +0.000 A 
BRANCH  13  20
ATOM     19  C   UNL     1       1.008  13.149  20.319  0.00  0.00    +0.000 C 
ATOM     20  N   UNL     1       0.243  12.039  20.887  0.00  0.00    +0.000 N 
ATOM     21  C   UNL     1      -0.545  12.342  22.078  0.00  0.00    +0.000 C 
ENDBRANCH  13  20
ENDBRANCH   9  16
ENDBRANCH   1  10
BRANCH   2  22
ATOM     22  N   UNL     1       5.476   4.894  18.545  0.00  0.00    +0.000 N 
ATOM     23  H   UNL     1       6.186   4.552  19.207  0.00  0.00    +0.000 HD
BRANCH  22  24
ATOM     24  C   UNL     1       6.139   4.797  17.223  0.00  0.00    +0.000 C 
BRANCH  24  25
ATOM     25  C   UNL     1       5.156   4.823  16.051  0.00  0.00    +0.000 C 
BRANCH  25  26
ATOM     26  C   UNL     1       5.843   4.572  14.724  0.00  0.00    +0.000 A 
ATOM     27  C   UNL     1       7.044   5.224  14.407  0.00  0.00    +0.000 A 
ATOM     28  C   UNL     1       7.689   4.981  13.191  0.00  0.00    +0.000 A 
ATOM     29  C   UNL     1       7.137   4.090  12.272  0.00  0.00    +0.000 A 
ATOM     30  C   UNL     1       5.936   3.452  12.571  0.00  0.00    +0.000 A 
ATOM     31 CL   UNL     1       5.244   2.360  11.432  0.00  0.00    +0.000 Cl
ATOM     32  C   UNL     1       5.286   3.691  13.785  0.00  0.00    +0.000 A 
ENDBRANCH  25  26
ENDBRANCH  24  25
ENDBRANCH  22  24
ENDBRANCH   2  22
TORSDOF 7
ENDMDL
MODEL 7
REMARK VINA RESULT:      -7.6      1.038      1.370
REMARK  Name = 
REMARK  9 active torsions:
REMARK  status: ('A' for Active; 'I' for Inactive)
REMARK    1  A    between atoms: C_1  and  N_2
REMARK    2  A    between atoms: N_2  and  C_3
REMARK    3  A    between atoms: N_2  and  C_4
REMARK    4  A    between atoms: C_7  and  N_8
REMARK    5  A    between atoms: C_9  and  C_11
REMARK    6  A    between atoms: C_12  and  N_13
REMARK    7  A    between atoms: N_13  and  C_14
REMARK    8  A    between atoms: C_14  and  C_15
REMARK    9  A    between atoms: C_15  and  C_16
REMARK                            x       y       z     vdW  Elec       q    Type
REMARK                         _______ _______ _______ _____ _____    ______ ____
ROOT
ATOM      1  C   UNL     1       3.385   4.588  18.883  0.00  0.00    +0.000 A 
ATOM      2  C   UNL     1       3.868   3.848  17.846  0.00  0.00    +0.000 A 
ATOM      3  C   UNL     1       3.614   2.411  17.841  0.00  0.00    +0.000 A 
ATOM      4  C   UNL     1       2.975   1.805  18.846  0.00  0.00    +0.000 A 
ATOM      5  N   UNL     1       2.598   2.526  19.942  0.00  0.00    +0.000 N 
ATOM      6  C   UNL     1       2.808   3.876  20.068  0.00  0.00    +0.000 A 
ATOM      7  O   UNL     1       2.535   4.463  21.114  0.00  0.00    +0.000 OA
ATOM      8  H   UNL     1       2.155   2.065  20.729  0.00  0.00    +0.000 HD
ENDROOT
BRANCH   1  10
ATOM      9  N   UNL     1       2.169   6.682  19.230  0.00  0.00    +0.000 N 
ATOM     10  C   UNL     1       3.341   6.086  18.795  0.00  0.00    +0.000 C 
ATOM     11  O   UNL     1       4.301   6.684  18.314  0.00  0.00    +0.000 OA
ATOM     12  H   UNL     1       1.426   6.062  19.554  0.00  0.00    +0.000 HD
BRANCH   9  16
ATOM     13  C   UNL     1       1.138  10.839  19.109  0.00  0.00    +0.000 A 
ATOM     14  C   UNL     1       1.657  10.178  17.990  0.00  0.00    +0.000 A 
ATOM     15  C   UNL     1       2.020   8.826  18.016  0.00  0.00    +0.000 A 
ATOM     16  C   UNL     1       1.846   8.057  19.161  0.00  0.00    +0.000 A 
ATOM     17  C   UNL     1       1.301   8.681  20.286  0.00  0.00    +0.000 A 
ATOM     18  C   UNL     1       0.957  10.047  20.256  0.00  0.00    +0.000 A 
BRANCH  13  20
ATOM     19  C   UNL     1       1.378  13.110  20.046  0.00  0.00    +0.000 C 
ATOM     20  N   UNL     1       0.788  12.193  19.072  0.00  0.00    +0.000 N 
ATOM     21  C   UNL     1      -0.536  12.550  18.569  0.00  0.00    +0.000 C 
ENDBRANCH  13  20
ENDBRANCH   9  16
ENDBRANCH   1  10
BRANCH   2  22
ATOM     22  N   UNL     1       4.481   4.289  16.665  0.00  0.00    +0.000 N 
ATOM     23  H   UNL     1       4.928   5.187  16.897  0.00  0.00    +0.000 HD
BRANCH  22  24
ATOM     24  C   UNL     1       5.546   3.521  15.979  0.00  0.00    +0.000 C 
BRANCH  24  25
ATOM     25  C   UNL     1       6.732   4.385  15.546  0.00  0.00    +0.000 C 
BRANCH  25  26
ATOM     26  C   UNL     1       7.168   5.343  16.636  0.00  0.00    +0.000 A 
ATOM     27  C   UNL     1       7.159   6.728  16.415  0.00  0.00    +0.000 A 
ATOM     28  C   UNL     1       7.545   7.615  17.424  0.00  0.00    +0.000 A 
ATOM     29  C   UNL     1       7.953   7.128  18.665  0.00  0.00    +0.000 A 
ATOM     30  C   UNL     1       7.982   5.753  18.887  0.00  0.00    +0.000 A 
ATOM     31 CL   UNL     1       8.498   5.147  20.414  0.00  0.00    +0.000 Cl
ATOM     32  C   UNL     1       7.598   4.862  17.881  0.00  0.00    +0.000 A 
ENDBRANCH  25  26
ENDBRANCH  24  25
ENDBRANCH  22  24
ENDBRANCH   2  22
TORSDOF 7
ENDMDL
MODEL 8
REMARK VINA RESULT:      -7.5      2.401      3.295
REMARK  Name = 
REMARK  9 active torsions:
REMARK  status: ('A' for Active; 'I' for Inactive)
REMARK    1  A    between atoms: C_1  and  N_2
REMARK    2  A    between atoms: N_2  and  C_3
REMARK    3  A    between atoms: N_2  and  C_4
REMARK    4  A    between atoms: C_7  and  N_8
REMARK    5  A    between atoms: C_9  and  C_11
REMARK    6  A    between atoms: C_12  and  N_13
REMARK    7  A    between atoms: N_13  and  C_14
REMARK    8  A    between atoms: C_14  and  C_15
REMARK    9  A    between atoms: C_15  and  C_16
REMARK                            x       y       z     vdW  Elec       q    Type
REMARK                         _______ _______ _______ _____ _____    ______ ____
ROOT
ATOM      1  C   UNL     1       3.050   4.364  18.958  0.00  0.00    +0.000 A 
ATOM      2  C   UNL     1       3.769   3.694  18.015  0.00  0.00    +0.000 A 
ATOM      3  C   UNL     1       4.198   2.330  18.308  0.00  0.00    +0.000 A 
ATOM      4  C   UNL     1       3.950   1.752  19.487  0.00  0.00    +0.000 A 
ATOM      5  N   UNL     1       3.336   2.465  20.476  0.00  0.00    +0.000 N 
ATOM      6  C   UNL     1       2.914   3.762  20.323  0.00  0.00    +0.000 A 
ATOM      7  O   UNL     1       2.452   4.392  21.272  0.00  0.00    +0.000 OA
ATOM      8  H   UNL     1       3.187   2.050  21.389  0.00  0.00    +0.000 HD
ENDROOT
BRANCH   1  10
ATOM      9  N   UNL     1       2.632   6.737  19.380  0.00  0.00    +0.000 N 
ATOM     10  C   UNL     1       2.325   5.631  18.605  0.00  0.00    +0.000 C 
ATOM     11  O   UNL     1       1.489   5.609  17.705  0.00  0.00    +0.000 OA
ATOM     12  H   UNL     1       3.305   6.602  20.135  0.00  0.00    +0.000 HD
BRANCH   9  16
ATOM     13  C   UNL     1       0.727  10.573  19.254  0.00  0.00    +0.000 A 
ATOM     14  C   UNL     1       1.448  10.074  18.163  0.00  0.00    +0.000 A 
ATOM     15  C   UNL     1       2.096   8.833  18.193  0.00  0.00    +0.000 A 
ATOM     16  C   UNL     1       2.021   8.011  19.311  0.00  0.00    +0.000 A 
ATOM     17  C   UNL     1       1.283   8.467  20.405  0.00  0.00    +0.000 A 
ATOM     18  C   UNL     1       0.651   9.727  20.373  0.00  0.00    +0.000 A 
BRANCH  13  20
ATOM     19  C   UNL     1      -1.369  11.876  19.205  0.00  0.00    +0.000 C 
ATOM     20  N   UNL     1       0.093  11.819  19.213  0.00  0.00    +0.000 N 
ATOM     21  C   UNL     1       0.785  12.926  18.558  0.00  0.00    +0.000 C 
ENDBRANCH  13  20
ENDBRANCH   9  16
ENDBRANCH   1  10
BRANCH   2  22
ATOM     22  N   UNL     1       4.060   4.077  16.698  0.00  0.00    +0.000 N 
ATOM     23  H   UNL     1       3.174   4.418  16.300  0.00  0.00    +0.000 HD
BRANCH  22  24
ATOM     24  C   UNL     1       5.037   5.141  16.369  0.00  0.00    +0.000 C 
BRANCH  24  25
ATOM     25  C   UNL     1       6.435   4.603  16.058  0.00  0.00    +0.000 C 
BRANCH  25  26
ATOM     26  C   UNL     1       6.684   4.489  14.568  0.00  0.00    +0.000 A 
ATOM     27  C   UNL     1       7.594   5.344  13.929  0.00  0.00    +0.000 A 
ATOM     28  C   UNL     1       7.838   5.230  12.557  0.00  0.00    +0.000 A 
ATOM     29  C   UNL     1       7.169   4.266  11.805  0.00  0.00    +0.000 A 
ATOM     30  C   UNL     1       6.250   3.425  12.429  0.00  0.00    +0.000 A 
ATOM     31 CL   UNL     1       5.411   2.242  11.500  0.00  0.00    +0.000 Cl
ATOM     32  C   UNL     1       6.001   3.535  13.799  0.00  0.00    +0.000 A 
ENDBRANCH  25  26
ENDBRANCH  24  25
ENDBRANCH  22  24
ENDBRANCH   2  22
TORSDOF 7
ENDMDL
MODEL 9
REMARK VINA RESULT:      -7.5      2.364      3.385
REMARK  Name = 
REMARK  9 active torsions:
REMARK  status: ('A' for Active; 'I' for Inactive)
REMARK    1  A    between atoms: C_1  and  N_2
REMARK    2  A    between atoms: N_2  and  C_3
REMARK    3  A    between atoms: N_2  and  C_4
REMARK    4  A    between atoms: C_7  and  N_8
REMARK    5  A    between atoms: C_9  and  C_11
REMARK    6  A    between atoms: C_12  and  N_13
REMARK    7  A    between atoms: N_13  and  C_14
REMARK    8  A    between atoms: C_14  and  C_15
REMARK    9  A    between atoms: C_15  and  C_16
REMARK                            x       y       z     vdW  Elec       q    Type
REMARK                         _______ _______ _______ _____ _____    ______ ____
ROOT
ATOM      1  C   UNL     1       3.157   4.097  19.150  0.00  0.00    +0.000 A 
ATOM      2  C   UNL     1       4.080   3.416  18.415  0.00  0.00    +0.000 A 
ATOM      3  C   UNL     1       3.804   2.025  18.071  0.00  0.00    +0.000 A 
ATOM      4  C   UNL     1       2.706   1.397  18.502  0.00  0.00    +0.000 A 
ATOM      5  N   UNL     1       1.841   2.042  19.338  0.00  0.00    +0.000 N 
ATOM      6  C   UNL     1       2.013   3.339  19.750  0.00  0.00    +0.000 A 
ATOM      7  O   UNL     1       1.257   3.844  20.579  0.00  0.00    +0.000 OA
ATOM      8  H   UNL     1       1.031   1.557  19.708  0.00  0.00    +0.000 HD
ENDROOT
BRANCH   1  10
ATOM      9  N   UNL     1       2.032   6.269  19.138  0.00  0.00    +0.000 N 
ATOM     10  C   UNL     1       3.232   5.592  19.271  0.00  0.00    +0.000 C 
ATOM     11  O   UNL     1       4.329   6.123  19.433  0.00  0.00    +0.000 OA
ATOM     12  H   UNL     1       1.201   5.707  18.949  0.00  0.00    +0.000 HD
BRANCH   9  16
ATOM     13  C   UNL     1       1.543  10.523  18.990  0.00  0.00    +0.000 A 
ATOM     14  C   UNL     1       1.256   9.790  20.147  0.00  0.00    +0.000 A 
ATOM     15  C   UNL     1       1.388   8.397  20.209  0.00  0.00    +0.000 A 
ATOM     16  C   UNL     1       1.852   7.672  19.118  0.00  0.00    +0.000 A 
ATOM     17  C   UNL     1       2.177   8.379  17.958  0.00  0.00    +0.000 A 
ATOM     18  C   UNL     1       2.021   9.778  17.900  0.00  0.00    +0.000 A 
BRANCH  13  20
ATOM     19  C   UNL     1       2.391  12.710  18.222  0.00  0.00    +0.000 C 
ATOM     20  N   UNL     1       1.397  11.913  18.941  0.00  0.00    +0.000 N 
ATOM     21  C   UNL     1       0.719  12.577  20.052  0.00  0.00    +0.000 C 
ENDBRANCH  13  20
ENDBRANCH   9  16
ENDBRANCH   1  10
BRANCH   2  22
ATOM     22  N   UNL     1       5.241   3.902  17.797  0.00  0.00    +0.000 N 
ATOM     23  H   UNL     1       5.880   3.099  17.727  0.00  0.00    +0.000 HD
BRANCH  22  24
ATOM     24  C   UNL     1       5.241   4.485  16.435  0.00  0.00    +0.000 C 
BRANCH  24  25
ATOM     25  C   UNL     1       6.636   4.886  15.949  0.00  0.00    +0.000 C 
BRANCH  25  26
ATOM     26  C   UNL     1       6.802   4.676  14.458  0.00  0.00    +0.000 A 
ATOM     27  C   UNL     1       7.668   5.491  13.714  0.00  0.00    +0.000 A 
ATOM     28  C   UNL     1       7.836   5.289  12.342  0.00  0.00    +0.000 A 
ATOM     29  C   UNL     1       7.133   4.275  11.692  0.00  0.00    +0.000 A 
ATOM     30  C   UNL     1       6.257   3.472  12.420  0.00  0.00    +0.000 A 
ATOM     31 CL   UNL     1       5.378   2.227  11.619  0.00  0.00    +0.000 Cl
ATOM     32  C   UNL     1       6.085   3.670  13.792  0.00  0.00    +0.000 A 
ENDBRANCH  25  26
ENDBRANCH  24  25
ENDBRANCH  22  24
ENDBRANCH   2  22
TORSDOF 7
ENDMDL
