MODEL 1
REMARK VINA RESULT:      -8.5      0.000      0.000
REMARK  Name = 
REMARK  8 active torsions:
REMARK  status: ('A' for Active; 'I' for Inactive)
REMARK    1  A    between atoms: C_1  and  C_2
REMARK    2  A    between atoms: C_4  and  N_5
REMARK    3  A    between atoms: N_5  and  CA_6
REMARK    4  A    between atoms: CA_6  and  C_7
REMARK    5  A    between atoms: CA_6  and  C_9
REMARK    6  A    between atoms: C_7  and  O_8
REMARK    7  A    between atoms: C_17  and  C_18
REMARK    8  A    between atoms: C_19  and  C_20
REMARK                            x       y       z     vdW  Elec       q    Type
REMARK                         _______ _______ _______ _____ _____    ______ ____
ROOT
ATOM      1  C   UNL     1       7.866   7.029  18.212  0.00  0.00    +0.000 C 
ATOM      2  C   UNL     1       7.249   6.005  17.291  0.00  0.00    +0.000 A 
ATOM      3  C   UNL     1       6.289   5.041  17.902  0.00  0.00    +0.000 A 
ATOM      4  C   UNL     1       5.640   4.205  17.072  0.00  0.00    +0.000 A 
ATOM      5  N   UNL     1       5.994   4.235  15.694  0.00  0.00    +0.000 N 
ATOM      6  N   UNL     1       5.481   3.478  14.678  0.00  0.00    +0.000 NA
ATOM      7  C   UNL     1       6.181   3.847  13.595  0.00  0.00    +0.000 A 
ATOM      8  C   UNL     1       5.952   3.193  12.280  0.00  0.00    +0.000 C 
ATOM      9  C   UNL     1       7.107   4.885  13.874  0.00  0.00    +0.000 A 
ATOM     10  C   UNL     1       8.044   5.571  12.950  0.00  0.00    +0.000 C 
ATOM     11  C   UNL     1       6.959   5.131  15.223  0.00  0.00    +0.000 A 
ATOM     12  N   UNL     1       7.575   6.041  16.035  0.00  0.00    +0.000 NA
ENDROOT
BRANCH   4  13
ATOM     13  N   UNL     1       4.656   3.304  17.517  0.00  0.00    +0.000 N 
ATOM     14  H   UNL     1       4.834   2.371  17.140  0.00  0.00    +0.000 HD
BRANCH  13  15
ATOM     15  CA  UNL     1       3.220   3.654  17.488  0.00  0.00    +0.000 C 
BRANCH  15  16
ATOM     16  C   UNL     1       2.858   4.779  18.446  0.00  0.00    +0.000 A 
ATOM     17  C   UNL     1       2.899   6.107  17.974  0.00  0.00    +0.000 A 
ATOM     18  C   UNL     1       2.467   7.173  18.771  0.00  0.00    +0.000 A 
ATOM     19  C   UNL     1       1.993   6.924  20.055  0.00  0.00    +0.000 A 
ATOM     20  C   UNL     1       1.961   5.619  20.545  0.00  0.00    +0.000 A 
ATOM     21  C   UNL     1       2.390   4.553  19.746  0.00  0.00    +0.000 A 
ENDBRANCH  15  16
BRANCH  15  22
ATOM     22  C   UNL     1       2.336   2.406  17.740  0.00  0.00    +0.000 C 
BRANCH  22  23
ATOM     23  O   UNL     1       3.063   1.308  18.292  0.00  0.00    +0.000 OA
ATOM     24  H   UNL     1       3.316   0.727  17.555  0.00  0.00    +0.000 HD
ENDBRANCH  22  23
ENDBRANCH  15  22
ENDBRANCH  13  15
ENDBRANCH   4  13
TORSDOF 5
ENDMDL
MODEL 2
REMARK VINA RESULT:      -8.5      0.173      1.041
REMARK  Name = 
REMARK  8 active torsions:
REMARK  status: ('A' for Active; 'I' for Inactive)
REMARK    1  A    between atoms: C_1  and  C_2
REMARK    2  A    between atoms: C_4  and  N_5
REMARK    3  A    between atoms: N_5  and  CA_6
REMARK    4  A    between atoms: CA_6  and  C_7
REMARK    5  A    between atoms: CA_6  and  C_9
REMARK    6  A    between atoms: C_7  and  O_8
REMARK    7  A    between atoms: C_17  and  C_18
REMARK    8  A    between atoms: C_19  and  C_20
REMARK                            x       y       z     vdW  Elec       q    Type
REMARK                         _______ _______ _______ _____ _____    ______ ____
ROOT
ATOM      1  C   UNL     1       7.900   7.289  18.139  0.00  0.00    +0.000 C 
ATOM      2  C   UNL     1       7.281   6.218  17.275  0.00  0.00    +0.000 A 
ATOM      3  C   UNL     1       6.332   5.279  17.941  0.00  0.00    +0.000 A 
ATOM      4  C   UNL     1       5.681   4.400  17.159  0.00  0.00    +0.000 A 
ATOM      5  N   UNL     1       6.021   4.365  15.777  0.00  0.00    +0.000 N 
ATOM      6  N   UNL     1       5.503   3.556  14.804  0.00  0.00    +0.000 NA
ATOM      7  C   UNL     1       6.190   3.877  13.698  0.00  0.00    +0.000 A 
ATOM      8  C   UNL     1       5.953   3.159  12.419  0.00  0.00    +0.000 C 
ATOM      9  C   UNL     1       7.112   4.933  13.917  0.00  0.00    +0.000 A 
ATOM     10  C   UNL     1       8.036   5.579  12.952  0.00  0.00    +0.000 C 
ATOM     11  C   UNL     1       6.976   5.243  15.254  0.00  0.00    +0.000 A 
ATOM     12  N   UNL     1       7.594   6.195  16.015  0.00  0.00    +0.000 NA
ENDROOT
BRANCH   4  13
ATOM     13  N   UNL     1       4.707   3.516  17.656  0.00  0.00    +0.000 N 
ATOM     14  H   UNL     1       4.956   2.550  17.431  0.00  0.00    +0.000 HD
BRANCH  13  15
ATOM     15  CA  UNL     1       3.263   3.776  17.475  0.00  0.00    +0.000 C 
BRANCH  15  16
ATOM     16  C   UNL     1       2.738   4.888  18.371  0.00  0.00    +0.000 A 
ATOM     17  C   UNL     1       2.248   4.551  19.650  0.00  0.00    +0.000 A 
ATOM     18  C   UNL     1       1.861   5.539  20.561  0.00  0.00    +0.000 A 
ATOM     19  C   UNL     1       1.955   6.880  20.204  0.00  0.00    +0.000 A 
ATOM     20  C   UNL     1       2.422   7.233  18.937  0.00  0.00    +0.000 A 
ATOM     21  C   UNL     1       2.811   6.243  18.027  0.00  0.00    +0.000 A 
ENDBRANCH  15  16
BRANCH  15  22
ATOM     22  C   UNL     1       2.435   2.480  17.658  0.00  0.00    +0.000 C 
BRANCH  22  23
ATOM     23  O   UNL     1       3.196   1.400  18.198  0.00  0.00    +0.000 OA
ATOM     24  H   UNL     1       3.791   1.084  17.497  0.00  0.00    +0.000 HD
ENDBRANCH  22  23
ENDBRANCH  15  22
ENDBRANCH  13  15
ENDBRANCH   4  13
TORSDOF 5
ENDMDL
MODEL 3
REMARK VINA RESULT:      -8.1      1.230      1.711
REMARK  Name = 
REMARK  8 active torsions:
REMARK  status: ('A' for Active; 'I' for Inactive)
REMARK    1  A    between atoms: C_1  and  C_2
REMARK    2  A    between atoms: C_4  and  N_5
REMARK    3  A    between atoms: N_5  and  CA_6
REMARK    4  A    between atoms: CA_6  and  C_7
REMARK    5  A    between atoms: CA_6  and  C_9
REMARK    6  A    between atoms: C_7  and  O_8
REMARK    7  A    between atoms: C_17  and  C_18
REMARK    8  A    between atoms: C_19  and  C_20
REMARK                            x       y       z     vdW  Elec       q    Type
REMARK                         _______ _______ _______ _____ _____    ______ ____
ROOT
ATOM      1  C   UNL     1       7.935   7.313  18.100  0.00  0.00    +0.000 C 
ATOM      2  C   UNL     1       7.325   6.226  17.250  0.00  0.00    +0.000 A 
ATOM      3  C   UNL     1       6.411   5.267  17.936  0.00  0.00    +0.000 A 
ATOM      4  C   UNL     1       5.766   4.371  17.168  0.00  0.00    +0.000 A 
ATOM      5  N   UNL     1       6.080   4.341  15.781  0.00  0.00    +0.000 N 
ATOM      6  N   UNL     1       5.563   3.518  14.819  0.00  0.00    +0.000 NA
ATOM      7  C   UNL     1       6.221   3.851  13.699  0.00  0.00    +0.000 A 
ATOM      8  C   UNL     1       5.976   3.125  12.426  0.00  0.00    +0.000 C 
ATOM      9  C   UNL     1       7.122   4.929  13.898  0.00  0.00    +0.000 A 
ATOM     10  C   UNL     1       8.012   5.594  12.915  0.00  0.00    +0.000 C 
ATOM     11  C   UNL     1       7.004   5.239  15.237  0.00  0.00    +0.000 A 
ATOM     12  N   UNL     1       7.614   6.207  15.985  0.00  0.00    +0.000 NA
ENDROOT
BRANCH   4  13
ATOM     13  N   UNL     1       4.822   3.466  17.686  0.00  0.00    +0.000 N 
ATOM     14  H   UNL     1       4.936   2.547  17.252  0.00  0.00    +0.000 HD
BRANCH  13  15
ATOM     15  CA  UNL     1       3.400   3.838  17.841  0.00  0.00    +0.000 C 
BRANCH  15  16
ATOM     16  C   UNL     1       2.876   3.624  19.254  0.00  0.00    +0.000 A 
ATOM     17  C   UNL     1       1.630   4.185  19.604  0.00  0.00    +0.000 A 
ATOM     18  C   UNL     1       1.044   3.927  20.847  0.00  0.00    +0.000 A 
ATOM     19  C   UNL     1       1.699   3.107  21.760  0.00  0.00    +0.000 A 
ATOM     20  C   UNL     1       2.939   2.556  21.438  0.00  0.00    +0.000 A 
ATOM     21  C   UNL     1       3.524   2.813  20.193  0.00  0.00    +0.000 A 
ENDBRANCH  15  16
BRANCH  15  22
ATOM     22  C   UNL     1       2.514   3.102  16.805  0.00  0.00    +0.000 C 
BRANCH  22  23
ATOM     23  O   UNL     1       2.088   1.813  17.247  0.00  0.00    +0.000 OA
ATOM     24  H   UNL     1       2.066   1.831  18.219  0.00  0.00    +0.000 HD
ENDBRANCH  22  23
ENDBRANCH  15  22
ENDBRANCH  13  15
ENDBRANCH   4  13
TORSDOF 5
ENDMDL
MODEL 4
REMARK VINA RESULT:      -7.9      2.234      6.052
REMARK  Name = 
REMARK  8 active torsions:
REMARK  status: ('A' for Active; 'I' for Inactive)
REMARK    1  A    between atoms: C_1  and  C_2
REMARK    2  A    between atoms: C_4  and  N_5
REMARK    3  A    between atoms: N_5  and  CA_6
REMARK    4  A    between atoms: CA_6  and  C_7
REMARK    5  A    between atoms: CA_6  and  C_9
REMARK    6  A    between atoms: C_7  and  O_8
REMARK    7  A    between atoms: C_17  and  C_18
REMARK    8  A    between atoms: C_19  and  C_20
REMARK                            x       y       z     vdW  Elec       q    Type
REMARK                         _______ _______ _______ _____ _____    ______ ____
ROOT
ATOM      1  C   UNL     1       2.627   2.843  21.340  0.00  0.00    +0.000 C 
ATOM      2  C   UNL     1       2.726   3.981  20.354  0.00  0.00    +0.000 A 
ATOM      3  C   UNL     1       3.314   3.667  19.020  0.00  0.00    +0.000 A 
ATOM      4  C   UNL     1       3.294   4.640  18.091  0.00  0.00    +0.000 A 
ATOM      5  N   UNL     1       2.810   5.919  18.484  0.00  0.00    +0.000 N 
ATOM      6  N   UNL     1       2.706   7.049  17.722  0.00  0.00    +0.000 NA
ATOM      7  C   UNL     1       2.248   7.986  18.566  0.00  0.00    +0.000 A 
ATOM      8  C   UNL     1       2.058   9.389  18.117  0.00  0.00    +0.000 C 
ATOM      9  C   UNL     1       1.988   7.469  19.862  0.00  0.00    +0.000 A 
ATOM     10  C   UNL     1       1.464   8.173  21.058  0.00  0.00    +0.000 C 
ATOM     11  C   UNL     1       2.340   6.138  19.783  0.00  0.00    +0.000 A 
ATOM     12  N   UNL     1       2.280   5.144  20.719  0.00  0.00    +0.000 NA
ENDROOT
BRANCH   4  13
ATOM     13  N   UNL     1       3.748   4.444  16.775  0.00  0.00    +0.000 N 
ATOM     14  H   UNL     1       3.166   3.750  16.299  0.00  0.00    +0.000 HD
BRANCH  13  15
ATOM     15  CA  UNL     1       5.184   4.271  16.471  0.00  0.00    +0.000 C 
BRANCH  15  16
ATOM     16  C   UNL     1       6.074   5.266  17.200  0.00  0.00    +0.000 A 
ATOM     17  C   UNL     1       6.868   4.804  18.271  0.00  0.00    +0.000 A 
ATOM     18  C   UNL     1       7.790   5.644  18.904  0.00  0.00    +0.000 A 
ATOM     19  C   UNL     1       7.928   6.961  18.476  0.00  0.00    +0.000 A 
ATOM     20  C   UNL     1       7.140   7.440  17.430  0.00  0.00    +0.000 A 
ATOM     21  C   UNL     1       6.219   6.598  16.796  0.00  0.00    +0.000 A 
ENDBRANCH  15  16
BRANCH  15  22
ATOM     22  C   UNL     1       5.441   4.314  14.944  0.00  0.00    +0.000 C 
BRANCH  22  23
ATOM     23  O   UNL     1       6.445   3.393  14.518  0.00  0.00    +0.000 OA
ATOM     24  H   UNL     1       6.131   2.498  14.734  0.00  0.00    +0.000 HD
ENDBRANCH  22  23
ENDBRANCH  15  22
ENDBRANCH  13  15
ENDBRANCH   4  13
TORSDOF 5
ENDMDL
MODEL 5
REMARK VINA RESULT:      -7.7      2.237      4.679
REMARK  Name = 
REMARK  8 active torsions:
REMARK  status: ('A' for Active; 'I' for Inactive)
REMARK    1  A    between atoms: C_1  and  C_2
REMARK    2  A    between atoms: C_4  and  N_5
REMARK    3  A    between atoms: N_5  and  CA_6
REMARK    4  A    between atoms: CA_6  and  C_7
REMARK    5  A    between atoms: CA_6  and  C_9
REMARK    6  A    between atoms: C_7  and  O_8
REMARK    7  A    between atoms: C_17  and  C_18
REMARK    8  A    between atoms: C_19  and  C_20
REMARK                            x       y       z     vdW  Elec       q    Type
REMARK                         _______ _______ _______ _____ _____    ______ ____
ROOT
ATOM      1  C   UNL     1       6.341   5.310  14.991  0.00  0.00    +0.000 C 
ATOM      2  C   UNL     1       5.538   5.295  16.269  0.00  0.00    +0.000 A 
ATOM      3  C   UNL     1       5.745   4.134  17.182  0.00  0.00    +0.000 A 
ATOM      4  C   UNL     1       5.130   4.170  18.378  0.00  0.00    +0.000 A 
ATOM      5  N   UNL     1       4.252   5.260  18.636  0.00  0.00    +0.000 N 
ATOM      6  N   UNL     1       3.519   5.498  19.766  0.00  0.00    +0.000 NA
ATOM      7  C   UNL     1       2.823   6.611  19.488  0.00  0.00    +0.000 A 
ATOM      8  C   UNL     1       1.850   7.164  20.464  0.00  0.00    +0.000 C 
ATOM      9  C   UNL     1       3.138   7.144  18.211  0.00  0.00    +0.000 A 
ATOM     10  C   UNL     1       2.601   8.360  17.551  0.00  0.00    +0.000 C 
ATOM     11  C   UNL     1       4.068   6.271  17.688  0.00  0.00    +0.000 A 
ATOM     12  N   UNL     1       4.742   6.294  16.499  0.00  0.00    +0.000 NA
ENDROOT
BRANCH   4  13
ATOM     13  N   UNL     1       5.307   3.174  19.354  0.00  0.00    +0.000 N 
ATOM     14  H   UNL     1       6.301   2.958  19.464  0.00  0.00    +0.000 HD
BRANCH  13  15
ATOM     15  CA  UNL     1       4.466   1.958  19.378  0.00  0.00    +0.000 C 
BRANCH  15  16
ATOM     16  C   UNL     1       2.992   2.255  19.606  0.00  0.00    +0.000 A 
ATOM     17  C   UNL     1       2.567   2.612  20.903  0.00  0.00    +0.000 A 
ATOM     18  C   UNL     1       1.249   3.008  21.150  0.00  0.00    +0.000 A 
ATOM     19  C   UNL     1       0.334   3.048  20.103  0.00  0.00    +0.000 A 
ATOM     20  C   UNL     1       0.731   2.682  18.816  0.00  0.00    +0.000 A 
ATOM     21  C   UNL     1       2.051   2.289  18.570  0.00  0.00    +0.000 A 
ENDBRANCH  15  16
BRANCH  15  22
ATOM     22  C   UNL     1       4.992   0.936  20.416  0.00  0.00    +0.000 C 
BRANCH  22  23
ATOM     23  O   UNL     1       5.573   1.553  21.565  0.00  0.00    +0.000 OA
ATOM     24  H   UNL     1       4.846   1.807  22.158  0.00  0.00    +0.000 HD
ENDBRANCH  22  23
ENDBRANCH  15  22
ENDBRANCH  13  15
ENDBRANCH   4  13
TORSDOF 5
ENDMDL
MODEL 6
REMARK VINA RESULT:      -7.6      2.103      5.828
REMARK  Name = 
REMARK  8 active torsions:
REMARK  status: ('A' for Active; 'I' for Inactive)
REMARK    1  A    between atoms: C_1  and  C_2
REMARK    2  A    between atoms: C_4  and  N_5
REMARK    3  A    between atoms: N_5  and  CA_6
REMARK    4  A    between atoms: CA_6  and  C_7
REMARK    5  A    between atoms: CA_6  and  C_9
REMARK    6  A    between atoms: C_7  and  O_8
REMARK    7  A    between atoms: C_17  and  C_18
REMARK    8  A    between atoms: C_19  and  C_20
REMARK                            x       y       z     vdW  Elec       q    Type
REMARK                         _______ _______ _______ _____ _____    ______ ____
ROOT
ATOM      1  C   UNL     1       2.879   2.161  20.117  0.00  0.00    +0.000 C 
ATOM      2  C   UNL     1       3.090   3.453  19.365  0.00  0.00    +0.000 A 
ATOM      3  C   UNL     1       3.903   3.380  18.117  0.00  0.00    +0.000 A 
ATOM      4  C   UNL     1       3.995   4.498  17.374  0.00  0.00    +0.000 A 
ATOM      5  N   UNL     1       3.397   5.683  17.886  0.00  0.00    +0.000 N 
ATOM      6  N   UNL     1       3.372   6.926  17.315  0.00  0.00    +0.000 NA
ATOM      7  C   UNL     1       2.740   7.696  18.213  0.00  0.00    +0.000 A 
ATOM      8  C   UNL     1       2.566   9.153  17.977  0.00  0.00    +0.000 C 
ATOM      9  C   UNL     1       2.292   6.962  19.341  0.00  0.00    +0.000 A 
ATOM     10  C   UNL     1       1.546   7.443  20.530  0.00  0.00    +0.000 C 
ATOM     11  C   UNL     1       2.709   5.669  19.103  0.00  0.00    +0.000 A 
ATOM     12  N   UNL     1       2.538   4.529  19.836  0.00  0.00    +0.000 NA
ENDROOT
BRANCH   4  13
ATOM     13  N   UNL     1       4.669   4.536  16.140  0.00  0.00    +0.000 N 
ATOM     14  H   UNL     1       4.164   3.985  15.443  0.00  0.00    +0.000 HD
BRANCH  13  15
ATOM     15  CA  UNL     1       6.132   4.342  16.053  0.00  0.00    +0.000 C 
BRANCH  15  16
ATOM     16  C   UNL     1       6.914   5.258  16.983  0.00  0.00    +0.000 A 
ATOM     17  C   UNL     1       7.015   6.626  16.655  0.00  0.00    +0.000 A 
ATOM     18  C   UNL     1       7.620   7.537  17.527  0.00  0.00    +0.000 A 
ATOM     19  C   UNL     1       8.138   7.090  18.739  0.00  0.00    +0.000 A 
ATOM     20  C   UNL     1       8.062   5.738  19.073  0.00  0.00    +0.000 A 
ATOM     21  C   UNL     1       7.454   4.828  18.201  0.00  0.00    +0.000 A 
ENDBRANCH  15  16
BRANCH  15  22
ATOM     22  C   UNL     1       6.628   4.482  14.592  0.00  0.00    +0.000 C 
BRANCH  22  23
ATOM     23  O   UNL     1       6.340   3.336  13.791  0.00  0.00    +0.000 OA
ATOM     24  H   UNL     1       5.576   3.556  13.231  0.00  0.00    +0.000 HD
ENDBRANCH  22  23
ENDBRANCH  15  22
ENDBRANCH  13  15
ENDBRANCH   4  13
TORSDOF 5
ENDMDL
MODEL 7
REMARK VINA RESULT:      -7.6      2.425      6.257
REMARK  Name = 
REMARK  8 active torsions:
REMARK  status: ('A' for Active; 'I' for Inactive)
REMARK    1  A    between atoms: C_1  and  C_2
REMARK    2  A    between atoms: C_4  and  N_5
REMARK    3  A    between atoms: N_5  and  CA_6
REMARK    4  A    between atoms: CA_6  and  C_7
REMARK    5  A    between atoms: CA_6  and  C_9
REMARK    6  A    between atoms: C_7  and  O_8
REMARK    7  A    between atoms: C_17  and  C_18
REMARK    8  A    between atoms: C_19  and  C_20
REMARK                            x       y       z     vdW  Elec       q    Type
REMARK                         _______ _______ _______ _____ _____    ______ ____
ROOT
ATOM      1  C   UNL     1       2.055   3.559  21.532  0.00  0.00    +0.000 C 
ATOM      2  C   UNL     1       2.260   4.696  20.562  0.00  0.00    +0.000 A 
ATOM      3  C   UNL     1       3.000   4.385  19.304  0.00  0.00    +0.000 A 
ATOM      4  C   UNL     1       3.081   5.357  18.378  0.00  0.00    +0.000 A 
ATOM      5  N   UNL     1       2.547   6.633  18.711  0.00  0.00    +0.000 N 
ATOM      6  N   UNL     1       2.525   7.762  17.939  0.00  0.00    +0.000 NA
ATOM      7  C   UNL     1       1.966   8.696  18.723  0.00  0.00    +0.000 A 
ATOM      8  C   UNL     1       1.820  10.098  18.253  0.00  0.00    +0.000 C 
ATOM      9  C   UNL     1       1.562   8.179  19.981  0.00  0.00    +0.000 A 
ATOM     10  C   UNL     1       0.898   8.881  21.107  0.00  0.00    +0.000 C 
ATOM     11  C   UNL     1       1.928   6.850  19.946  0.00  0.00    +0.000 A 
ATOM     12  N   UNL     1       1.767   5.857  20.870  0.00  0.00    +0.000 NA
ENDROOT
BRANCH   4  13
ATOM     13  N   UNL     1       3.685   5.162  17.123  0.00  0.00    +0.000 N 
ATOM     14  H   UNL     1       3.006   4.787  16.457  0.00  0.00    +0.000 HD
BRANCH  13  15
ATOM     15  CA  UNL     1       5.009   4.516  16.995  0.00  0.00    +0.000 C 
BRANCH  15  16
ATOM     16  C   UNL     1       6.148   5.376  17.523  0.00  0.00    +0.000 A 
ATOM     17  C   UNL     1       6.369   6.639  16.936  0.00  0.00    +0.000 A 
ATOM     18  C   UNL     1       7.324   7.520  17.453  0.00  0.00    +0.000 A 
ATOM     19  C   UNL     1       8.075   7.148  18.563  0.00  0.00    +0.000 A 
ATOM     20  C   UNL     1       7.882   5.896  19.147  0.00  0.00    +0.000 A 
ATOM     21  C   UNL     1       6.924   5.016  18.631  0.00  0.00    +0.000 A 
ENDBRANCH  15  16
BRANCH  15  22
ATOM     22  C   UNL     1       5.277   4.077  15.534  0.00  0.00    +0.000 C 
BRANCH  22  23
ATOM     23  O   UNL     1       6.352   3.146  15.417  0.00  0.00    +0.000 OA
ATOM     24  H   UNL     1       6.034   2.399  14.882  0.00  0.00    +0.000 HD
ENDBRANCH  22  23
ENDBRANCH  15  22
ENDBRANCH  13  15
ENDBRANCH   4  13
TORSDOF 5
ENDMDL
MODEL 8
REMARK VINA RESULT:      -7.5      1.399      2.056
REMARK  Name = 
REMARK  8 active torsions:
REMARK  status: ('A' for Active; 'I' for Inactive)
REMARK    1  A    between atoms: C_1  and  C_2
REMARK    2  A    between atoms: C_4  and  N_5
REMARK    3  A    between atoms: N_5  and  CA_6
REMARK    4  A    between atoms: CA_6  and  C_7
REMARK    5  A    between atoms: CA_6  and  C_9
REMARK    6  A    between atoms: C_7  and  O_8
REMARK    7  A    between atoms: C_17  and  C_18
REMARK    8  A    between atoms: C_19  and  C_20
REMARK                            x       y       z     vdW  Elec       q    Type
REMARK                         _______ _______ _______ _____ _____    ______ ____
ROOT
ATOM      1  C   UNL     1       8.006   7.217  18.232  0.00  0.00    +0.000 C 
ATOM      2  C   UNL     1       7.356   6.175  17.355  0.00  0.00    +0.000 A 
ATOM      3  C   UNL     1       6.383   5.254  18.011  0.00  0.00    +0.000 A 
ATOM      4  C   UNL     1       5.706   4.403  17.219  0.00  0.00    +0.000 A 
ATOM      5  N   UNL     1       6.043   4.378  15.836  0.00  0.00    +0.000 N 
ATOM      6  N   UNL     1       5.501   3.597  14.853  0.00  0.00    +0.000 NA
ATOM      7  C   UNL     1       6.195   3.913  13.750  0.00  0.00    +0.000 A 
ATOM      8  C   UNL     1       5.935   3.219  12.462  0.00  0.00    +0.000 C 
ATOM      9  C   UNL     1       7.146   4.940  13.981  0.00  0.00    +0.000 A 
ATOM     10  C   UNL     1       8.085   5.573  13.023  0.00  0.00    +0.000 C 
ATOM     11  C   UNL     1       7.021   5.235  15.322  0.00  0.00    +0.000 A 
ATOM     12  N   UNL     1       7.666   6.160  16.095  0.00  0.00    +0.000 NA
ENDROOT
BRANCH   4  13
ATOM     13  N   UNL     1       4.709   3.540  17.707  0.00  0.00    +0.000 N 
ATOM     14  H   UNL     1       4.707   2.665  17.177  0.00  0.00    +0.000 HD
BRANCH  13  15
ATOM     15  CA  UNL     1       3.341   4.023  17.992  0.00  0.00    +0.000 C 
BRANCH  15  16
ATOM     16  C   UNL     1       2.822   3.581  19.352  0.00  0.00    +0.000 A 
ATOM     17  C   UNL     1       3.469   2.513  20.007  0.00  0.00    +0.000 A 
ATOM     18  C   UNL     1       3.112   2.138  21.307  0.00  0.00    +0.000 A 
ATOM     19  C   UNL     1       2.098   2.824  21.967  0.00  0.00    +0.000 A 
ATOM     20  C   UNL     1       1.435   3.872  21.329  0.00  0.00    +0.000 A 
ATOM     21  C   UNL     1       1.795   4.249  20.030  0.00  0.00    +0.000 A 
ENDBRANCH  15  16
BRANCH  15  22
ATOM     22  C   UNL     1       2.359   3.617  16.865  0.00  0.00    +0.000 C 
BRANCH  22  23
ATOM     23  O   UNL     1       1.020   4.046  17.107  0.00  0.00    +0.000 OA
ATOM     24  H   UNL     1       0.643   3.458  17.784  0.00  0.00    +0.000 HD
ENDBRANCH  22  23
ENDBRANCH  15  22
ENDBRANCH  13  15
ENDBRANCH   4  13
TORSDOF 5
ENDMDL
MODEL 9
REMARK VINA RESULT:      -7.3      2.248      4.618
REMARK  Name = 
REMARK  8 active torsions:
REMARK  status: ('A' for Active; 'I' for Inactive)
REMARK    1  A    between atoms: C_1  and  C_2
REMARK    2  A    between atoms: C_4  and  N_5
REMARK    3  A    between atoms: N_5  and  CA_6
REMARK    4  A    between atoms: CA_6  and  C_7
REMARK    5  A    between atoms: CA_6  and  C_9
REMARK    6  A    between atoms: C_7  and  O_8
REMARK    7  A    between atoms: C_17  and  C_18
REMARK    8  A    between atoms: C_19  and  C_20
REMARK                            x       y       z     vdW  Elec       q    Type
REMARK                         _______ _______ _______ _____ _____    ______ ____
ROOT
ATOM      1  C   UNL     1       6.359   5.483  14.944  0.00  0.00    +0.000 C 
ATOM      2  C   UNL     1       5.557   5.437  16.222  0.00  0.00    +0.000 A 
ATOM      3  C   UNL     1       5.783   4.265  17.117  0.00  0.00    +0.000 A 
ATOM      4  C   UNL     1       5.167   4.274  18.313  0.00  0.00    +0.000 A 
ATOM      5  N   UNL     1       4.272   5.345  18.588  0.00  0.00    +0.000 N 
ATOM      6  N   UNL     1       3.536   5.555  19.721  0.00  0.00    +0.000 NA
ATOM      7  C   UNL     1       2.823   6.661  19.460  0.00  0.00    +0.000 A 
ATOM      8  C   UNL     1       1.841   7.184  20.445  0.00  0.00    +0.000 C 
ATOM      9  C   UNL     1       3.128   7.219  18.192  0.00  0.00    +0.000 A 
ATOM     10  C   UNL     1       2.573   8.436  17.551  0.00  0.00    +0.000 C 
ATOM     11  C   UNL     1       4.072   6.368  17.656  0.00  0.00    +0.000 A 
ATOM     12  N   UNL     1       4.745   6.419  16.467  0.00  0.00    +0.000 NA
ENDROOT
BRANCH   4  13
ATOM     13  N   UNL     1       5.360   3.266  19.274  0.00  0.00    +0.000 N 
ATOM     14  H   UNL     1       6.351   3.020  19.337  0.00  0.00    +0.000 HD
BRANCH  13  15
ATOM     15  CA  UNL     1       4.485   2.075  19.330  0.00  0.00    +0.000 C 
BRANCH  15  16
ATOM     16  C   UNL     1       3.033   2.413  19.633  0.00  0.00    +0.000 A 
ATOM     17  C   UNL     1       2.091   2.344  18.585  0.00  0.00    +0.000 A 
ATOM     18  C   UNL     1       0.726   2.531  18.826  0.00  0.00    +0.000 A 
ATOM     19  C   UNL     1       0.284   2.793  20.119  0.00  0.00    +0.000 A 
ATOM     20  C   UNL     1       1.202   2.881  21.165  0.00  0.00    +0.000 A 
ATOM     21  C   UNL     1       2.568   2.692  20.924  0.00  0.00    +0.000 A 
ENDBRANCH  15  16
BRANCH  15  22
ATOM     22  C   UNL     1       5.031   1.028  20.333  0.00  0.00    +0.000 C 
BRANCH  22  23
ATOM     23  O   UNL     1       5.539   1.613  21.532  0.00  0.00    +0.000 OA
ATOM     24  H   UNL     1       5.039   1.234  22.276  0.00  0.00    +0.000 HD
ENDBRANCH  22  23
ENDBRANCH  15  22
ENDBRANCH  13  15
ENDBRANCH   4  13
TORSDOF 5
ENDMDL
