MODEL 1
REMARK VINA RESULT:      -8.2      0.000      0.000
REMARK  Name = 
REMARK  6 active torsions:
REMARK  status: ('A' for Active; 'I' for Inactive)
REMARK    1  A    between atoms: C_1  and  C_2
REMARK    2  A    between atoms: C_6  and  N_7
REMARK    3  A    between atoms: C_8  and  C_10
REMARK    4  A    between atoms: C_10  and  S_11
REMARK    5  A    between atoms: S_11  and  C_12
REMARK    6  A    between atoms: C_14  and  C_15
REMARK                            x       y       z     vdW  Elec       q    Type
REMARK                         _______ _______ _______ _____ _____    ______ ____
ROOT
ATOM      1  C   UNL     1       2.785   3.283  20.865  0.00  0.00    +0.000 C 
ENDROOT
BRANCH   1   3
ATOM      2  N   UNL     1       2.751   5.661  20.251  0.00  0.00    +0.000 N 
ATOM      3  C   UNL     1       2.152   4.423  20.074  0.00  0.00    +0.000 C 
ATOM      4  O   UNL     1       1.128   4.218  19.423  0.00  0.00    +0.000 OA
ATOM      5  H   UNL     1       3.502   5.698  20.931  0.00  0.00    +0.000 HD
BRANCH   2  11
ATOM      6  C   UNL     1       0.424  10.000  20.475  0.00  0.00    +0.000 C 
ATOM      7  C   UNL     1       1.276   9.022  19.717  0.00  0.00    +0.000 A 
ATOM      8  C   UNL     1       1.675   9.296  18.407  0.00  0.00    +0.000 A 
ATOM      9  C   UNL     1       2.450   8.375  17.706  0.00  0.00    +0.000 A 
ATOM     10  C   UNL     1       2.815   7.166  18.300  0.00  0.00    +0.000 A 
ATOM     11  C   UNL     1       2.417   6.867  19.603  0.00  0.00    +0.000 A 
ATOM     12  C   UNL     1       1.665   7.812  20.316  0.00  0.00    +0.000 A 
ENDBRANCH   2  11
ENDBRANCH   1   3
BRANCH   1  13
ATOM     13  S   UNL     1       3.789   2.193  19.799  0.00  0.00    +0.000 S 
BRANCH  13  14
ATOM     14  C   UNL     1       4.691   3.400  18.845  0.00  0.00    +0.000 A 
ATOM     15  C   UNL     1       4.406   3.515  17.494  0.00  0.00    +0.000 A 
ATOM     16  C   UNL     1       5.094   4.460  16.726  0.00  0.00    +0.000 A 
ATOM     17  C   UNL     1       4.776   4.578  15.261  0.00  0.00    +0.000 C 
ATOM     18  C   UNL     1       6.067   5.269  17.357  0.00  0.00    +0.000 A 
ATOM     19  C   UNL     1       6.823   6.250  16.680  0.00  0.00    +0.000 A 
ATOM     20  C   UNL     1       7.776   7.019  17.352  0.00  0.00    +0.000 A 
ATOM     21  C   UNL     1       7.985   6.812  18.706  0.00  0.00    +0.000 A 
ATOM     22  C   UNL     1       7.241   5.844  19.383  0.00  0.00    +0.000 A 
ATOM     23  C   UNL     1       6.284   5.069  18.741  0.00  0.00    +0.000 A 
ATOM     24  N   UNL     1       5.611   4.162  19.466  0.00  0.00    +0.000 NA
ENDBRANCH  13  14
ENDBRANCH   1  13
TORSDOF 4
ENDMDL
MODEL 2
REMARK VINA RESULT:      -7.6      4.102      6.876
REMARK  Name = 
REMARK  6 active torsions:
REMARK  status: ('A' for Active; 'I' for Inactive)
REMARK    1  A    between atoms: C_1  and  C_2
REMARK    2  A    between atoms: C_6  and  N_7
REMARK    3  A    between atoms: C_8  and  C_10
REMARK    4  A    between atoms: C_10  and  S_11
REMARK    5  A    between atoms: S_11  and  C_12
REMARK    6  A    between atoms: C_14  and  C_15
REMARK                            x       y       z     vdW  Elec       q    Type
REMARK                         _______ _______ _______ _____ _____    ______ ____
ROOT
ATOM      1  C   UNL     1       7.868   6.871  18.227  0.00  0.00    +0.000 C 
ENDROOT
BRANCH   1   3
ATOM      2  N   UNL     1       8.939   8.879  19.150  0.00  0.00    +0.000 N 
ATOM      3  C   UNL     1       8.102   8.377  18.166  0.00  0.00    +0.000 C 
ATOM      4  O   UNL     1       7.488   9.056  17.344  0.00  0.00    +0.000 OA
ATOM      5  H   UNL     1       9.259   8.213  19.844  0.00  0.00    +0.000 HD
BRANCH   2  11
ATOM      6  C   UNL     1      10.973  12.843  17.044  0.00  0.00    +0.000 C 
ATOM      7  C   UNL     1      10.372  12.180  18.250  0.00  0.00    +0.000 A 
ATOM      8  C   UNL     1      10.298  12.857  19.469  0.00  0.00    +0.000 A 
ATOM      9  C   UNL     1       9.755  12.226  20.587  0.00  0.00    +0.000 A 
ATOM     10  C   UNL     1       9.301  10.909  20.500  0.00  0.00    +0.000 A 
ATOM     11  C   UNL     1       9.376  10.210  19.295  0.00  0.00    +0.000 A 
ATOM     12  C   UNL     1       9.894  10.862  18.165  0.00  0.00    +0.000 A 
ENDBRANCH   2  11
ENDBRANCH   1   3
BRANCH   1  13
ATOM     13  S   UNL     1       7.218   6.221  16.650  0.00  0.00    +0.000 S 
BRANCH  13  14
ATOM     14  C   UNL     1       5.562   5.769  17.133  0.00  0.00    +0.000 A 
ATOM     15  C   UNL     1       4.670   6.783  17.446  0.00  0.00    +0.000 A 
ATOM     16  C   UNL     1       3.363   6.456  17.820  0.00  0.00    +0.000 A 
ATOM     17  C   UNL     1       2.402   7.564  18.155  0.00  0.00    +0.000 C 
ATOM     18  C   UNL     1       2.993   5.092  17.870  0.00  0.00    +0.000 A 
ATOM     19  C   UNL     1       1.705   4.647  18.238  0.00  0.00    +0.000 A 
ATOM     20  C   UNL     1       1.395   3.286  18.276  0.00  0.00    +0.000 A 
ATOM     21  C   UNL     1       2.370   2.356  17.952  0.00  0.00    +0.000 A 
ATOM     22  C   UNL     1       3.646   2.788  17.586  0.00  0.00    +0.000 A 
ATOM     23  C   UNL     1       3.980   4.135  17.535  0.00  0.00    +0.000 A 
ATOM     24  N   UNL     1       5.230   4.465  17.172  0.00  0.00    +0.000 NA
ENDBRANCH  13  14
ENDBRANCH   1  13
TORSDOF 4
ENDMDL
MODEL 3
REMARK VINA RESULT:      -7.5      0.618      1.437
REMARK  Name = 
REMARK  6 active torsions:
REMARK  status: ('A' for Active; 'I' for Inactive)
REMARK    1  A    between atoms: C_1  and  C_2
REMARK    2  A    between atoms: C_6  and  N_7
REMARK    3  A    between atoms: C_8  and  C_10
REMARK    4  A    between atoms: C_10  and  S_11
REMARK    5  A    between atoms: S_11  and  C_12
REMARK    6  A    between atoms: C_14  and  C_15
REMARK                            x       y       z     vdW  Elec       q    Type
REMARK                         _______ _______ _______ _____ _____    ______ ____
ROOT
ATOM      1  C   UNL     1       2.784   3.079  20.743  0.00  0.00    +0.000 C 
ENDROOT
BRANCH   1   3
ATOM      2  N   UNL     1       2.400   5.503  20.824  0.00  0.00    +0.000 N 
ATOM      3  C   UNL     1       1.989   4.296  20.282  0.00  0.00    +0.000 C 
ATOM      4  O   UNL     1       1.004   4.142  19.560  0.00  0.00    +0.000 OA
ATOM      5  H   UNL     1       3.140   5.451  21.515  0.00  0.00    +0.000 HD
BRANCH   2  11
ATOM      6  C   UNL     1       2.170   9.259  17.641  0.00  0.00    +0.000 C 
ATOM      7  C   UNL     1       1.766   8.640  18.948  0.00  0.00    +0.000 A 
ATOM      8  C   UNL     1       0.953   9.339  19.843  0.00  0.00    +0.000 A 
ATOM      9  C   UNL     1       0.598   8.764  21.061  0.00  0.00    +0.000 A 
ATOM     10  C   UNL     1       1.068   7.495  21.403  0.00  0.00    +0.000 A 
ATOM     11  C   UNL     1       1.891   6.784  20.530  0.00  0.00    +0.000 A 
ATOM     12  C   UNL     1       2.218   7.355  19.290  0.00  0.00    +0.000 A 
ENDBRANCH   2  11
ENDBRANCH   1   3
BRANCH   1  13
ATOM     13  S   UNL     1       3.407   2.101  19.333  0.00  0.00    +0.000 S 
BRANCH  13  14
ATOM     14  C   UNL     1       4.445   3.305  18.526  0.00  0.00    +0.000 A 
ATOM     15  C   UNL     1       4.294   3.493  17.161  0.00  0.00    +0.000 A 
ATOM     16  C   UNL     1       5.091   4.438  16.507  0.00  0.00    +0.000 A 
ATOM     17  C   UNL     1       4.917   4.636  15.025  0.00  0.00    +0.000 C 
ATOM     18  C   UNL     1       6.033   5.172  17.262  0.00  0.00    +0.000 A 
ATOM     19  C   UNL     1       6.891   6.146  16.706  0.00  0.00    +0.000 A 
ATOM     20  C   UNL     1       7.808   6.838  17.500  0.00  0.00    +0.000 A 
ATOM     21  C   UNL     1       7.880   6.562  18.855  0.00  0.00    +0.000 A 
ATOM     22  C   UNL     1       7.035   5.601  19.414  0.00  0.00    +0.000 A 
ATOM     23  C   UNL     1       6.111   4.901  18.649  0.00  0.00    +0.000 A 
ATOM     24  N   UNL     1       5.334   3.995  19.265  0.00  0.00    +0.000 NA
ENDBRANCH  13  14
ENDBRANCH   1  13
TORSDOF 4
ENDMDL
MODEL 4
REMARK VINA RESULT:      -7.5      1.080      2.318
REMARK  Name = 
REMARK  6 active torsions:
REMARK  status: ('A' for Active; 'I' for Inactive)
REMARK    1  A    between atoms: C_1  and  C_2
REMARK    2  A    between atoms: C_6  and  N_7
REMARK    3  A    between atoms: C_8  and  C_10
REMARK    4  A    between atoms: C_10  and  S_11
REMARK    5  A    between atoms: S_11  and  C_12
REMARK    6  A    between atoms: C_14  and  C_15
REMARK                            x       y       z     vdW  Elec       q    Type
REMARK                         _______ _______ _______ _____ _____    ______ ____
ROOT
ATOM      1  C   UNL     1       2.824   3.757  20.905  0.00  0.00    +0.000 C 
ENDROOT
BRANCH   1   3
ATOM      2  N   UNL     1       2.638   6.130  20.297  0.00  0.00    +0.000 N 
ATOM      3  C   UNL     1       1.959   4.932  20.459  0.00  0.00    +0.000 C 
ATOM      4  O   UNL     1       0.741   4.790  20.363  0.00  0.00    +0.000 OA
ATOM      5  H   UNL     1       3.620   6.122  20.550  0.00  0.00    +0.000 HD
BRANCH   2  11
ATOM      6  C   UNL     1       0.028  10.182  21.324  0.00  0.00    +0.000 C 
ATOM      7  C   UNL     1       0.826   9.366  20.348  0.00  0.00    +0.000 A 
ATOM      8  C   UNL     1       0.988   9.796  19.029  0.00  0.00    +0.000 A 
ATOM      9  C   UNL     1       1.715   9.023  18.126  0.00  0.00    +0.000 A 
ATOM     10  C   UNL     1       2.268   7.806  18.528  0.00  0.00    +0.000 A 
ATOM     11  C   UNL     1       2.108   7.351  19.837  0.00  0.00    +0.000 A 
ATOM     12  C   UNL     1       1.403   8.150  20.750  0.00  0.00    +0.000 A 
ENDBRANCH   2  11
ENDBRANCH   1   3
BRANCH   1  13
ATOM     13  S   UNL     1       3.065   2.544  19.562  0.00  0.00    +0.000 S 
BRANCH  13  14
ATOM     14  C   UNL     1       4.295   3.379  18.577  0.00  0.00    +0.000 A 
ATOM     15  C   UNL     1       5.248   4.146  19.229  0.00  0.00    +0.000 A 
ATOM     16  C   UNL     1       6.228   4.804  18.479  0.00  0.00    +0.000 A 
ATOM     17  C   UNL     1       7.259   5.632  19.196  0.00  0.00    +0.000 C 
ATOM     18  C   UNL     1       6.213   4.667  17.072  0.00  0.00    +0.000 A 
ATOM     19  C   UNL     1       7.149   5.288  16.218  0.00  0.00    +0.000 A 
ATOM     20  C   UNL     1       7.083   5.123  14.833  0.00  0.00    +0.000 A 
ATOM     21  C   UNL     1       6.080   4.339  14.287  0.00  0.00    +0.000 A 
ATOM     22  C   UNL     1       5.150   3.721  15.125  0.00  0.00    +0.000 A 
ATOM     23  C   UNL     1       5.194   3.864  16.505  0.00  0.00    +0.000 A 
ATOM     24  N   UNL     1       4.263   3.233  17.239  0.00  0.00    +0.000 NA
ENDBRANCH  13  14
ENDBRANCH   1  13
TORSDOF 4
ENDMDL
MODEL 5
REMARK VINA RESULT:      -7.4      4.204      6.704
REMARK  Name = 
REMARK  6 active torsions:
REMARK  status: ('A' for Active; 'I' for Inactive)
REMARK    1  A    between atoms: C_1  and  C_2
REMARK    2  A    between atoms: C_6  and  N_7
REMARK    3  A    between atoms: C_8  and  C_10
REMARK    4  A    between atoms: C_10  and  S_11
REMARK    5  A    between atoms: S_11  and  C_12
REMARK    6  A    between atoms: C_14  and  C_15
REMARK                            x       y       z     vdW  Elec       q    Type
REMARK                         _______ _______ _______ _____ _____    ______ ____
ROOT
ATOM      1  C   UNL     1       7.919   6.997  18.299  0.00  0.00    +0.000 C 
ENDROOT
BRANCH   1   3
ATOM      2  N   UNL     1       9.011   9.041  19.113  0.00  0.00    +0.000 N 
ATOM      3  C   UNL     1       8.104   8.509  18.210  0.00  0.00    +0.000 C 
ATOM      4  O   UNL     1       7.401   9.164  17.442  0.00  0.00    +0.000 OA
ATOM      5  H   UNL     1       9.410   8.389  19.779  0.00  0.00    +0.000 HD
BRANCH   2  11
ATOM      6  C   UNL     1       9.484  13.050  21.940  0.00  0.00    +0.000 C 
ATOM      7  C   UNL     1       9.669  12.368  20.615  0.00  0.00    +0.000 A 
ATOM      8  C   UNL     1      10.189  13.068  19.524  0.00  0.00    +0.000 A 
ATOM      9  C   UNL     1      10.339  12.432  18.293  0.00  0.00    +0.000 A 
ATOM     10  C   UNL     1       9.954  11.099  18.139  0.00  0.00    +0.000 A 
ATOM     11  C   UNL     1       9.422  10.385  19.212  0.00  0.00    +0.000 A 
ATOM     12  C   UNL     1       9.303  11.021  20.457  0.00  0.00    +0.000 A 
ENDBRANCH   2  11
ENDBRANCH   1   3
BRANCH   1  13
ATOM     13  S   UNL     1       7.318   6.293  16.725  0.00  0.00    +0.000 S 
BRANCH  13  14
ATOM     14  C   UNL     1       5.653   5.842  17.177  0.00  0.00    +0.000 A 
ATOM     15  C   UNL     1       4.759   6.855  17.486  0.00  0.00    +0.000 A 
ATOM     16  C   UNL     1       3.446   6.528  17.835  0.00  0.00    +0.000 A 
ATOM     17  C   UNL     1       2.482   7.635  18.167  0.00  0.00    +0.000 C 
ATOM     18  C   UNL     1       3.070   5.165  17.866  0.00  0.00    +0.000 A 
ATOM     19  C   UNL     1       1.775   4.719  18.207  0.00  0.00    +0.000 A 
ATOM     20  C   UNL     1       1.461   3.359  18.227  0.00  0.00    +0.000 A 
ATOM     21  C   UNL     1       2.438   2.430  17.908  0.00  0.00    +0.000 A 
ATOM     22  C   UNL     1       3.722   2.862  17.568  0.00  0.00    +0.000 A 
ATOM     23  C   UNL     1       4.060   4.208  17.537  0.00  0.00    +0.000 A 
ATOM     24  N   UNL     1       5.317   4.538  17.197  0.00  0.00    +0.000 NA
ENDBRANCH  13  14
ENDBRANCH   1  13
TORSDOF 4
ENDMDL
MODEL 6
REMARK VINA RESULT:      -7.2      1.120      2.651
REMARK  Name = 
REMARK  6 active torsions:
REMARK  status: ('A' for Active; 'I' for Inactive)
REMARK    1  A    between atoms: C_1  and  C_2
REMARK    2  A    between atoms: C_6  and  N_7
REMARK    3  A    between atoms: C_8  and  C_10
REMARK    4  A    between atoms: C_10  and  S_11
REMARK    5  A    between atoms: S_11  and  C_12
REMARK    6  A    between atoms: C_14  and  C_15
REMARK                            x       y       z     vdW  Elec       q    Type
REMARK                         _______ _______ _______ _____ _____    ______ ____
ROOT
ATOM      1  C   UNL     1       2.723   3.500  20.967  0.00  0.00    +0.000 C 
ENDROOT
BRANCH   1   3
ATOM      2  N   UNL     1       2.382   5.930  20.863  0.00  0.00    +0.000 N 
ATOM      3  C   UNL     1       1.821   4.684  20.633  0.00  0.00    +0.000 C 
ATOM      4  O   UNL     1       0.658   4.483  20.284  0.00  0.00    +0.000 OA
ATOM      5  H   UNL     1       3.304   5.932  21.286  0.00  0.00    +0.000 HD
BRANCH   2  11
ATOM      6  C   UNL     1       1.872   9.671  17.696  0.00  0.00    +0.000 C 
ATOM      7  C   UNL     1       1.540   9.033  19.015  0.00  0.00    +0.000 A 
ATOM      8  C   UNL     1       0.725   9.694  19.937  0.00  0.00    +0.000 A 
ATOM      9  C   UNL     1       0.437   9.102  21.165  0.00  0.00    +0.000 A 
ATOM     10  C   UNL     1       0.978   7.857  21.489  0.00  0.00    +0.000 A 
ATOM     11  C   UNL     1       1.804   7.185  20.588  0.00  0.00    +0.000 A 
ATOM     12  C   UNL     1       2.064   7.771  19.340  0.00  0.00    +0.000 A 
ENDBRANCH   2  11
ENDBRANCH   1   3
BRANCH   1  13
ATOM     13  S   UNL     1       2.956   2.397  19.530  0.00  0.00    +0.000 S 
BRANCH  13  14
ATOM     14  C   UNL     1       4.192   3.298  18.615  0.00  0.00    +0.000 A 
ATOM     15  C   UNL     1       5.121   4.043  19.325  0.00  0.00    +0.000 A 
ATOM     16  C   UNL     1       6.106   4.751  18.631  0.00  0.00    +0.000 A 
ATOM     17  C   UNL     1       7.111   5.555  19.411  0.00  0.00    +0.000 C 
ATOM     18  C   UNL     1       6.121   4.689  17.218  0.00  0.00    +0.000 A 
ATOM     19  C   UNL     1       7.065   5.366  16.417  0.00  0.00    +0.000 A 
ATOM     20  C   UNL     1       7.028   5.273  15.024  0.00  0.00    +0.000 A 
ATOM     21  C   UNL     1       6.047   4.505  14.419  0.00  0.00    +0.000 A 
ATOM     22  C   UNL     1       5.110   3.831  15.204  0.00  0.00    +0.000 A 
ATOM     23  C   UNL     1       5.125   3.903  16.590  0.00  0.00    +0.000 A 
ATOM     24  N   UNL     1       4.189   3.222  17.271  0.00  0.00    +0.000 NA
ENDBRANCH  13  14
ENDBRANCH   1  13
TORSDOF 4
ENDMDL
MODEL 7
REMARK VINA RESULT:      -7.1      3.387      7.185
REMARK  Name = 
REMARK  6 active torsions:
REMARK  status: ('A' for Active; 'I' for Inactive)
REMARK    1  A    between atoms: C_1  and  C_2
REMARK    2  A    between atoms: C_6  and  N_7
REMARK    3  A    between atoms: C_8  and  C_10
REMARK    4  A    between atoms: C_10  and  S_11
REMARK    5  A    between atoms: S_11  and  C_12
REMARK    6  A    between atoms: C_14  and  C_15
REMARK                            x       y       z     vdW  Elec       q    Type
REMARK                         _______ _______ _______ _____ _____    ______ ____
ROOT
ATOM      1  C   UNL     1       6.698   5.879  16.157  0.00  0.00    +0.000 C 
ENDROOT
BRANCH   1   3
ATOM      2  N   UNL     1       5.878   4.329  14.436  0.00  0.00    +0.000 N 
ATOM      3  C   UNL     1       6.873   5.228  14.788  0.00  0.00    +0.000 C 
ATOM      4  O   UNL     1       7.892   5.449  14.135  0.00  0.00    +0.000 OA
ATOM      5  H   UNL     1       5.173   4.147  15.142  0.00  0.00    +0.000 HD
BRANCH   2  11
ATOM      6  C   UNL     1       3.123   3.358  10.467  0.00  0.00    +0.000 C 
ATOM      7  C   UNL     1       4.395   3.164  11.243  0.00  0.00    +0.000 A 
ATOM      8  C   UNL     1       5.383   2.293  10.779  0.00  0.00    +0.000 A 
ATOM      9  C   UNL     1       6.551   2.106  11.515  0.00  0.00    +0.000 A 
ATOM     10  C   UNL     1       6.732   2.771  12.728  0.00  0.00    +0.000 A 
ATOM     11  C   UNL     1       5.753   3.636  13.216  0.00  0.00    +0.000 A 
ATOM     12  C   UNL     1       4.593   3.846  12.454  0.00  0.00    +0.000 A 
ENDBRANCH   2  11
ENDBRANCH   1   3
BRANCH   1  13
ATOM     13  S   UNL     1       6.995   4.694  17.514  0.00  0.00    +0.000 S 
BRANCH  13  14
ATOM     14  C   UNL     1       5.417   4.737  18.343  0.00  0.00    +0.000 A 
ATOM     15  C   UNL     1       4.605   5.844  18.152  0.00  0.00    +0.000 A 
ATOM     16  C   UNL     1       3.359   5.897  18.785  0.00  0.00    +0.000 A 
ATOM     17  C   UNL     1       2.484   7.102  18.569  0.00  0.00    +0.000 C 
ATOM     18  C   UNL     1       2.968   4.816  19.607  0.00  0.00    +0.000 A 
ATOM     19  C   UNL     1       1.737   4.765  20.296  0.00  0.00    +0.000 A 
ATOM     20  C   UNL     1       1.404   3.673  21.100  0.00  0.00    +0.000 A 
ATOM     21  C   UNL     1       2.298   2.623  21.227  0.00  0.00    +0.000 A 
ATOM     22  C   UNL     1       3.518   2.665  20.548  0.00  0.00    +0.000 A 
ATOM     23  C   UNL     1       3.872   3.735  19.739  0.00  0.00    +0.000 A 
ATOM     24  N   UNL     1       5.063   3.695  19.119  0.00  0.00    +0.000 NA
ENDBRANCH  13  14
ENDBRANCH   1  13
TORSDOF 4
ENDMDL
MODEL 8
REMARK VINA RESULT:      -7.1      3.111      7.062
REMARK  Name = 
REMARK  6 active torsions:
REMARK  status: ('A' for Active; 'I' for Inactive)
REMARK    1  A    between atoms: C_1  and  C_2
REMARK    2  A    between atoms: C_6  and  N_7
REMARK    3  A    between atoms: C_8  and  C_10
REMARK    4  A    between atoms: C_10  and  S_11
REMARK    5  A    between atoms: S_11  and  C_12
REMARK    6  A    between atoms: C_14  and  C_15
REMARK                            x       y       z     vdW  Elec       q    Type
REMARK                         _______ _______ _______ _____ _____    ______ ____
ROOT
ATOM      1  C   UNL     1       6.840   5.212  18.257  0.00  0.00    +0.000 C 
ENDROOT
BRANCH   1   3
ATOM      2  N   UNL     1       6.478   5.037  15.835  0.00  0.00    +0.000 N 
ATOM      3  C   UNL     1       7.326   4.742  16.891  0.00  0.00    +0.000 C 
ATOM      4  O   UNL     1       8.353   4.068  16.808  0.00  0.00    +0.000 OA
ATOM      5  H   UNL     1       5.597   5.475  16.081  0.00  0.00    +0.000 HD
BRANCH   2  11
ATOM      6  C   UNL     1       5.183   2.501  11.812  0.00  0.00    +0.000 C 
ATOM      7  C   UNL     1       6.053   3.534  12.470  0.00  0.00    +0.000 A 
ATOM      8  C   UNL     1       7.067   4.170  11.751  0.00  0.00    +0.000 A 
ATOM      9  C   UNL     1       7.881   5.113  12.376  0.00  0.00    +0.000 A 
ATOM     10  C   UNL     1       7.701   5.412  13.728  0.00  0.00    +0.000 A 
ATOM     11  C   UNL     1       6.702   4.779  14.468  0.00  0.00    +0.000 A 
ATOM     12  C   UNL     1       5.865   3.855  13.825  0.00  0.00    +0.000 A 
ENDBRANCH   2  11
ENDBRANCH   1   3
BRANCH   1  13
ATOM     13  S   UNL     1       5.610   6.554  18.116  0.00  0.00    +0.000 S 
BRANCH  13  14
ATOM     14  C   UNL     1       4.139   5.718  18.674  0.00  0.00    +0.000 A 
ATOM     15  C   UNL     1       3.280   6.397  19.524  0.00  0.00    +0.000 A 
ATOM     16  C   UNL     1       2.115   5.765  19.970  0.00  0.00    +0.000 A 
ATOM     17  C   UNL     1       1.188   6.512  20.891  0.00  0.00    +0.000 C 
ATOM     18  C   UNL     1       1.850   4.445  19.539  0.00  0.00    +0.000 A 
ATOM     19  C   UNL     1       0.709   3.711  19.929  0.00  0.00    +0.000 A 
ATOM     20  C   UNL     1       0.501   2.406  19.476  0.00  0.00    +0.000 A 
ATOM     21  C   UNL     1       1.433   1.821  18.635  0.00  0.00    +0.000 A 
ATOM     22  C   UNL     1       2.563   2.540  18.244  0.00  0.00    +0.000 A 
ATOM     23  C   UNL     1       2.793   3.840  18.674  0.00  0.00    +0.000 A 
ATOM     24  N   UNL     1       3.905   4.461  18.250  0.00  0.00    +0.000 NA
ENDBRANCH  13  14
ENDBRANCH   1  13
TORSDOF 4
ENDMDL
MODEL 9
REMARK VINA RESULT:      -7.1      2.979      6.917
REMARK  Name = 
REMARK  6 active torsions:
REMARK  status: ('A' for Active; 'I' for Inactive)
REMARK    1  A    between atoms: C_1  and  C_2
REMARK    2  A    between atoms: C_6  and  N_7
REMARK    3  A    between atoms: C_8  and  C_10
REMARK    4  A    between atoms: C_10  and  S_11
REMARK    5  A    between atoms: S_11  and  C_12
REMARK    6  A    between atoms: C_14  and  C_15
REMARK                            x       y       z     vdW  Elec       q    Type
REMARK                         _______ _______ _______ _____ _____    ______ ____
ROOT
ATOM      1  C   UNL     1       6.937   6.473  17.724  0.00  0.00    +0.000 C 
ENDROOT
BRANCH   1   3
ATOM      2  N   UNL     1       7.450   5.519  15.520  0.00  0.00    +0.000 N 
ATOM      3  C   UNL     1       6.544   6.256  16.266  0.00  0.00    +0.000 C 
ATOM      4  O   UNL     1       5.536   6.802  15.820  0.00  0.00    +0.000 OA
ATOM      5  H   UNL     1       8.306   5.254  15.994  0.00  0.00    +0.000 HD
BRANCH   2  11
ATOM      6  C   UNL     1       5.200   2.581  12.264  0.00  0.00    +0.000 C 
ATOM      7  C   UNL     1       6.191   3.670  12.560  0.00  0.00    +0.000 A 
ATOM      8  C   UNL     1       6.969   4.218  11.538  0.00  0.00    +0.000 A 
ATOM      9  C   UNL     1       7.899   5.215  11.826  0.00  0.00    +0.000 A 
ATOM     10  C   UNL     1       8.072   5.658  13.139  0.00  0.00    +0.000 A 
ATOM     11  C   UNL     1       7.314   5.115  14.176  0.00  0.00    +0.000 A 
ATOM     12  C   UNL     1       6.356   4.135  13.875  0.00  0.00    +0.000 A 
ENDBRANCH   2  11
ENDBRANCH   1   3
BRANCH   1  13
ATOM     13  S   UNL     1       6.953   4.909  18.664  0.00  0.00    +0.000 S 
BRANCH  13  14
ATOM     14  C   UNL     1       5.207   4.657  18.919  0.00  0.00    +0.000 A 
ATOM     15  C   UNL     1       4.439   5.739  19.319  0.00  0.00    +0.000 A 
ATOM     16  C   UNL     1       3.066   5.569  19.518  0.00  0.00    +0.000 A 
ATOM     17  C   UNL     1       2.241   6.751  19.950  0.00  0.00    +0.000 C 
ATOM     18  C   UNL     1       2.502   4.290  19.308  0.00  0.00    +0.000 A 
ATOM     19  C   UNL     1       1.131   4.003  19.482  0.00  0.00    +0.000 A 
ATOM     20  C   UNL     1       0.628   2.719  19.265  0.00  0.00    +0.000 A 
ATOM     21  C   UNL     1       1.491   1.707  18.875  0.00  0.00    +0.000 A 
ATOM     22  C   UNL     1       2.848   1.983  18.699  0.00  0.00    +0.000 A 
ATOM     23  C   UNL     1       3.374   3.251  18.904  0.00  0.00    +0.000 A 
ATOM     24  N   UNL     1       4.690   3.431  18.710  0.00  0.00    +0.000 NA
ENDBRANCH  13  14
ENDBRANCH   1  13
TORSDOF 4
ENDMDL
