MODEL 1
REMARK VINA RESULT:      -7.6      0.000      0.000
REMARK  Name = 
REMARK  5 active torsions:
REMARK  status: ('A' for Active; 'I' for Inactive)
REMARK    1  A    between atoms: C_1  and  N_2
REMARK    2  A    between atoms: C_7  and  N_8
REMARK    3  A    between atoms: C_9  and  C_10
REMARK    4  A    between atoms: C_12  and  C_13
REMARK    5  A    between atoms: C_19  and  C_20
REMARK                            x       y       z     vdW  Elec       q    Type
REMARK                         _______ _______ _______ _____ _____    ______ ____
ROOT
ATOM      1  C   UNL     1       2.192   9.595  17.599  0.00  0.00    +0.000 C 
ATOM      2  N   UNL     1       1.835   8.449  18.429  0.00  0.00    +0.000 NA
ATOM      3  C   UNL     1       2.696   7.307  18.109  0.00  0.00    +0.000 C 
ATOM      4  C   UNL     1       2.545   6.170  19.090  0.00  0.00    +0.000 C 
ATOM      5  C   UNL     1       1.924   6.297  20.277  0.00  0.00    +0.000 C 
ATOM      6  O   UNL     1       1.801   5.229  21.165  0.00  0.00    +0.000 OA
ATOM      7  C   UNL     1       2.259   3.952  20.798  0.00  0.00    +0.000 C 
ATOM      8  C   UNL     1       2.908   3.747  19.632  0.00  0.00    +0.000 C 
ATOM      9  C   UNL     1       3.209   4.878  18.678  0.00  0.00    +0.000 C 
ATOM     10  C   UNL     1       1.408   7.612  20.699  0.00  0.00    +0.000 C 
ATOM     11  C   UNL     1       0.525   7.792  21.706  0.00  0.00    +0.000 C 
ATOM     12  C   UNL     1       1.970   8.759  19.860  0.00  0.00    +0.000 C 
ENDROOT
BRANCH   9  13
ATOM     13  C   UNL     1       4.692   5.069  18.528  0.00  0.00    +0.000 A 
ATOM     14  C   UNL     1       5.534   4.974  17.440  0.00  0.00    +0.000 A 
ATOM     15  C   UNL     1       6.821   5.296  17.911  0.00  0.00    +0.000 A 
ATOM     16  C   UNL     1       6.688   5.549  19.259  0.00  0.00    +0.000 A 
ATOM     17  O   UNL     1       5.394   5.400  19.646  0.00  0.00    +0.000 OA
ENDBRANCH   9  13
BRANCH  11  18
ATOM     18  C   UNL     1      -0.033   9.073  21.995  0.00  0.00    +0.000 A 
ATOM     19  C   UNL     1      -0.259   9.668  23.235  0.00  0.00    +0.000 A 
ATOM     20  C   UNL     1      -0.904  10.910  23.013  0.00  0.00    +0.000 A 
ATOM     21  C   UNL     1      -1.008  11.035  21.652  0.00  0.00    +0.000 A 
ATOM     22  O   UNL     1      -0.488   9.947  21.032  0.00  0.00    +0.000 OA
ENDBRANCH  11  18
BRANCH   7  23
ATOM     23  N   UNL     1       1.989   2.961  21.716  0.00  0.00    +0.000 N 
ATOM     24  H   UNL     1       2.654   2.194  21.716  0.00  0.00    +0.000 HD
ATOM     25  H   UNL     1       1.016   2.669  21.799  0.00  0.00    +0.000 HD
ENDBRANCH   7  23
BRANCH   8  26
ATOM     26  C   UNL     1       3.385   2.450  19.259  0.00  0.00    +0.000 C 
ATOM     27  N   UNL     1       3.747   1.400  18.942  0.00  0.00    +0.000 NA
ENDBRANCH   8  26
TORSDOF 4
ENDMDL
MODEL 2
REMARK VINA RESULT:      -7.5      2.975      7.267
REMARK  Name = 
REMARK  5 active torsions:
REMARK  status: ('A' for Active; 'I' for Inactive)
REMARK    1  A    between atoms: C_1  and  N_2
REMARK    2  A    between atoms: C_7  and  N_8
REMARK    3  A    between atoms: C_9  and  C_10
REMARK    4  A    between atoms: C_12  and  C_13
REMARK    5  A    between atoms: C_19  and  C_20
REMARK                            x       y       z     vdW  Elec       q    Type
REMARK                         _______ _______ _______ _____ _____    ______ ____
ROOT
ATOM      1  C   UNL     1       7.259   7.464  17.444  0.00  0.00    +0.000 C 
ATOM      2  N   UNL     1       6.499   6.219  17.391  0.00  0.00    +0.000 NA
ATOM      3  C   UNL     1       5.502   6.192  18.464  0.00  0.00    +0.000 C 
ATOM      4  C   UNL     1       4.524   5.050  18.324  0.00  0.00    +0.000 C 
ATOM      5  C   UNL     1       4.396   4.324  17.198  0.00  0.00    +0.000 C 
ATOM      6  O   UNL     1       3.483   3.275  17.095  0.00  0.00    +0.000 OA
ATOM      7  C   UNL     1       2.721   2.893  18.213  0.00  0.00    +0.000 C 
ATOM      8  C   UNL     1       2.780   3.583  19.371  0.00  0.00    +0.000 C 
ATOM      9  C   UNL     1       3.636   4.818  19.522  0.00  0.00    +0.000 C 
ATOM     10  C   UNL     1       5.189   4.672  16.004  0.00  0.00    +0.000 C 
ATOM     11  C   UNL     1       5.362   3.852  14.944  0.00  0.00    +0.000 C 
ATOM     12  C   UNL     1       5.812   6.064  16.101  0.00  0.00    +0.000 C 
ENDROOT
BRANCH   9  13
ATOM     13  C   UNL     1       2.786   6.026  19.794  0.00  0.00    +0.000 A 
ATOM     14  C   UNL     1       2.085   6.435  20.909  0.00  0.00    +0.000 A 
ATOM     15  C   UNL     1       1.503   7.672  20.575  0.00  0.00    +0.000 A 
ATOM     16  C   UNL     1       1.869   7.933  19.272  0.00  0.00    +0.000 A 
ATOM     17  O   UNL     1       2.641   6.927  18.784  0.00  0.00    +0.000 OA
ENDBRANCH   9  13
BRANCH  11  18
ATOM     18  C   UNL     1       6.236   4.191  13.868  0.00  0.00    +0.000 A 
ATOM     19  C   UNL     1       6.285   3.658  12.582  0.00  0.00    +0.000 A 
ATOM     20  C   UNL     1       7.373   4.258  11.900  0.00  0.00    +0.000 A 
ATOM     21  C   UNL     1       7.913   5.156  12.784  0.00  0.00    +0.000 A 
ATOM     22  O   UNL     1       7.241   5.129  13.962  0.00  0.00    +0.000 OA
ENDBRANCH  11  18
BRANCH   7  23
ATOM     23  N   UNL     1       1.932   1.781  18.015  0.00  0.00    +0.000 N 
ATOM     24  H   UNL     1       2.256   0.945  18.492  0.00  0.00    +0.000 HD
ATOM     25  H   UNL     1       1.603   1.618  17.065  0.00  0.00    +0.000 HD
ENDBRANCH   7  23
BRANCH   8  26
ATOM     26  C   UNL     1       1.998   3.203  20.509  0.00  0.00    +0.000 C 
ATOM     27  N   UNL     1       1.389   2.884  21.437  0.00  0.00    +0.000 NA
ENDBRANCH   8  26
TORSDOF 4
ENDMDL
MODEL 3
REMARK VINA RESULT:      -7.1      2.306      4.150
REMARK  Name = 
REMARK  5 active torsions:
REMARK  status: ('A' for Active; 'I' for Inactive)
REMARK    1  A    between atoms: C_1  and  N_2
REMARK    2  A    between atoms: C_7  and  N_8
REMARK    3  A    between atoms: C_9  and  C_10
REMARK    4  A    between atoms: C_12  and  C_13
REMARK    5  A    between atoms: C_19  and  C_20
REMARK                            x       y       z     vdW  Elec       q    Type
REMARK                         _______ _______ _______ _____ _____    ______ ____
ROOT
ATOM      1  C   UNL     1      -0.246   8.784  22.415  0.00  0.00    +0.000 C 
ATOM      2  N   UNL     1       0.755   8.741  21.352  0.00  0.00    +0.000 NA
ATOM      3  C   UNL     1       1.335   7.398  21.260  0.00  0.00    +0.000 C 
ATOM      4  C   UNL     1       2.196   7.217  20.034  0.00  0.00    +0.000 C 
ATOM      5  C   UNL     1       2.195   8.077  18.999  0.00  0.00    +0.000 C 
ATOM      6  O   UNL     1       3.000   7.883  17.877  0.00  0.00    +0.000 OA
ATOM      7  C   UNL     1       3.907   6.811  17.838  0.00  0.00    +0.000 C 
ATOM      8  C   UNL     1       3.955   5.895  18.829  0.00  0.00    +0.000 C 
ATOM      9  C   UNL     1       3.018   5.951  20.012  0.00  0.00    +0.000 C 
ATOM     10  C   UNL     1       1.276   9.230  19.002  0.00  0.00    +0.000 C 
ATOM     11  C   UNL     1       1.396  10.296  18.182  0.00  0.00    +0.000 C 
ATOM     12  C   UNL     1       0.172   9.096  20.050  0.00  0.00    +0.000 C 
ENDROOT
BRANCH   9  13
ATOM     13  C   UNL     1       2.129   4.741  20.045  0.00  0.00    +0.000 A 
ATOM     14  C   UNL     1       1.341   4.142  19.084  0.00  0.00    +0.000 A 
ATOM     15  C   UNL     1       0.764   3.014  19.697  0.00  0.00    +0.000 A 
ATOM     16  C   UNL     1       1.220   3.003  20.996  0.00  0.00    +0.000 A 
ATOM     17  O   UNL     1       2.043   4.061  21.221  0.00  0.00    +0.000 OA
ENDBRANCH   9  13
BRANCH  11  18
ATOM     18  C   UNL     1       0.550  11.439  18.307  0.00  0.00    +0.000 A 
ATOM     19  C   UNL     1       0.889  12.743  18.664  0.00  0.00    +0.000 A 
ATOM     20  C   UNL     1      -0.304  13.504  18.728  0.00  0.00    +0.000 A 
ATOM     21  C   UNL     1      -1.310  12.644  18.371  0.00  0.00    +0.000 A 
ATOM     22  O   UNL     1      -0.813  11.409  18.113  0.00  0.00    +0.000 OA
ENDBRANCH  11  18
BRANCH   7  23
ATOM     23  N   UNL     1       4.717   6.786  16.724  0.00  0.00    +0.000 N 
ATOM     24  H   UNL     1       4.221   6.685  15.844  0.00  0.00    +0.000 HD
ATOM     25  H   UNL     1       5.567   6.227  16.790  0.00  0.00    +0.000 HD
ENDBRANCH   7  23
BRANCH   8  26
ATOM     26  C   UNL     1       4.871   4.795  18.789  0.00  0.00    +0.000 C 
ATOM     27  N   UNL     1       5.627   3.924  18.740  0.00  0.00    +0.000 NA
ENDBRANCH   8  26
TORSDOF 4
ENDMDL
MODEL 4
REMARK VINA RESULT:      -6.3      2.437      4.184
REMARK  Name = 
REMARK  5 active torsions:
REMARK  status: ('A' for Active; 'I' for Inactive)
REMARK    1  A    between atoms: C_1  and  N_2
REMARK    2  A    between atoms: C_7  and  N_8
REMARK    3  A    between atoms: C_9  and  C_10
REMARK    4  A    between atoms: C_12  and  C_13
REMARK    5  A    between atoms: C_19  and  C_20
REMARK                            x       y       z     vdW  Elec       q    Type
REMARK                         _______ _______ _______ _____ _____    ______ ____
ROOT
ATOM      1  C   UNL     1       0.565   8.256  22.014  0.00  0.00    +0.000 C 
ATOM      2  N   UNL     1       1.475   8.344  20.876  0.00  0.00    +0.000 NA
ATOM      3  C   UNL     1       1.996   7.016  20.543  0.00  0.00    +0.000 C 
ATOM      4  C   UNL     1       2.748   6.994  19.235  0.00  0.00    +0.000 C 
ATOM      5  C   UNL     1       2.695   7.996  18.338  0.00  0.00    +0.000 C 
ATOM      6  O   UNL     1       3.400   7.948  17.135  0.00  0.00    +0.000 OA
ATOM      7  C   UNL     1       4.261   6.871  16.867  0.00  0.00    +0.000 C 
ATOM      8  C   UNL     1       4.355   5.820  17.709  0.00  0.00    +0.000 C 
ATOM      9  C   UNL     1       3.519   5.726  18.962  0.00  0.00    +0.000 C 
ATOM     10  C   UNL     1       1.822   9.158  18.584  0.00  0.00    +0.000 C 
ATOM     11  C   UNL     1       1.915  10.330  17.918  0.00  0.00    +0.000 C 
ATOM     12  C   UNL     1       0.802   8.900  19.692  0.00  0.00    +0.000 C 
ENDROOT
BRANCH   9  13
ATOM     13  C   UNL     1       2.592   4.545  18.897  0.00  0.00    +0.000 A 
ATOM     14  C   UNL     1       1.540   4.238  18.059  0.00  0.00    +0.000 A 
ATOM     15  C   UNL     1       1.072   2.974  18.465  0.00  0.00    +0.000 A 
ATOM     16  C   UNL     1       1.855   2.597  19.535  0.00  0.00    +0.000 A 
ATOM     17  O   UNL     1       2.776   3.556  19.813  0.00  0.00    +0.000 OA
ENDBRANCH   9  13
BRANCH  11  18
ATOM     18  C   UNL     1       1.124  11.462  18.277  0.00  0.00    +0.000 A 
ATOM     19  C   UNL     1      -0.262  11.603  18.255  0.00  0.00    +0.000 A 
ATOM     20  C   UNL     1      -0.572  12.935  18.624  0.00  0.00    +0.000 A 
ATOM     21  C   UNL     1       0.631  13.536  18.891  0.00  0.00    +0.000 A 
ATOM     22  O   UNL     1       1.652  12.665  18.692  0.00  0.00    +0.000 OA
ENDBRANCH  11  18
BRANCH   7  23
ATOM     23  N   UNL     1       4.978   6.989  15.696  0.00  0.00    +0.000 N 
ATOM     24  H   UNL     1       5.654   7.747  15.690  0.00  0.00    +0.000 HD
ATOM     25  H   UNL     1       4.453   6.893  14.828  0.00  0.00    +0.000 HD
ENDBRANCH   7  23
BRANCH   8  26
ATOM     26  C   UNL     1       5.224   4.716  17.433  0.00  0.00    +0.000 C 
ATOM     27  N   UNL     1       5.943   3.843  17.199  0.00  0.00    +0.000 NA
ENDBRANCH   8  26
TORSDOF 4
ENDMDL
MODEL 5
REMARK VINA RESULT:      -6.2      2.521      7.087
REMARK  Name = 
REMARK  5 active torsions:
REMARK  status: ('A' for Active; 'I' for Inactive)
REMARK    1  A    between atoms: C_1  and  N_2
REMARK    2  A    between atoms: C_7  and  N_8
REMARK    3  A    between atoms: C_9  and  C_10
REMARK    4  A    between atoms: C_12  and  C_13
REMARK    5  A    between atoms: C_19  and  C_20
REMARK                            x       y       z     vdW  Elec       q    Type
REMARK                         _______ _______ _______ _____ _____    ______ ____
ROOT
ATOM      1  C   UNL     1       3.374   7.827  16.833  0.00  0.00    +0.000 C 
ATOM      2  N   UNL     1       2.909   7.897  18.215  0.00  0.00    +0.000 NA
ATOM      3  C   UNL     1       2.101   9.102  18.415  0.00  0.00    +0.000 C 
ATOM      4  C   UNL     1       1.393   9.116  19.747  0.00  0.00    +0.000 C 
ATOM      5  C   UNL     1       1.275   8.028  20.530  0.00  0.00    +0.000 C 
ATOM      6  O   UNL     1       0.612   8.069  21.757  0.00  0.00    +0.000 OA
ATOM      7  C   UNL     1       0.116   9.289  22.249  0.00  0.00    +0.000 C 
ATOM      8  C   UNL     1       0.181  10.420  21.515  0.00  0.00    +0.000 C 
ATOM      9  C   UNL     1       0.753  10.432  20.118  0.00  0.00    +0.000 C 
ATOM     10  C   UNL     1       1.796   6.729  20.068  0.00  0.00    +0.000 C 
ATOM     11  C   UNL     1       1.998   5.664  20.874  0.00  0.00    +0.000 C 
ATOM     12  C   UNL     1       2.102   6.720  18.571  0.00  0.00    +0.000 C 
ENDROOT
BRANCH   9  13
ATOM     13  C   UNL     1      -0.298  10.812  19.114  0.00  0.00    +0.000 A 
ATOM     14  C   UNL     1      -1.354  10.112  18.567  0.00  0.00    +0.000 A 
ATOM     15  C   UNL     1      -2.013  11.009  17.704  0.00  0.00    +0.000 A 
ATOM     16  C   UNL     1      -1.310  12.192  17.765  0.00  0.00    +0.000 A 
ATOM     17  O   UNL     1      -0.255  12.077  18.613  0.00  0.00    +0.000 OA
ENDBRANCH   9  13
BRANCH  11  18
ATOM     18  C   UNL     1       2.618   4.469  20.398  0.00  0.00    +0.000 A 
ATOM     19  C   UNL     1       2.090   3.182  20.322  0.00  0.00    +0.000 A 
ATOM     20  C   UNL     1       3.111   2.317  19.856  0.00  0.00    +0.000 A 
ATOM     21  C   UNL     1       4.201   3.118  19.633  0.00  0.00    +0.000 A 
ATOM     22  O   UNL     1       3.919   4.407  19.949  0.00  0.00    +0.000 OA
ENDBRANCH  11  18
BRANCH   7  23
ATOM     23  N   UNL     1      -0.425   9.219  23.514  0.00  0.00    +0.000 N 
ATOM     24  H   UNL     1      -0.203  10.009  24.112  0.00  0.00    +0.000 HD
ATOM     25  H   UNL     1      -0.375   8.315  23.982  0.00  0.00    +0.000 HD
ENDBRANCH   7  23
BRANCH   8  26
ATOM     26  C   UNL     1      -0.332  11.663  22.009  0.00  0.00    +0.000 C 
ATOM     27  N   UNL     1      -0.721  12.677  22.400  0.00  0.00    +0.000 NA
ENDBRANCH   8  26
TORSDOF 4
ENDMDL
MODEL 6
REMARK VINA RESULT:      -6.1      7.847     11.521
REMARK  Name = 
REMARK  5 active torsions:
REMARK  status: ('A' for Active; 'I' for Inactive)
REMARK    1  A    between atoms: C_1  and  N_2
REMARK    2  A    between atoms: C_7  and  N_8
REMARK    3  A    between atoms: C_9  and  C_10
REMARK    4  A    between atoms: C_12  and  C_13
REMARK    5  A    between atoms: C_19  and  C_20
REMARK                            x       y       z     vdW  Elec       q    Type
REMARK                         _______ _______ _______ _____ _____    ______ ____
ROOT
ATOM      1  C   UNL     1      -7.139  13.542  17.940  0.00  0.00    +0.000 C 
ATOM      2  N   UNL     1      -5.857  13.516  18.639  0.00  0.00    +0.000 NA
ATOM      3  C   UNL     1      -6.024  13.984  20.017  0.00  0.00    +0.000 C 
ATOM      4  C   UNL     1      -4.796  13.757  20.864  0.00  0.00    +0.000 C 
ATOM      5  C   UNL     1      -3.781  12.956  20.490  0.00  0.00    +0.000 C 
ATOM      6  O   UNL     1      -2.658  12.763  21.295  0.00  0.00    +0.000 OA
ATOM      7  C   UNL     1      -2.523  13.477  22.497  0.00  0.00    +0.000 C 
ATOM      8  C   UNL     1      -3.505  14.285  22.949  0.00  0.00    +0.000 C 
ATOM      9  C   UNL     1      -4.813  14.440  22.210  0.00  0.00    +0.000 C 
ATOM     10  C   UNL     1      -3.867  12.201  19.227  0.00  0.00    +0.000 C 
ATOM     11  C   UNL     1      -2.811  11.618  18.620  0.00  0.00    +0.000 C 
ATOM     12  C   UNL     1      -5.287  12.161  18.664  0.00  0.00    +0.000 C 
ENDROOT
BRANCH   9  13
ATOM     13  C   UNL     1      -5.958  13.940  23.044  0.00  0.00    +0.000 A 
ATOM     14  C   UNL     1      -6.978  14.593  23.705  0.00  0.00    +0.000 A 
ATOM     15  C   UNL     1      -7.771  13.588  24.291  0.00  0.00    +0.000 A 
ATOM     16  C   UNL     1      -7.178  12.388  23.966  0.00  0.00    +0.000 A 
ATOM     17  O   UNL     1      -6.063  12.594  23.217  0.00  0.00    +0.000 OA
ENDBRANCH   9  13
BRANCH  11  18
ATOM     18  C   UNL     1      -2.927  11.002  17.338  0.00  0.00    +0.000 A 
ATOM     19  C   UNL     1      -2.374   9.804  16.890  0.00  0.00    +0.000 A 
ATOM     20  C   UNL     1      -2.706   9.653  15.521  0.00  0.00    +0.000 A 
ATOM     21  C   UNL     1      -3.477  10.741  15.205  0.00  0.00    +0.000 A 
ATOM     22  O   UNL     1      -3.621  11.553  16.282  0.00  0.00    +0.000 OA
ENDBRANCH  11  18
BRANCH   7  23
ATOM     23  N   UNL     1      -1.326  13.277  23.150  0.00  0.00    +0.000 N 
ATOM     24  H   UNL     1      -0.521  13.190  22.536  0.00  0.00    +0.000 HD
ATOM     25  H   UNL     1      -1.333  12.615  23.924  0.00  0.00    +0.000 HD
ENDBRANCH   7  23
BRANCH   8  26
ATOM     26  C   UNL     1      -3.374  15.006  24.179  0.00  0.00    +0.000 C 
ATOM     27  N   UNL     1      -3.244  15.576  25.175  0.00  0.00    +0.000 NA
ENDBRANCH   8  26
TORSDOF 4
ENDMDL
MODEL 7
REMARK VINA RESULT:      -6.1      9.221     10.847
REMARK  Name = 
REMARK  5 active torsions:
REMARK  status: ('A' for Active; 'I' for Inactive)
REMARK    1  A    between atoms: C_1  and  N_2
REMARK    2  A    between atoms: C_7  and  N_8
REMARK    3  A    between atoms: C_9  and  C_10
REMARK    4  A    between atoms: C_12  and  C_13
REMARK    5  A    between atoms: C_19  and  C_20
REMARK                            x       y       z     vdW  Elec       q    Type
REMARK                         _______ _______ _______ _____ _____    ______ ____
ROOT
ATOM      1  C   UNL     1       5.656  15.357  21.289  0.00  0.00    +0.000 C 
ATOM      2  N   UNL     1       6.728  14.382  21.107  0.00  0.00    +0.000 NA
ATOM      3  C   UNL     1       7.630  14.818  20.038  0.00  0.00    +0.000 C 
ATOM      4  C   UNL     1       8.887  13.986  19.960  0.00  0.00    +0.000 C 
ATOM      5  C   UNL     1       9.273  13.141  20.934  0.00  0.00    +0.000 C 
ATOM      6  O   UNL     1      10.442  12.385  20.835  0.00  0.00    +0.000 OA
ATOM      7  C   UNL     1      11.211  12.428  19.660  0.00  0.00    +0.000 C 
ATOM      8  C   UNL     1      10.898  13.263  18.647  0.00  0.00    +0.000 C 
ATOM      9  C   UNL     1       9.732  14.219  18.732  0.00  0.00    +0.000 C 
ATOM     10  C   UNL     1       8.488  13.044  22.178  0.00  0.00    +0.000 C 
ATOM     11  C   UNL     1       8.607  12.039  23.072  0.00  0.00    +0.000 C 
ATOM     12  C   UNL     1       7.506  14.203  22.342  0.00  0.00    +0.000 C 
ENDROOT
BRANCH   9  13
ATOM     13  C   UNL     1      10.206  15.643  18.677  0.00  0.00    +0.000 A 
ATOM     14  C   UNL     1      11.014  16.385  19.513  0.00  0.00    +0.000 A 
ATOM     15  C   UNL     1      11.127  17.658  18.921  0.00  0.00    +0.000 A 
ATOM     16  C   UNL     1      10.368  17.619  17.772  0.00  0.00    +0.000 A 
ATOM     17  O   UNL     1       9.792  16.398  17.622  0.00  0.00    +0.000 OA
ENDBRANCH   9  13
BRANCH  11  18
ATOM     18  C   UNL     1       7.739  11.930  24.200  0.00  0.00    +0.000 A 
ATOM     19  C   UNL     1       7.916  12.425  25.490  0.00  0.00    +0.000 A 
ATOM     20  C   UNL     1       6.820  11.996  26.279  0.00  0.00    +0.000 A 
ATOM     21  C   UNL     1       6.006  11.293  25.429  0.00  0.00    +0.000 A 
ATOM     22  O   UNL     1       6.541  11.249  24.183  0.00  0.00    +0.000 OA
ENDBRANCH  11  18
BRANCH   7  23
ATOM     23  N   UNL     1      12.282  11.562  19.645  0.00  0.00    +0.000 N 
ATOM     24  H   UNL     1      13.102  11.897  20.141  0.00  0.00    +0.000 HD
ATOM     25  H   UNL     1      12.488  11.107  18.757  0.00  0.00    +0.000 HD
ENDBRANCH   7  23
BRANCH   8  26
ATOM     26  C   UNL     1      11.686  13.317  17.452  0.00  0.00    +0.000 C 
ATOM     27  N   UNL     1      12.300  13.349  16.475  0.00  0.00    +0.000 NA
ENDBRANCH   8  26
TORSDOF 4
ENDMDL
MODEL 8
REMARK VINA RESULT:      -5.9      4.638      9.933
REMARK  Name = 
REMARK  5 active torsions:
REMARK  status: ('A' for Active; 'I' for Inactive)
REMARK    1  A    between atoms: C_1  and  N_2
REMARK    2  A    between atoms: C_7  and  N_8
REMARK    3  A    between atoms: C_9  and  C_10
REMARK    4  A    between atoms: C_12  and  C_13
REMARK    5  A    between atoms: C_19  and  C_20
REMARK                            x       y       z     vdW  Elec       q    Type
REMARK                         _______ _______ _______ _____ _____    ______ ____
ROOT
ATOM      1  C   UNL     1      -2.651  10.580  16.193  0.00  0.00    +0.000 C 
ATOM      2  N   UNL     1      -2.216  11.164  17.459  0.00  0.00    +0.000 NA
ATOM      3  C   UNL     1      -3.334  11.857  18.104  0.00  0.00    +0.000 C 
ATOM      4  C   UNL     1      -3.023  12.275  19.520  0.00  0.00    +0.000 C 
ATOM      5  C   UNL     1      -1.965  11.811  20.210  0.00  0.00    +0.000 C 
ATOM      6  O   UNL     1      -1.703  12.214  21.520  0.00  0.00    +0.000 OA
ATOM      7  C   UNL     1      -2.505  13.193  22.129  0.00  0.00    +0.000 C 
ATOM      8  C   UNL     1      -3.594  13.694  21.509  0.00  0.00    +0.000 C 
ATOM      9  C   UNL     1      -4.031  13.208  20.147  0.00  0.00    +0.000 C 
ATOM     10  C   UNL     1      -1.081  10.797  19.607  0.00  0.00    +0.000 C 
ATOM     11  C   UNL     1       0.148  10.489  20.074  0.00  0.00    +0.000 C 
ATOM     12  C   UNL     1      -1.703  10.136  18.377  0.00  0.00    +0.000 C 
ENDROOT
BRANCH   9  13
ATOM     13  C   UNL     1      -5.382  12.556  20.223  0.00  0.00    +0.000 A 
ATOM     14  C   UNL     1      -6.433  12.493  19.331  0.00  0.00    +0.000 A 
ATOM     15  C   UNL     1      -7.426  11.710  19.950  0.00  0.00    +0.000 A 
ATOM     16  C   UNL     1      -6.927  11.358  21.185  0.00  0.00    +0.000 A 
ATOM     17  O   UNL     1      -5.686  11.881  21.365  0.00  0.00    +0.000 OA
ENDBRANCH   9  13
BRANCH  11  18
ATOM     18  C   UNL     1       1.010   9.586  19.382  0.00  0.00    +0.000 A 
ATOM     19  C   UNL     1       1.524   9.684  18.091  0.00  0.00    +0.000 A 
ATOM     20  C   UNL     1       2.265   8.506  17.824  0.00  0.00    +0.000 A 
ATOM     21  C   UNL     1       2.202   7.761  18.973  0.00  0.00    +0.000 A 
ATOM     22  O   UNL     1       1.459   8.396  19.914  0.00  0.00    +0.000 OA
ENDBRANCH  11  18
BRANCH   7  23
ATOM     23  N   UNL     1      -2.084  13.580  23.382  0.00  0.00    +0.000 N 
ATOM     24  H   UNL     1      -1.699  14.519  23.427  0.00  0.00    +0.000 HD
ATOM     25  H   UNL     1      -1.563  12.890  23.922  0.00  0.00    +0.000 HD
ENDBRANCH   7  23
BRANCH   8  26
ATOM     26  C   UNL     1      -4.420  14.685  22.130  0.00  0.00    +0.000 C 
ATOM     27  N   UNL     1      -5.084  15.470  22.656  0.00  0.00    +0.000 NA
ENDBRANCH   8  26
TORSDOF 4
ENDMDL
MODEL 9
REMARK VINA RESULT:      -5.8      5.024      7.867
REMARK  Name = 
REMARK  5 active torsions:
REMARK  status: ('A' for Active; 'I' for Inactive)
REMARK    1  A    between atoms: C_1  and  N_2
REMARK    2  A    between atoms: C_7  and  N_8
REMARK    3  A    between atoms: C_9  and  C_10
REMARK    4  A    between atoms: C_12  and  C_13
REMARK    5  A    between atoms: C_19  and  C_20
REMARK                            x       y       z     vdW  Elec       q    Type
REMARK                         _______ _______ _______ _____ _____    ______ ____
ROOT
ATOM      1  C   UNL     1      -2.423  14.254  23.233  0.00  0.00    +0.000 C 
ATOM      2  N   UNL     1      -2.475  13.722  21.875  0.00  0.00    +0.000 NA
ATOM      3  C   UNL     1      -1.350  12.811  21.647  0.00  0.00    +0.000 C 
ATOM      4  C   UNL     1      -1.473  12.042  20.354  0.00  0.00    +0.000 C 
ATOM      5  C   UNL     1      -2.614  11.975  19.643  0.00  0.00    +0.000 C 
ATOM      6  O   UNL     1      -2.700  11.255  18.451  0.00  0.00    +0.000 OA
ATOM      7  C   UNL     1      -1.555  10.641  17.916  0.00  0.00    +0.000 C 
ATOM      8  C   UNL     1      -0.379  10.648  18.579  0.00  0.00    +0.000 C 
ATOM      9  C   UNL     1      -0.236  11.282  19.942  0.00  0.00    +0.000 C 
ATOM     10  C   UNL     1      -3.837  12.621  20.152  0.00  0.00    +0.000 C 
ATOM     11  C   UNL     1      -4.931  12.870  19.400  0.00  0.00    +0.000 C 
ATOM     12  C   UNL     1      -3.730  12.996  21.629  0.00  0.00    +0.000 C 
ENDROOT
BRANCH   9  13
ATOM     13  C   UNL     1       0.122  10.251  20.974  0.00  0.00    +0.000 A 
ATOM     14  C   UNL     1      -0.502   9.090  21.380  0.00  0.00    +0.000 A 
ATOM     15  C   UNL     1       0.329   8.523  22.366  0.00  0.00    +0.000 A 
ATOM     16  C   UNL     1       1.397   9.381  22.512  0.00  0.00    +0.000 A 
ATOM     17  O   UNL     1       1.272  10.445  21.676  0.00  0.00    +0.000 OA
ENDBRANCH   9  13
BRANCH  11  18
ATOM     18  C   UNL     1      -6.043  13.605  19.911  0.00  0.00    +0.000 A 
ATOM     19  C   UNL     1      -6.305  14.970  19.820  0.00  0.00    +0.000 A 
ATOM     20  C   UNL     1      -7.489  15.239  20.550  0.00  0.00    +0.000 A 
ATOM     21  C   UNL     1      -7.916  14.025  21.021  0.00  0.00    +0.000 A 
ATOM     22  O   UNL     1      -7.064  13.039  20.644  0.00  0.00    +0.000 OA
ENDBRANCH  11  18
BRANCH   7  23
ATOM     23  N   UNL     1      -1.745  10.049  16.687  0.00  0.00    +0.000 N 
ATOM     24  H   UNL     1      -2.448   9.316  16.676  0.00  0.00    +0.000 HD
ATOM     25  H   UNL     1      -0.906   9.829  16.151  0.00  0.00    +0.000 HD
ENDBRANCH   7  23
BRANCH   8  26
ATOM     26  C   UNL     1       0.787  10.014  18.041  0.00  0.00    +0.000 C 
ATOM     27  N   UNL     1       1.742   9.512  17.630  0.00  0.00    +0.000 NA
ENDBRANCH   8  26
TORSDOF 4
ENDMDL
