MODEL 1
REMARK VINA RESULT:      -8.0      0.000      0.000
REMARK  Name = 
REMARK  10 active torsions:
REMARK  status: ('A' for Active; 'I' for Inactive)
REMARK    1  A    between atoms: C_1  and  C_2
REMARK    2  A    between atoms: C_2  and  C_3
REMARK    3  A    between atoms: C_3  and  C_4
REMARK    4  A    between atoms: C_3  and  C_5
REMARK    5  A    between atoms: C_5  and  N_6
REMARK    6  A    between atoms: C_5  and  C_7
REMARK    7  A    between atoms: N_12  and  C_13
REMARK    8  A    between atoms: C_13  and  C_14
REMARK    9  A    between atoms: C_14  and  N_15
REMARK   10  A    between atoms: N_15  and  C_16
REMARK                            x       y       z     vdW  Elec       q    Type
REMARK                         _______ _______ _______ _____ _____    ______ ____
ROOT
ATOM      1  C   UNL     1       5.484   5.380  16.141  0.00  0.00    +0.000 C 
ATOM      2  O   UNL     1       5.403   6.390  15.434  0.00  0.00    +0.000 OA
ATOM      3  N   UNL     1       4.651   5.184  17.232  0.00  0.00    +0.000 N 
ATOM      4  C   UNL     1       3.511   6.077  17.433  0.00  0.00    +0.000 C 
ATOM      5  C   UNL     1       2.259   5.267  17.823  0.00  0.00    +0.000 C 
ATOM      6  N   UNL     1       2.447   4.345  18.971  0.00  0.00    +0.000 NA
ATOM      7  C   UNL     1       3.610   3.473  18.686  0.00  0.00    +0.000 C 
ATOM      8  C   UNL     1       4.897   4.242  18.330  0.00  0.00    +0.000 C 
ENDROOT
BRANCH   1   9
ATOM      9  C   UNL     1       6.517   4.262  15.833  0.00  0.00    +0.000 C 
BRANCH   9  10
ATOM     10  N   UNL     1       7.795   4.670  16.454  0.00  0.00    +0.000 NA
ATOM     11  H   UNL     1       7.938   4.097  17.286  0.00  0.00    +0.000 HD
ATOM     12  H   UNL     1       7.738   5.633  16.777  0.00  0.00    +0.000 HD
ENDBRANCH   9  10
BRANCH   9  13
ATOM     13  C   UNL     1       6.638   3.977  14.311  0.00  0.00    +0.000 C 
ATOM     14  C   UNL     1       7.473   5.079  13.628  0.00  0.00    +0.000 C 
BRANCH  13  16
ATOM     15  C   UNL     1       5.235   3.396  12.226  0.00  0.00    +0.000 C 
ATOM     16  C   UNL     1       5.235   3.901  13.662  0.00  0.00    +0.000 C 
ENDBRANCH  13  16
ENDBRANCH   9  13
ENDBRANCH   1   9
BRANCH   6  17
ATOM     17  C   UNL     1       2.636   5.051  20.257  0.00  0.00    +0.000 C 
BRANCH  17  18
ATOM     18  C   UNL     1       1.479   5.999  20.619  0.00  0.00    +0.000 C 
BRANCH  18  19
ATOM     19  N   UNL     1       1.994   7.311  21.038  0.00  0.00    +0.000 N 
ATOM     20  H   UNL     1       3.008   7.337  20.984  0.00  0.00    +0.000 HD
BRANCH  19  21
ATOM     21  C   UNL     1       1.421   8.451  20.420  0.00  0.00    +0.000 A 
ATOM     22  C   UNL     1       1.566   8.667  19.046  0.00  0.00    +0.000 A 
ATOM     23  C   UNL     1       0.942   9.747  18.459  0.00  0.00    +0.000 A 
ATOM     24  N   UNL     1       0.156  10.609  19.124  0.00  0.00    +0.000 NA
ATOM     25  C   UNL     1      -0.039  10.396  20.432  0.00  0.00    +0.000 A 
ATOM     26  C   UNL     1      -0.887  11.275  21.089  0.00  0.00    +0.000 A 
ATOM     27  C   UNL     1      -1.158  11.138  22.445  0.00  0.00    +0.000 A 
ATOM     28 CL   UNL     1      -2.227  12.243  23.218  0.00  0.00    +0.000 Cl
ATOM     29  C   UNL     1      -0.578  10.114  23.176  0.00  0.00    +0.000 A 
ATOM     30  C   UNL     1       0.272   9.211  22.531  0.00  0.00    +0.000 A 
ATOM     31  C   UNL     1       0.561   9.328  21.147  0.00  0.00    +0.000 A 
ENDBRANCH  19  21
ENDBRANCH  18  19
ENDBRANCH  17  18
ENDBRANCH   6  17
TORSDOF 8
ENDMDL
MODEL 2
REMARK VINA RESULT:      -7.4      3.466      7.842
REMARK  Name = 
REMARK  10 active torsions:
REMARK  status: ('A' for Active; 'I' for Inactive)
REMARK    1  A    between atoms: C_1  and  C_2
REMARK    2  A    between atoms: C_2  and  C_3
REMARK    3  A    between atoms: C_3  and  C_4
REMARK    4  A    between atoms: C_3  and  C_5
REMARK    5  A    between atoms: C_5  and  N_6
REMARK    6  A    between atoms: C_5  and  C_7
REMARK    7  A    between atoms: N_12  and  C_13
REMARK    8  A    between atoms: C_13  and  C_14
REMARK    9  A    between atoms: C_14  and  N_15
REMARK   10  A    between atoms: N_15  and  C_16
REMARK                            x       y       z     vdW  Elec       q    Type
REMARK                         _______ _______ _______ _____ _____    ______ ____
ROOT
ATOM      1  C   UNL     1       1.273   8.901  19.804  0.00  0.00    +0.000 C 
ATOM      2  O   UNL     1       1.079   9.441  20.898  0.00  0.00    +0.000 OA
ATOM      3  N   UNL     1       1.880   7.659  19.700  0.00  0.00    +0.000 N 
ATOM      4  C   UNL     1       2.105   6.868  20.908  0.00  0.00    +0.000 C 
ATOM      5  C   UNL     1       1.727   5.393  20.661  0.00  0.00    +0.000 C 
ATOM      6  N   UNL     1       2.368   4.778  19.471  0.00  0.00    +0.000 NA
ATOM      7  C   UNL     1       2.086   5.633  18.293  0.00  0.00    +0.000 C 
ATOM      8  C   UNL     1       2.485   7.110  18.481  0.00  0.00    +0.000 C 
ENDROOT
BRANCH   1   9
ATOM      9  C   UNL     1       0.829   9.582  18.481  0.00  0.00    +0.000 C 
BRANCH   9  10
ATOM     10  N   UNL     1       1.896  10.533  18.103  0.00  0.00    +0.000 NA
ATOM     11  H   UNL     1       2.037  11.174  18.884  0.00  0.00    +0.000 HD
ATOM     12  H   UNL     1       1.595  11.104  17.317  0.00  0.00    +0.000 HD
ENDBRANCH   9  10
BRANCH   9  13
ATOM     13  C   UNL     1      -0.570  10.246  18.603  0.00  0.00    +0.000 C 
ATOM     14  C   UNL     1      -1.362  10.065  17.292  0.00  0.00    +0.000 C 
BRANCH  13  16
ATOM     15  C   UNL     1      -1.065  12.679  17.904  0.00  0.00    +0.000 C 
ATOM     16  C   UNL     1      -0.426  11.753  18.928  0.00  0.00    +0.000 C 
ENDBRANCH  13  16
ENDBRANCH   9  13
ENDBRANCH   1   9
BRANCH   6  17
ATOM     17  C   UNL     1       3.825   4.587  19.630  0.00  0.00    +0.000 C 
BRANCH  17  18
ATOM     18  C   UNL     1       4.333   3.234  19.099  0.00  0.00    +0.000 C 
BRANCH  18  19
ATOM     19  N   UNL     1       5.635   3.393  18.434  0.00  0.00    +0.000 N 
ATOM     20  H   UNL     1       5.929   2.524  17.997  0.00  0.00    +0.000 HD
BRANCH  19  21
ATOM     21  C   UNL     1       5.769   4.484  17.539  0.00  0.00    +0.000 A 
ATOM     22  C   UNL     1       4.990   4.556  16.380  0.00  0.00    +0.000 A 
ATOM     23  C   UNL     1       5.090   5.661  15.562  0.00  0.00    +0.000 A 
ATOM     24  N   UNL     1       5.880   6.716  15.823  0.00  0.00    +0.000 NA
ATOM     25  C   UNL     1       6.601   6.693  16.952  0.00  0.00    +0.000 A 
ATOM     26  C   UNL     1       7.377   7.810  17.222  0.00  0.00    +0.000 A 
ATOM     27  C   UNL     1       8.157   7.887  18.368  0.00  0.00    +0.000 A 
ATOM     28 CL   UNL     1       9.095   9.298  18.670  0.00  0.00    +0.000 Cl
ATOM     29  C   UNL     1       8.180   6.838  19.273  0.00  0.00    +0.000 A 
ATOM     30  C   UNL     1       7.398   5.706  19.025  0.00  0.00    +0.000 A 
ATOM     31  C   UNL     1       6.589   5.606  17.863  0.00  0.00    +0.000 A 
ENDBRANCH  19  21
ENDBRANCH  18  19
ENDBRANCH  17  18
ENDBRANCH   6  17
TORSDOF 8
ENDMDL
MODEL 3
REMARK VINA RESULT:      -7.4      6.222      7.968
REMARK  Name = 
REMARK  10 active torsions:
REMARK  status: ('A' for Active; 'I' for Inactive)
REMARK    1  A    between atoms: C_1  and  C_2
REMARK    2  A    between atoms: C_2  and  C_3
REMARK    3  A    between atoms: C_3  and  C_4
REMARK    4  A    between atoms: C_3  and  C_5
REMARK    5  A    between atoms: C_5  and  N_6
REMARK    6  A    between atoms: C_5  and  C_7
REMARK    7  A    between atoms: N_12  and  C_13
REMARK    8  A    between atoms: C_13  and  C_14
REMARK    9  A    between atoms: C_14  and  N_15
REMARK   10  A    between atoms: N_15  and  C_16
REMARK                            x       y       z     vdW  Elec       q    Type
REMARK                         _______ _______ _______ _____ _____    ______ ____
ROOT
ATOM      1  C   UNL     1       4.509   4.208  19.162  0.00  0.00    +0.000 C 
ATOM      2  O   UNL     1       4.795   3.036  19.430  0.00  0.00    +0.000 OA
ATOM      3  N   UNL     1       5.469   5.118  18.746  0.00  0.00    +0.000 N 
ATOM      4  C   UNL     1       6.809   4.641  18.409  0.00  0.00    +0.000 C 
ATOM      5  C   UNL     1       7.305   5.313  17.113  0.00  0.00    +0.000 C 
ATOM      6  N   UNL     1       7.232   6.796  17.114  0.00  0.00    +0.000 NA
ATOM      7  C   UNL     1       5.845   7.195  17.455  0.00  0.00    +0.000 C 
ATOM      8  C   UNL     1       5.320   6.577  18.766  0.00  0.00    +0.000 C 
ENDROOT
BRANCH   1   9
ATOM      9  C   UNL     1       3.047   4.722  19.260  0.00  0.00    +0.000 C 
BRANCH   9  10
ATOM     10  N   UNL     1       2.924   5.436  20.549  0.00  0.00    +0.000 NA
ATOM     11  H   UNL     1       2.350   4.866  21.171  0.00  0.00    +0.000 HD
ATOM     12  H   UNL     1       2.421   6.311  20.420  0.00  0.00    +0.000 HD
ENDBRANCH   9  10
BRANCH   9  13
ATOM     13  C   UNL     1       2.009   3.578  19.092  0.00  0.00    +0.000 C 
ATOM     14  C   UNL     1       1.250   3.740  17.759  0.00  0.00    +0.000 C 
BRANCH  13  16
ATOM     15  C   UNL     1       1.385   2.642  21.412  0.00  0.00    +0.000 C 
ATOM     16  C   UNL     1       1.008   3.578  20.273  0.00  0.00    +0.000 C 
ENDBRANCH  13  16
ENDBRANCH   9  13
ENDBRANCH   1   9
BRANCH   6  17
ATOM     17  C   UNL     1       8.192   7.425  18.047  0.00  0.00    +0.000 C 
BRANCH  17  18
ATOM     18  C   UNL     1       8.175   8.964  18.007  0.00  0.00    +0.000 C 
BRANCH  18  19
ATOM     19  N   UNL     1       8.881   9.521  19.170  0.00  0.00    +0.000 N 
ATOM     20  H   UNL     1       9.514   8.836  19.574  0.00  0.00    +0.000 HD
BRANCH  19  21
ATOM     21  C   UNL     1       9.528  10.768  18.990  0.00  0.00    +0.000 A 
ATOM     22  C   UNL     1      10.070  11.119  17.750  0.00  0.00    +0.000 A 
ATOM     23  C   UNL     1      10.633  12.366  17.582  0.00  0.00    +0.000 A 
ATOM     24  N   UNL     1      10.669  13.305  18.541  0.00  0.00    +0.000 NA
ATOM     25  C   UNL     1      10.114  13.012  19.725  0.00  0.00    +0.000 A 
ATOM     26  C   UNL     1      10.126  14.011  20.686  0.00  0.00    +0.000 A 
ATOM     27  C   UNL     1       9.571  13.809  21.944  0.00  0.00    +0.000 A 
ATOM     28 CL   UNL     1       9.597  15.081  23.103  0.00  0.00    +0.000 Cl
ATOM     29  C   UNL     1       8.993  12.592  22.268  0.00  0.00    +0.000 A 
ATOM     30  C   UNL     1       8.961  11.575  21.311  0.00  0.00    +0.000 A 
ATOM     31  C   UNL     1       9.518  11.759  20.018  0.00  0.00    +0.000 A 
ENDBRANCH  19  21
ENDBRANCH  18  19
ENDBRANCH  17  18
ENDBRANCH   6  17
TORSDOF 8
ENDMDL
MODEL 4
REMARK VINA RESULT:      -7.3      3.464      7.574
REMARK  Name = 
REMARK  10 active torsions:
REMARK  status: ('A' for Active; 'I' for Inactive)
REMARK    1  A    between atoms: C_1  and  C_2
REMARK    2  A    between atoms: C_2  and  C_3
REMARK    3  A    between atoms: C_3  and  C_4
REMARK    4  A    between atoms: C_3  and  C_5
REMARK    5  A    between atoms: C_5  and  N_6
REMARK    6  A    between atoms: C_5  and  C_7
REMARK    7  A    between atoms: N_12  and  C_13
REMARK    8  A    between atoms: C_13  and  C_14
REMARK    9  A    between atoms: C_14  and  N_15
REMARK   10  A    between atoms: N_15  and  C_16
REMARK                            x       y       z     vdW  Elec       q    Type
REMARK                         _______ _______ _______ _____ _____    ______ ____
ROOT
ATOM      1  C   UNL     1       1.785   7.774  19.912  0.00  0.00    +0.000 C 
ATOM      2  O   UNL     1       1.693   8.240  21.052  0.00  0.00    +0.000 OA
ATOM      3  N   UNL     1       1.988   6.420  19.690  0.00  0.00    +0.000 N 
ATOM      4  C   UNL     1       1.878   5.486  20.809  0.00  0.00    +0.000 C 
ATOM      5  C   UNL     1       1.084   4.235  20.386  0.00  0.00    +0.000 C 
ATOM      6  N   UNL     1       1.583   3.567  19.157  0.00  0.00    +0.000 NA
ATOM      7  C   UNL     1       1.656   4.576  18.073  0.00  0.00    +0.000 C 
ATOM      8  C   UNL     1       2.475   5.829  18.438  0.00  0.00    +0.000 C 
ENDROOT
BRANCH   1   9
ATOM      9  C   UNL     1       1.660   8.683  18.659  0.00  0.00    +0.000 C 
BRANCH   9  10
ATOM     10  N   UNL     1       2.976   8.677  17.986  0.00  0.00    +0.000 NA
ATOM     11  H   UNL     1       2.911   8.063  17.173  0.00  0.00    +0.000 HD
ATOM     12  H   UNL     1       3.681   8.269  18.595  0.00  0.00    +0.000 HD
ENDBRANCH   9  10
BRANCH   9  13
ATOM     13  C   UNL     1       1.160  10.109  19.016  0.00  0.00    +0.000 C 
ATOM     14  C   UNL     1      -0.329  10.261  18.643  0.00  0.00    +0.000 C 
BRANCH  13  16
ATOM     15  C   UNL     1       1.447  12.591  18.376  0.00  0.00    +0.000 C 
ATOM     16  C   UNL     1       2.001  11.178  18.275  0.00  0.00    +0.000 C 
ENDBRANCH  13  16
ENDBRANCH   9  13
ENDBRANCH   1   9
BRANCH   6  17
ATOM     17  C   UNL     1       2.897   2.916  19.343  0.00  0.00    +0.000 C 
BRANCH  17  18
ATOM     18  C   UNL     1       3.620   2.593  18.022  0.00  0.00    +0.000 C 
BRANCH  18  19
ATOM     19  N   UNL     1       5.028   3.012  18.085  0.00  0.00    +0.000 N 
ATOM     20  H   UNL     1       5.648   2.209  18.029  0.00  0.00    +0.000 HD
BRANCH  19  21
ATOM     21  C   UNL     1       5.433   4.033  17.189  0.00  0.00    +0.000 A 
ATOM     22  C   UNL     1       4.905   4.099  15.896  0.00  0.00    +0.000 A 
ATOM     23  C   UNL     1       5.264   5.141  15.068  0.00  0.00    +0.000 A 
ATOM     24  N   UNL     1       6.081   6.141  15.436  0.00  0.00    +0.000 NA
ATOM     25  C   UNL     1       6.562   6.128  16.686  0.00  0.00    +0.000 A 
ATOM     26  C   UNL     1       7.369   7.192  17.058  0.00  0.00    +0.000 A 
ATOM     27  C   UNL     1       7.914   7.274  18.333  0.00  0.00    +0.000 A 
ATOM     28 CL   UNL     1       8.900   8.620  18.756  0.00  0.00    +0.000 Cl
ATOM     29  C   UNL     1       7.664   6.282  19.268  0.00  0.00    +0.000 A 
ATOM     30  C   UNL     1       6.845   5.205  18.917  0.00  0.00    +0.000 A 
ATOM     31  C   UNL     1       6.274   5.102  17.622  0.00  0.00    +0.000 A 
ENDBRANCH  19  21
ENDBRANCH  18  19
ENDBRANCH  17  18
ENDBRANCH   6  17
TORSDOF 8
ENDMDL
MODEL 5
REMARK VINA RESULT:      -7.3      3.794      8.910
REMARK  Name = 
REMARK  10 active torsions:
REMARK  status: ('A' for Active; 'I' for Inactive)
REMARK    1  A    between atoms: C_1  and  C_2
REMARK    2  A    between atoms: C_2  and  C_3
REMARK    3  A    between atoms: C_3  and  C_4
REMARK    4  A    between atoms: C_3  and  C_5
REMARK    5  A    between atoms: C_5  and  N_6
REMARK    6  A    between atoms: C_5  and  C_7
REMARK    7  A    between atoms: N_12  and  C_13
REMARK    8  A    between atoms: C_13  and  C_14
REMARK    9  A    between atoms: C_14  and  N_15
REMARK   10  A    between atoms: N_15  and  C_16
REMARK                            x       y       z     vdW  Elec       q    Type
REMARK                         _______ _______ _______ _____ _____    ______ ____
ROOT
ATOM      1  C   UNL     1       0.891   9.352  19.982  0.00  0.00    +0.000 C 
ATOM      2  O   UNL     1       0.553   9.659  21.131  0.00  0.00    +0.000 OA
ATOM      3  N   UNL     1       1.654   8.223  19.722  0.00  0.00    +0.000 N 
ATOM      4  C   UNL     1       1.886   7.254  20.790  0.00  0.00    +0.000 C 
ATOM      5  C   UNL     1       1.712   5.817  20.258  0.00  0.00    +0.000 C 
ATOM      6  N   UNL     1       2.508   5.503  19.045  0.00  0.00    +0.000 NA
ATOM      7  C   UNL     1       2.208   6.523  18.012  0.00  0.00    +0.000 C 
ATOM      8  C   UNL     1       2.408   7.975  18.489  0.00  0.00    +0.000 C 
ENDROOT
BRANCH   1   9
ATOM      9  C   UNL     1       0.463  10.211  18.762  0.00  0.00    +0.000 C 
BRANCH   9  10
ATOM     10  N   UNL     1       1.234  11.471  18.826  0.00  0.00    +0.000 NA
ATOM     11  H   UNL     1       1.665  11.529  19.749  0.00  0.00    +0.000 HD
ATOM     12  H   UNL     1       0.608  12.270  18.754  0.00  0.00    +0.000 HD
ENDBRANCH   9  10
BRANCH   9  13
ATOM     13  C   UNL     1      -1.073  10.434  18.709  0.00  0.00    +0.000 C 
ATOM     14  C   UNL     1      -1.619  10.051  17.319  0.00  0.00    +0.000 C 
BRANCH  13  16
ATOM     15  C   UNL     1      -1.930  12.146  20.436  0.00  0.00    +0.000 C 
ATOM     16  C   UNL     1      -1.416  11.910  19.024  0.00  0.00    +0.000 C 
ENDBRANCH  13  16
ENDBRANCH   9  13
ENDBRANCH   1   9
BRANCH   6  17
ATOM     17  C   UNL     1       3.963   5.445  19.304  0.00  0.00    +0.000 C 
BRANCH  17  18
ATOM     18  C   UNL     1       4.454   4.061  19.765  0.00  0.00    +0.000 C 
BRANCH  18  19
ATOM     19  N   UNL     1       5.652   3.659  19.014  0.00  0.00    +0.000 N 
ATOM     20  H   UNL     1       5.482   2.807  18.486  0.00  0.00    +0.000 HD
BRANCH  19  21
ATOM     21  C   UNL     1       6.262   4.647  18.202  0.00  0.00    +0.000 A 
ATOM     22  C   UNL     1       6.938   5.728  18.779  0.00  0.00    +0.000 A 
ATOM     23  C   UNL     1       7.581   6.638  17.968  0.00  0.00    +0.000 A 
ATOM     24  N   UNL     1       7.635   6.541  16.630  0.00  0.00    +0.000 NA
ATOM     25  C   UNL     1       7.038   5.488  16.055  0.00  0.00    +0.000 A 
ATOM     26  C   UNL     1       7.142   5.386  14.676  0.00  0.00    +0.000 A 
ATOM     27  C   UNL     1       6.561   4.330  13.985  0.00  0.00    +0.000 A 
ATOM     28 CL   UNL     1       6.726   4.235  12.275  0.00  0.00    +0.000 Cl
ATOM     29  C   UNL     1       5.855   3.350  14.665  0.00  0.00    +0.000 A 
ATOM     30  C   UNL     1       5.746   3.429  16.056  0.00  0.00    +0.000 A 
ATOM     31  C   UNL     1       6.334   4.496  16.785  0.00  0.00    +0.000 A 
ENDBRANCH  19  21
ENDBRANCH  18  19
ENDBRANCH  17  18
ENDBRANCH   6  17
TORSDOF 8
ENDMDL
MODEL 6
REMARK VINA RESULT:      -7.1      3.447      7.749
REMARK  Name = 
REMARK  10 active torsions:
REMARK  status: ('A' for Active; 'I' for Inactive)
REMARK    1  A    between atoms: C_1  and  C_2
REMARK    2  A    between atoms: C_2  and  C_3
REMARK    3  A    between atoms: C_3  and  C_4
REMARK    4  A    between atoms: C_3  and  C_5
REMARK    5  A    between atoms: C_5  and  N_6
REMARK    6  A    between atoms: C_5  and  C_7
REMARK    7  A    between atoms: N_12  and  C_13
REMARK    8  A    between atoms: C_13  and  C_14
REMARK    9  A    between atoms: C_14  and  N_15
REMARK   10  A    between atoms: N_15  and  C_16
REMARK                            x       y       z     vdW  Elec       q    Type
REMARK                         _______ _______ _______ _____ _____    ______ ____
ROOT
ATOM      1  C   UNL     1       1.027   8.281  20.959  0.00  0.00    +0.000 C 
ATOM      2  O   UNL     1       0.322   8.237  21.973  0.00  0.00    +0.000 OA
ATOM      3  N   UNL     1       1.679   7.157  20.474  0.00  0.00    +0.000 N 
ATOM      4  C   UNL     1       1.362   5.846  21.038  0.00  0.00    +0.000 C 
ATOM      5  C   UNL     1       1.219   4.800  19.914  0.00  0.00    +0.000 C 
ATOM      6  N   UNL     1       2.368   4.735  18.976  0.00  0.00    +0.000 NA
ATOM      7  C   UNL     1       2.616   6.097  18.445  0.00  0.00    +0.000 C 
ATOM      8  C   UNL     1       2.805   7.169  19.535  0.00  0.00    +0.000 C 
ENDROOT
BRANCH   1   9
ATOM      9  C   UNL     1       1.207   9.600  20.161  0.00  0.00    +0.000 C 
BRANCH   9  10
ATOM     10  N   UNL     1       0.627  10.686  20.980  0.00  0.00    +0.000 NA
ATOM     11  H   UNL     1       1.302  11.451  21.013  0.00  0.00    +0.000 HD
ATOM     12  H   UNL     1       0.504  10.374  21.941  0.00  0.00    +0.000 HD
ENDBRANCH   9  10
BRANCH   9  13
ATOM     13  C   UNL     1       0.596   9.514  18.736  0.00  0.00    +0.000 C 
ATOM     14  C   UNL     1       1.666   9.845  17.677  0.00  0.00    +0.000 C 
BRANCH  13  16
ATOM     15  C   UNL     1      -1.614  10.090  17.539  0.00  0.00    +0.000 C 
ATOM     16  C   UNL     1      -0.600  10.487  18.601  0.00  0.00    +0.000 C 
ENDBRANCH  13  16
ENDBRANCH   9  13
ENDBRANCH   1   9
BRANCH   6  17
ATOM     17  C   UNL     1       3.596   4.194  19.597  0.00  0.00    +0.000 C 
BRANCH  17  18
ATOM     18  C   UNL     1       4.199   2.999  18.837  0.00  0.00    +0.000 C 
BRANCH  18  19
ATOM     19  N   UNL     1       5.579   3.291  18.423  0.00  0.00    +0.000 N 
ATOM     20  H   UNL     1       6.048   2.448  18.102  0.00  0.00    +0.000 HD
BRANCH  19  21
ATOM     21  C   UNL     1       5.762   4.356  17.506  0.00  0.00    +0.000 A 
ATOM     22  C   UNL     1       5.043   4.397  16.307  0.00  0.00    +0.000 A 
ATOM     23  C   UNL     1       5.188   5.478  15.464  0.00  0.00    +0.000 A 
ATOM     24  N   UNL     1       5.966   6.539  15.736  0.00  0.00    +0.000 NA
ATOM     25  C   UNL     1       6.629   6.547  16.900  0.00  0.00    +0.000 A 
ATOM     26  C   UNL     1       7.393   7.670  17.178  0.00  0.00    +0.000 A 
ATOM     27  C   UNL     1       8.114   7.778  18.360  0.00  0.00    +0.000 A 
ATOM     28 CL   UNL     1       9.040   9.195  18.670  0.00  0.00    +0.000 Cl
ATOM     29  C   UNL     1       8.088   6.754  19.294  0.00  0.00    +0.000 A 
ATOM     30  C   UNL     1       7.316   5.617  19.039  0.00  0.00    +0.000 A 
ATOM     31  C   UNL     1       6.568   5.485  17.839  0.00  0.00    +0.000 A 
ENDBRANCH  19  21
ENDBRANCH  18  19
ENDBRANCH  17  18
ENDBRANCH   6  17
TORSDOF 8
ENDMDL
MODEL 7
REMARK VINA RESULT:      -7.0      6.323      7.870
REMARK  Name = 
REMARK  10 active torsions:
REMARK  status: ('A' for Active; 'I' for Inactive)
REMARK    1  A    between atoms: C_1  and  C_2
REMARK    2  A    between atoms: C_2  and  C_3
REMARK    3  A    between atoms: C_3  and  C_4
REMARK    4  A    between atoms: C_3  and  C_5
REMARK    5  A    between atoms: C_5  and  N_6
REMARK    6  A    between atoms: C_5  and  C_7
REMARK    7  A    between atoms: N_12  and  C_13
REMARK    8  A    between atoms: C_13  and  C_14
REMARK    9  A    between atoms: C_14  and  N_15
REMARK   10  A    between atoms: N_15  and  C_16
REMARK                            x       y       z     vdW  Elec       q    Type
REMARK                         _______ _______ _______ _____ _____    ______ ____
ROOT
ATOM      1  C   UNL     1       4.945   4.062  19.031  0.00  0.00    +0.000 C 
ATOM      2  O   UNL     1       5.368   3.391  19.979  0.00  0.00    +0.000 OA
ATOM      3  N   UNL     1       5.584   5.219  18.613  0.00  0.00    +0.000 N 
ATOM      4  C   UNL     1       6.901   5.546  19.155  0.00  0.00    +0.000 C 
ATOM      5  C   UNL     1       7.839   6.028  18.029  0.00  0.00    +0.000 C 
ATOM      6  N   UNL     1       7.296   7.130  17.197  0.00  0.00    +0.000 NA
ATOM      7  C   UNL     1       5.969   6.717  16.681  0.00  0.00    +0.000 C 
ATOM      8  C   UNL     1       4.984   6.265  17.776  0.00  0.00    +0.000 C 
ENDROOT
BRANCH   1   9
ATOM      9  C   UNL     1       3.678   3.632  18.243  0.00  0.00    +0.000 C 
BRANCH   9  10
ATOM     10  N   UNL     1       4.032   3.651  16.808  0.00  0.00    +0.000 NA
ATOM     11  H   UNL     1       3.178   3.823  16.276  0.00  0.00    +0.000 HD
ATOM     12  H   UNL     1       4.370   2.737  16.517  0.00  0.00    +0.000 HD
ENDBRANCH   9  10
BRANCH   9  13
ATOM     13  C   UNL     1       2.447   4.516  18.583  0.00  0.00    +0.000 C 
ATOM     14  C   UNL     1       2.369   4.757  20.104  0.00  0.00    +0.000 C 
BRANCH  13  16
ATOM     15  C   UNL     1       0.734   2.612  18.885  0.00  0.00    +0.000 C 
ATOM     16  C   UNL     1       1.144   3.842  18.088  0.00  0.00    +0.000 C 
ENDBRANCH  13  16
ENDBRANCH   9  13
ENDBRANCH   1   9
BRANCH   6  17
ATOM     17  C   UNL     1       7.187   8.411  17.928  0.00  0.00    +0.000 C 
BRANCH  17  18
ATOM     18  C   UNL     1       8.366   9.368  17.677  0.00  0.00    +0.000 C 
BRANCH  18  19
ATOM     19  N   UNL     1       8.979   9.781  18.948  0.00  0.00    +0.000 N 
ATOM     20  H   UNL     1       9.521   9.022  19.353  0.00  0.00    +0.000 HD
BRANCH  19  21
ATOM     21  C   UNL     1       9.720  10.989  18.940  0.00  0.00    +0.000 A 
ATOM     22  C   UNL     1      10.453  11.369  17.812  0.00  0.00    +0.000 A 
ATOM     23  C   UNL     1      11.109  12.582  17.805  0.00  0.00    +0.000 A 
ATOM     24  N   UNL     1      11.066  13.461  18.818  0.00  0.00    +0.000 NA
ATOM     25  C   UNL     1      10.331  13.142  19.892  0.00  0.00    +0.000 A 
ATOM     26  C   UNL     1      10.268  14.083  20.909  0.00  0.00    +0.000 A 
ATOM     27  C   UNL     1       9.529  13.850  22.062  0.00  0.00    +0.000 A 
ATOM     28 CL   UNL     1       9.467  15.051  23.294  0.00  0.00    +0.000 Cl
ATOM     29  C   UNL     1       8.837  12.660  22.224  0.00  0.00    +0.000 A 
ATOM     30  C   UNL     1       8.880  11.702  21.208  0.00  0.00    +0.000 A 
ATOM     31  C   UNL     1       9.625  11.919  20.018  0.00  0.00    +0.000 A 
ENDBRANCH  19  21
ENDBRANCH  18  19
ENDBRANCH  17  18
ENDBRANCH   6  17
TORSDOF 8
ENDMDL
MODEL 8
REMARK VINA RESULT:      -6.9      3.956      9.181
REMARK  Name = 
REMARK  10 active torsions:
REMARK  status: ('A' for Active; 'I' for Inactive)
REMARK    1  A    between atoms: C_1  and  C_2
REMARK    2  A    between atoms: C_2  and  C_3
REMARK    3  A    between atoms: C_3  and  C_4
REMARK    4  A    between atoms: C_3  and  C_5
REMARK    5  A    between atoms: C_5  and  N_6
REMARK    6  A    between atoms: C_5  and  C_7
REMARK    7  A    between atoms: N_12  and  C_13
REMARK    8  A    between atoms: C_13  and  C_14
REMARK    9  A    between atoms: C_14  and  N_15
REMARK   10  A    between atoms: N_15  and  C_16
REMARK                            x       y       z     vdW  Elec       q    Type
REMARK                         _______ _______ _______ _____ _____    ______ ____
ROOT
ATOM      1  C   UNL     1      -1.010  12.113  18.403  0.00  0.00    +0.000 C 
ATOM      2  O   UNL     1      -0.559  13.196  18.015  0.00  0.00    +0.000 OA
ATOM      3  N   UNL     1      -0.369  11.360  19.375  0.00  0.00    +0.000 N 
ATOM      4  C   UNL     1       0.745  11.948  20.116  0.00  0.00    +0.000 C 
ATOM      5  C   UNL     1       0.621  11.620  21.618  0.00  0.00    +0.000 C 
ATOM      6  N   UNL     1       0.451  10.178  21.927  0.00  0.00    +0.000 NA
ATOM      7  C   UNL     1      -0.698   9.663  21.145  0.00  0.00    +0.000 C 
ATOM      8  C   UNL     1      -0.597   9.934  19.632  0.00  0.00    +0.000 C 
ENDROOT
BRANCH   1   9
ATOM      9  C   UNL     1      -2.335  11.542  17.829  0.00  0.00    +0.000 C 
BRANCH   9  10
ATOM     10  N   UNL     1      -2.270  11.687  16.359  0.00  0.00    +0.000 NA
ATOM     11  H   UNL     1      -3.202  11.508  15.984  0.00  0.00    +0.000 HD
ATOM     12  H   UNL     1      -1.662  10.974  15.962  0.00  0.00    +0.000 HD
ENDBRANCH   9  10
BRANCH   9  13
ATOM     13  C   UNL     1      -3.586  12.217  18.457  0.00  0.00    +0.000 C 
ATOM     14  C   UNL     1      -3.396  12.379  19.978  0.00  0.00    +0.000 C 
BRANCH  13  16
ATOM     15  C   UNL     1      -5.821  12.018  17.185  0.00  0.00    +0.000 C 
ATOM     16  C   UNL     1      -4.854  11.377  18.170  0.00  0.00    +0.000 C 
ENDBRANCH  13  16
ENDBRANCH   9  13
ENDBRANCH   1   9
BRANCH   6  17
ATOM     17  C   UNL     1       1.663   9.377  21.647  0.00  0.00    +0.000 C 
BRANCH  17  18
ATOM     18  C   UNL     1       1.362   7.932  21.214  0.00  0.00    +0.000 C 
BRANCH  18  19
ATOM     19  N   UNL     1       2.185   7.555  20.054  0.00  0.00    +0.000 N 
ATOM     20  H   UNL     1       3.069   8.057  20.058  0.00  0.00    +0.000 HD
BRANCH  19  21
ATOM     21  C   UNL     1       2.385   6.170  19.833  0.00  0.00    +0.000 A 
ATOM     22  C   UNL     1       1.691   5.219  20.587  0.00  0.00    +0.000 A 
ATOM     23  C   UNL     1       1.852   3.879  20.305  0.00  0.00    +0.000 A 
ATOM     24  N   UNL     1       2.623   3.412  19.310  0.00  0.00    +0.000 NA
ATOM     25  C   UNL     1       3.262   4.304  18.542  0.00  0.00    +0.000 A 
ATOM     26  C   UNL     1       4.019   3.801  17.495  0.00  0.00    +0.000 A 
ATOM     27  C   UNL     1       4.716   4.643  16.638  0.00  0.00    +0.000 A 
ATOM     28 CL   UNL     1       5.633   3.976  15.343  0.00  0.00    +0.000 Cl
ATOM     29  C   UNL     1       4.671   6.017  16.815  0.00  0.00    +0.000 A 
ATOM     30  C   UNL     1       3.906   6.546  17.858  0.00  0.00    +0.000 A 
ATOM     31  C   UNL     1       3.183   5.706  18.744  0.00  0.00    +0.000 A 
ENDBRANCH  19  21
ENDBRANCH  18  19
ENDBRANCH  17  18
ENDBRANCH   6  17
TORSDOF 8
ENDMDL
MODEL 9
REMARK VINA RESULT:      -6.9      2.628      4.066
REMARK  Name = 
REMARK  10 active torsions:
REMARK  status: ('A' for Active; 'I' for Inactive)
REMARK    1  A    between atoms: C_1  and  C_2
REMARK    2  A    between atoms: C_2  and  C_3
REMARK    3  A    between atoms: C_3  and  C_4
REMARK    4  A    between atoms: C_3  and  C_5
REMARK    5  A    between atoms: C_5  and  N_6
REMARK    6  A    between atoms: C_5  and  C_7
REMARK    7  A    between atoms: N_12  and  C_13
REMARK    8  A    between atoms: C_13  and  C_14
REMARK    9  A    between atoms: C_14  and  N_15
REMARK   10  A    between atoms: N_15  and  C_16
REMARK                            x       y       z     vdW  Elec       q    Type
REMARK                         _______ _______ _______ _____ _____    ______ ____
ROOT
ATOM      1  C   UNL     1       4.818   4.124  19.290  0.00  0.00    +0.000 C 
ATOM      2  O   UNL     1       6.046   4.051  19.174  0.00  0.00    +0.000 OA
ATOM      3  N   UNL     1       4.122   5.280  18.972  0.00  0.00    +0.000 N 
ATOM      4  C   UNL     1       4.815   6.366  18.282  0.00  0.00    +0.000 C 
ATOM      5  C   UNL     1       3.933   6.930  17.150  0.00  0.00    +0.000 C 
ATOM      6  N   UNL     1       2.564   7.326  17.567  0.00  0.00    +0.000 NA
ATOM      7  C   UNL     1       1.930   6.171  18.247  0.00  0.00    +0.000 C 
ATOM      8  C   UNL     1       2.759   5.599  19.413  0.00  0.00    +0.000 C 
ENDROOT
BRANCH   1   9
ATOM      9  C   UNL     1       3.984   2.912  19.786  0.00  0.00    +0.000 C 
BRANCH   9  10
ATOM     10  N   UNL     1       4.884   2.069  20.601  0.00  0.00    +0.000 NA
ATOM     11  H   UNL     1       4.424   1.889  21.494  0.00  0.00    +0.000 HD
ATOM     12  H   UNL     1       5.739   2.576  20.819  0.00  0.00    +0.000 HD
ENDBRANCH   9  10
BRANCH   9  13
ATOM     13  C   UNL     1       3.315   2.141  18.615  0.00  0.00    +0.000 C 
ATOM     14  C   UNL     1       3.564   2.875  17.283  0.00  0.00    +0.000 C 
BRANCH  13  16
ATOM     15  C   UNL     1       1.318   2.564  20.192  0.00  0.00    +0.000 C 
ATOM     16  C   UNL     1       1.793   1.997  18.862  0.00  0.00    +0.000 C 
ENDBRANCH  13  16
ENDBRANCH   9  13
ENDBRANCH   1   9
BRANCH   6  17
ATOM     17  C   UNL     1       2.545   8.514  18.446  0.00  0.00    +0.000 C 
BRANCH  17  18
ATOM     18  C   UNL     1       1.139   9.105  18.658  0.00  0.00    +0.000 C 
BRANCH  18  19
ATOM     19  N   UNL     1       1.203  10.309  19.499  0.00  0.00    +0.000 N 
ATOM     20  H   UNL     1       0.836  11.118  19.005  0.00  0.00    +0.000 HD
BRANCH  19  21
ATOM     21  C   UNL     1       0.648  10.212  20.800  0.00  0.00    +0.000 A 
ATOM     22  C   UNL     1       1.238   9.393  21.768  0.00  0.00    +0.000 A 
ATOM     23  C   UNL     1       0.720   9.369  23.045  0.00  0.00    +0.000 A 
ATOM     24  N   UNL     1      -0.317  10.122  23.445  0.00  0.00    +0.000 NA
ATOM     25  C   UNL     1      -0.870  10.951  22.550  0.00  0.00    +0.000 A 
ATOM     26  C   UNL     1      -1.913  11.748  22.997  0.00  0.00    +0.000 A 
ATOM     27  C   UNL     1      -2.551  12.645  22.148  0.00  0.00    +0.000 A 
ATOM     28 CL   UNL     1      -3.833  13.624  22.747  0.00  0.00    +0.000 Cl
ATOM     29  C   UNL     1      -2.157  12.759  20.824  0.00  0.00    +0.000 A 
ATOM     30  C   UNL     1      -1.101  11.972  20.356  0.00  0.00    +0.000 A 
ATOM     31  C   UNL     1      -0.432  11.051  21.205  0.00  0.00    +0.000 A 
ENDBRANCH  19  21
ENDBRANCH  18  19
ENDBRANCH  17  18
ENDBRANCH   6  17
TORSDOF 8
ENDMDL
