MODEL 1
REMARK VINA RESULT:      -8.9      0.000      0.000
REMARK  Name = 
REMARK  9 active torsions:
REMARK  status: ('A' for Active; 'I' for Inactive)
REMARK    1  A    between atoms: C_2  and  O_21
REMARK    2  A    between atoms: N_3  and  C_4
REMARK    3  A    between atoms: C_7  and  C_8
REMARK    4  A    between atoms: C_11  and  O_12
REMARK    5  A    between atoms: O_12  and  C_13
REMARK    6  A    between atoms: O_21  and  C_22
REMARK    7  A    between atoms: C_22  and  C_23
REMARK    8  A    between atoms: C_23  and  C_24
REMARK    9  A    between atoms: C_29  and  N_30
REMARK                            x       y       z     vdW  Elec       q    Type
REMARK                         _______ _______ _______ _____ _____    ______ ____
ROOT
ATOM      1  O   UNL     1       2.245   8.174  18.913  0.00  0.00    +0.000 OA
ATOM      2  C   UNL     1       2.144   7.456  19.896  0.00  0.00    +0.000 C 
ATOM      3  N   UNL     1       1.564   7.749  21.103  0.00  0.00    +0.000 N 
ATOM      4  H   UNL     1       1.637   7.013  21.790  0.00  0.00    +0.000 HD
ENDROOT
BRANCH   3   5
ATOM      5  C   UNL     1       0.809   8.891  21.432  0.00  0.00    +0.000 A 
ATOM      6  C   UNL     1       0.474   9.876  20.506  0.00  0.00    +0.000 A 
ATOM      7  C   UNL     1      -0.273  10.995  20.890  0.00  0.00    +0.000 A 
ATOM      8  C   UNL     1      -0.723  11.169  22.209  0.00  0.00    +0.000 A 
ATOM      9  C   UNL     1      -0.399  10.155  23.127  0.00  0.00    +0.000 A 
ATOM     10  C   UNL     1       0.355   9.033  22.744  0.00  0.00    +0.000 A 
BRANCH   8  11
ATOM     11  C   UNL     1      -1.495  12.373  22.595  0.00  0.00    +0.000 A 
ATOM     12  C   UNL     1      -2.842  12.285  22.989  0.00  0.00    +0.000 A 
ATOM     13  C   UNL     1      -3.579  13.422  23.336  0.00  0.00    +0.000 A 
ATOM     14  C   UNL     1      -2.984  14.682  23.326  0.00  0.00    +0.000 A 
ATOM     15  C   UNL     1      -1.666  14.802  22.899  0.00  0.00    +0.000 A 
ATOM     16  C   UNL     1      -0.930  13.659  22.551  0.00  0.00    +0.000 A 
BRANCH  14  17
ATOM     17  O   UNL     1      -3.804  15.708  23.678  0.00  0.00    +0.000 OA
BRANCH  17  18
ATOM     18  C   UNL     1      -3.697  16.263  24.981  0.00  0.00    +0.000 C 
ATOM     19  F   UNL     1      -2.783  17.249  25.098  0.00  0.00    +0.000 F 
ATOM     20  F   UNL     1      -4.902  16.745  25.355  0.00  0.00    +0.000 F 
ATOM     21  F   UNL     1      -3.353  15.278  25.842  0.00  0.00    +0.000 F 
ENDBRANCH  17  18
ENDBRANCH  14  17
ENDBRANCH   8  11
ENDBRANCH   3   5
BRANCH   2  22
ATOM     22  O   UNL     1       2.560   6.159  19.918  0.00  0.00    +0.000 OA
BRANCH  22  23
ATOM     23  C   UNL     1       1.550   5.222  20.329  0.00  0.00    +0.000 C 
BRANCH  23  24
ATOM     24  C   UNL     1       2.116   4.058  21.148  0.00  0.00    +0.000 C 
BRANCH  24  25
ATOM     25  C   UNL     1       2.608   2.930  20.221  0.00  0.00    +0.000 C 
ATOM     26  C   UNL     1       1.791   2.788  18.925  0.00  0.00    +0.000 C 
ATOM     27  C   UNL     1       2.380   3.448  17.685  0.00  0.00    +0.000 C 
ATOM     28  N   UNL     1       3.779   3.758  17.812  0.00  0.00    +0.000 N 
ATOM     29  C   UNL     1       4.603   4.270  16.858  0.00  0.00    +0.000 A 
ATOM     30  C   UNL     1       5.827   4.379  17.490  0.00  0.00    +0.000 A 
ATOM     31  N   UNL     1       5.755   3.921  18.798  0.00  0.00    +0.000 NA
ATOM     32  C   UNL     1       4.505   3.557  18.946  0.00  0.00    +0.000 A 
ATOM     33  O   UNL     1       4.028   2.997  20.051  0.00  0.00    +0.000 OA
BRANCH  30  34
ATOM     34  N   UNL     1       7.062   4.875  16.929  0.00  0.00    +0.000 N 
ATOM     35  O   UNL     1       8.088   4.212  17.167  0.00  0.00    +0.000 OA
ATOM     36  O   UNL     1       7.016   5.915  16.257  0.00  0.00    +0.000 OA
ENDBRANCH  30  34
ENDBRANCH  24  25
ENDBRANCH  23  24
ENDBRANCH  22  23
ENDBRANCH   2  22
TORSDOF 9
ENDMDL
MODEL 2
REMARK VINA RESULT:      -8.8      6.336     11.052
REMARK  Name = 
REMARK  9 active torsions:
REMARK  status: ('A' for Active; 'I' for Inactive)
REMARK    1  A    between atoms: C_2  and  O_21
REMARK    2  A    between atoms: N_3  and  C_4
REMARK    3  A    between atoms: C_7  and  C_8
REMARK    4  A    between atoms: C_11  and  O_12
REMARK    5  A    between atoms: O_12  and  C_13
REMARK    6  A    between atoms: O_21  and  C_22
REMARK    7  A    between atoms: C_22  and  C_23
REMARK    8  A    between atoms: C_23  and  C_24
REMARK    9  A    between atoms: C_29  and  N_30
REMARK                            x       y       z     vdW  Elec       q    Type
REMARK                         _______ _______ _______ _____ _____    ______ ____
ROOT
ATOM      1  O   UNL     1       1.393  13.036  21.248  0.00  0.00    +0.000 OA
ATOM      2  C   UNL     1       0.572  13.059  20.345  0.00  0.00    +0.000 C 
ATOM      3  N   UNL     1       0.327  12.098  19.399  0.00  0.00    +0.000 N 
ATOM      4  H   UNL     1      -0.374  12.352  18.718  0.00  0.00    +0.000 HD
ENDROOT
BRANCH   3   5
ATOM      5  C   UNL     1       0.858  10.795  19.348  0.00  0.00    +0.000 A 
ATOM      6  C   UNL     1       1.528  10.288  18.238  0.00  0.00    +0.000 A 
ATOM      7  C   UNL     1       2.030   8.982  18.239  0.00  0.00    +0.000 A 
ATOM      8  C   UNL     1       1.892   8.136  19.352  0.00  0.00    +0.000 A 
ATOM      9  C   UNL     1       1.236   8.670  20.475  0.00  0.00    +0.000 A 
ATOM     10  C   UNL     1       0.728   9.980  20.473  0.00  0.00    +0.000 A 
BRANCH   8  11
ATOM     11  C   UNL     1       2.415   6.750  19.322  0.00  0.00    +0.000 A 
ATOM     12  C   UNL     1       3.207   6.288  18.256  0.00  0.00    +0.000 A 
ATOM     13  C   UNL     1       3.685   4.975  18.216  0.00  0.00    +0.000 A 
ATOM     14  C   UNL     1       3.411   4.088  19.256  0.00  0.00    +0.000 A 
ATOM     15  C   UNL     1       2.594   4.507  20.300  0.00  0.00    +0.000 A 
ATOM     16  C   UNL     1       2.115   5.826  20.337  0.00  0.00    +0.000 A 
BRANCH  14  17
ATOM     17  O   UNL     1       3.928   2.840  19.098  0.00  0.00    +0.000 OA
BRANCH  17  18
ATOM     18  C   UNL     1       3.129   1.833  18.494  0.00  0.00    +0.000 C 
ATOM     19  F   UNL     1       2.624   2.163  17.287  0.00  0.00    +0.000 F 
ATOM     20  F   UNL     1       3.866   0.708  18.360  0.00  0.00    +0.000 F 
ATOM     21  F   UNL     1       2.089   1.558  19.315  0.00  0.00    +0.000 F 
ENDBRANCH  17  18
ENDBRANCH  14  17
ENDBRANCH   8  11
ENDBRANCH   3   5
BRANCH   2  22
ATOM     22  O   UNL     1      -0.321  14.074  20.174  0.00  0.00    +0.000 OA
BRANCH  22  23
ATOM     23  C   UNL     1      -1.216  14.266  21.281  0.00  0.00    +0.000 C 
BRANCH  23  24
ATOM     24  C   UNL     1      -2.685  14.340  20.853  0.00  0.00    +0.000 C 
BRANCH  24  25
ATOM     25  C   UNL     1      -3.335  12.944  20.898  0.00  0.00    +0.000 C 
ATOM     26  C   UNL     1      -4.867  12.965  20.762  0.00  0.00    +0.000 C 
ATOM     27  C   UNL     1      -5.422  12.683  19.372  0.00  0.00    +0.000 C 
ATOM     28  N   UNL     1      -4.471  12.055  18.494  0.00  0.00    +0.000 N 
ATOM     29  C   UNL     1      -4.686  11.605  17.228  0.00  0.00    +0.000 A 
ATOM     30  C   UNL     1      -3.461  11.099  16.835  0.00  0.00    +0.000 A 
ATOM     31  N   UNL     1      -2.524  11.218  17.852  0.00  0.00    +0.000 NA
ATOM     32  C   UNL     1      -3.177  11.797  18.830  0.00  0.00    +0.000 A 
ATOM     33  O   UNL     1      -2.651  12.039  20.024  0.00  0.00    +0.000 OA
BRANCH  30  34
ATOM     34  N   UNL     1      -3.128  10.497  15.566  0.00  0.00    +0.000 N 
ATOM     35  O   UNL     1      -2.326   9.547  15.593  0.00  0.00    +0.000 OA
ATOM     36  O   UNL     1      -3.657  10.964  14.547  0.00  0.00    +0.000 OA
ENDBRANCH  30  34
ENDBRANCH  24  25
ENDBRANCH  23  24
ENDBRANCH  22  23
ENDBRANCH   2  22
TORSDOF 9
ENDMDL
MODEL 3
REMARK VINA RESULT:      -8.8      0.857      1.036
REMARK  Name = 
REMARK  9 active torsions:
REMARK  status: ('A' for Active; 'I' for Inactive)
REMARK    1  A    between atoms: C_2  and  O_21
REMARK    2  A    between atoms: N_3  and  C_4
REMARK    3  A    between atoms: C_7  and  C_8
REMARK    4  A    between atoms: C_11  and  O_12
REMARK    5  A    between atoms: O_12  and  C_13
REMARK    6  A    between atoms: O_21  and  C_22
REMARK    7  A    between atoms: C_22  and  C_23
REMARK    8  A    between atoms: C_23  and  C_24
REMARK    9  A    between atoms: C_29  and  N_30
REMARK                            x       y       z     vdW  Elec       q    Type
REMARK                         _______ _______ _______ _____ _____    ______ ____
ROOT
ATOM      1  O   UNL     1       2.030   7.862  18.762  0.00  0.00    +0.000 OA
ATOM      2  C   UNL     1       2.081   7.294  19.842  0.00  0.00    +0.000 C 
ATOM      3  N   UNL     1       1.600   7.727  21.050  0.00  0.00    +0.000 N 
ATOM      4  H   UNL     1       1.796   7.108  21.823  0.00  0.00    +0.000 HD
ENDROOT
BRANCH   3   5
ATOM      5  C   UNL     1       0.796   8.856  21.293  0.00  0.00    +0.000 A 
ATOM      6  C   UNL     1       0.329   9.691  20.281  0.00  0.00    +0.000 A 
ATOM      7  C   UNL     1      -0.462  10.806  20.580  0.00  0.00    +0.000 A 
ATOM      8  C   UNL     1      -0.827  11.123  21.898  0.00  0.00    +0.000 A 
ATOM      9  C   UNL     1      -0.371  10.257  22.907  0.00  0.00    +0.000 A 
ATOM     10  C   UNL     1       0.428   9.141  22.609  0.00  0.00    +0.000 A 
BRANCH   8  11
ATOM     11  C   UNL     1      -1.650  12.320  22.191  0.00  0.00    +0.000 A 
ATOM     12  C   UNL     1      -2.744  12.674  21.383  0.00  0.00    +0.000 A 
ATOM     13  C   UNL     1      -3.510  13.814  21.646  0.00  0.00    +0.000 A 
ATOM     14  C   UNL     1      -3.224  14.622  22.744  0.00  0.00    +0.000 A 
ATOM     15  C   UNL     1      -2.121  14.319  23.535  0.00  0.00    +0.000 A 
ATOM     16  C   UNL     1      -1.354  13.174  23.268  0.00  0.00    +0.000 A 
BRANCH  14  17
ATOM     17  O   UNL     1      -4.037  15.702  22.891  0.00  0.00    +0.000 OA
BRANCH  17  18
ATOM     18  C   UNL     1      -5.024  15.690  23.912  0.00  0.00    +0.000 C 
ATOM     19  F   UNL     1      -6.145  16.382  23.619  0.00  0.00    +0.000 F 
ATOM     20  F   UNL     1      -5.365  14.411  24.180  0.00  0.00    +0.000 F 
ATOM     21  F   UNL     1      -4.490  16.227  25.033  0.00  0.00    +0.000 F 
ENDBRANCH  17  18
ENDBRANCH  14  17
ENDBRANCH   8  11
ENDBRANCH   3   5
BRANCH   2  22
ATOM     22  O   UNL     1       2.596   6.042  20.003  0.00  0.00    +0.000 OA
BRANCH  22  23
ATOM     23  C   UNL     1       1.618   5.038  20.315  0.00  0.00    +0.000 C 
BRANCH  23  24
ATOM     24  C   UNL     1       2.190   3.889  21.152  0.00  0.00    +0.000 C 
BRANCH  24  25
ATOM     25  C   UNL     1       2.780   2.795  20.242  0.00  0.00    +0.000 C 
ATOM     26  C   UNL     1       1.965   2.543  18.962  0.00  0.00    +0.000 C 
ATOM     27  C   UNL     1       2.468   3.231  17.699  0.00  0.00    +0.000 C 
ATOM     28  N   UNL     1       3.830   3.682  17.798  0.00  0.00    +0.000 N 
ATOM     29  C   UNL     1       4.587   4.253  16.821  0.00  0.00    +0.000 A 
ATOM     30  C   UNL     1       5.802   4.498  17.432  0.00  0.00    +0.000 A 
ATOM     31  N   UNL     1       5.793   4.064  18.751  0.00  0.00    +0.000 NA
ATOM     32  C   UNL     1       4.588   3.580  18.925  0.00  0.00    +0.000 A 
ATOM     33  O   UNL     1       4.184   3.000  20.049  0.00  0.00    +0.000 OA
BRANCH  30  34
ATOM     34  N   UNL     1       6.973   5.102  16.842  0.00  0.00    +0.000 N 
ATOM     35  O   UNL     1       8.021   4.432  16.873  0.00  0.00    +0.000 OA
ATOM     36  O   UNL     1       6.856   6.234  16.352  0.00  0.00    +0.000 OA
ENDBRANCH  30  34
ENDBRANCH  24  25
ENDBRANCH  23  24
ENDBRANCH  22  23
ENDBRANCH   2  22
TORSDOF 9
ENDMDL
MODEL 4
REMARK VINA RESULT:      -8.8      0.976      1.193
REMARK  Name = 
REMARK  9 active torsions:
REMARK  status: ('A' for Active; 'I' for Inactive)
REMARK    1  A    between atoms: C_2  and  O_21
REMARK    2  A    between atoms: N_3  and  C_4
REMARK    3  A    between atoms: C_7  and  C_8
REMARK    4  A    between atoms: C_11  and  O_12
REMARK    5  A    between atoms: O_12  and  C_13
REMARK    6  A    between atoms: O_21  and  C_22
REMARK    7  A    between atoms: C_22  and  C_23
REMARK    8  A    between atoms: C_23  and  C_24
REMARK    9  A    between atoms: C_29  and  N_30
REMARK                            x       y       z     vdW  Elec       q    Type
REMARK                         _______ _______ _______ _____ _____    ______ ____
ROOT
ATOM      1  O   UNL     1       2.239   8.338  18.800  0.00  0.00    +0.000 OA
ATOM      2  C   UNL     1       2.058   7.486  19.656  0.00  0.00    +0.000 C 
ATOM      3  N   UNL     1       1.440   7.625  20.872  0.00  0.00    +0.000 N 
ATOM      4  H   UNL     1       1.445   6.790  21.440  0.00  0.00    +0.000 HD
ENDROOT
BRANCH   3   5
ATOM      5  C   UNL     1       0.729   8.744  21.345  0.00  0.00    +0.000 A 
ATOM      6  C   UNL     1       0.418   9.842  20.546  0.00  0.00    +0.000 A 
ATOM      7  C   UNL     1      -0.286  10.932  21.070  0.00  0.00    +0.000 A 
ATOM      8  C   UNL     1      -0.715  10.963  22.407  0.00  0.00    +0.000 A 
ATOM      9  C   UNL     1      -0.417   9.837  23.194  0.00  0.00    +0.000 A 
ATOM     10  C   UNL     1       0.294   8.745  22.670  0.00  0.00    +0.000 A 
BRANCH   8  11
ATOM     11  C   UNL     1      -1.442  12.138  22.944  0.00  0.00    +0.000 A 
ATOM     12  C   UNL     1      -2.745  12.022  23.460  0.00  0.00    +0.000 A 
ATOM     13  C   UNL     1      -3.439  13.132  23.950  0.00  0.00    +0.000 A 
ATOM     14  C   UNL     1      -2.842  14.392  23.966  0.00  0.00    +0.000 A 
ATOM     15  C   UNL     1      -1.571  14.541  23.422  0.00  0.00    +0.000 A 
ATOM     16  C   UNL     1      -0.877  13.425  22.931  0.00  0.00    +0.000 A 
BRANCH  14  17
ATOM     17  O   UNL     1      -3.620  15.390  24.461  0.00  0.00    +0.000 OA
BRANCH  17  18
ATOM     18  C   UNL     1      -4.688  15.891  23.670  0.00  0.00    +0.000 C 
ATOM     19  F   UNL     1      -4.471  15.848  22.339  0.00  0.00    +0.000 F 
ATOM     20  F   UNL     1      -5.809  15.189  23.948  0.00  0.00    +0.000 F 
ATOM     21  F   UNL     1      -4.907  17.182  24.010  0.00  0.00    +0.000 F 
ENDBRANCH  17  18
ENDBRANCH  14  17
ENDBRANCH   8  11
ENDBRANCH   3   5
BRANCH   2  22
ATOM     22  O   UNL     1       2.408   6.179  19.494  0.00  0.00    +0.000 OA
BRANCH  22  23
ATOM     23  C   UNL     1       2.142   5.351  20.637  0.00  0.00    +0.000 C 
BRANCH  23  24
ATOM     24  C   UNL     1       1.248   4.151  20.307  0.00  0.00    +0.000 C 
BRANCH  24  25
ATOM     25  C   UNL     1       2.090   2.978  19.771  0.00  0.00    +0.000 C 
ATOM     26  C   UNL     1       1.773   2.599  18.313  0.00  0.00    +0.000 C 
ATOM     27  C   UNL     1       2.710   3.165  17.254  0.00  0.00    +0.000 C 
ATOM     28  N   UNL     1       3.962   3.631  17.789  0.00  0.00    +0.000 N 
ATOM     29  C   UNL     1       5.032   4.108  17.096  0.00  0.00    +0.000 A 
ATOM     30  C   UNL     1       5.959   4.417  18.073  0.00  0.00    +0.000 A 
ATOM     31  N   UNL     1       5.471   4.112  19.337  0.00  0.00    +0.000 NA
ATOM     32  C   UNL     1       4.268   3.641  19.116  0.00  0.00    +0.000 A 
ATOM     33  O   UNL     1       3.477   3.170  20.071  0.00  0.00    +0.000 OA
BRANCH  30  34
ATOM     34  N   UNL     1       7.280   4.968  17.885  0.00  0.00    +0.000 N 
ATOM     35  O   UNL     1       7.444   6.152  18.229  0.00  0.00    +0.000 OA
ATOM     36  O   UNL     1       8.150   4.232  17.398  0.00  0.00    +0.000 OA
ENDBRANCH  30  34
ENDBRANCH  24  25
ENDBRANCH  23  24
ENDBRANCH  22  23
ENDBRANCH   2  22
TORSDOF 9
ENDMDL
MODEL 5
REMARK VINA RESULT:      -8.7      6.712     12.009
REMARK  Name = 
REMARK  9 active torsions:
REMARK  status: ('A' for Active; 'I' for Inactive)
REMARK    1  A    between atoms: C_2  and  O_21
REMARK    2  A    between atoms: N_3  and  C_4
REMARK    3  A    between atoms: C_7  and  C_8
REMARK    4  A    between atoms: C_11  and  O_12
REMARK    5  A    between atoms: O_12  and  C_13
REMARK    6  A    between atoms: O_21  and  C_22
REMARK    7  A    between atoms: C_22  and  C_23
REMARK    8  A    between atoms: C_23  and  C_24
REMARK    9  A    between atoms: C_29  and  N_30
REMARK                            x       y       z     vdW  Elec       q    Type
REMARK                         _______ _______ _______ _____ _____    ______ ____
ROOT
ATOM      1  O   UNL     1       2.101   9.453  23.066  0.00  0.00    +0.000 OA
ATOM      2  C   UNL     1       0.965   9.349  22.630  0.00  0.00    +0.000 C 
ATOM      3  N   UNL     1       0.558   8.775  21.454  0.00  0.00    +0.000 N 
ATOM      4  H   UNL     1      -0.433   8.844  21.278  0.00  0.00    +0.000 HD
ENDROOT
BRANCH   3   5
ATOM      5  C   UNL     1       1.342   8.030  20.553  0.00  0.00    +0.000 A 
ATOM      6  C   UNL     1       1.756   6.724  20.802  0.00  0.00    +0.000 A 
ATOM      7  C   UNL     1       2.541   6.032  19.873  0.00  0.00    +0.000 A 
ATOM      8  C   UNL     1       2.933   6.613  18.655  0.00  0.00    +0.000 A 
ATOM      9  C   UNL     1       2.487   7.922  18.406  0.00  0.00    +0.000 A 
ATOM     10  C   UNL     1       1.703   8.620  19.340  0.00  0.00    +0.000 A 
BRANCH   8  11
ATOM     11  C   UNL     1       3.781   5.867  17.696  0.00  0.00    +0.000 A 
ATOM     12  C   UNL     1       3.569   4.501  17.438  0.00  0.00    +0.000 A 
ATOM     13  C   UNL     1       4.380   3.790  16.548  0.00  0.00    +0.000 A 
ATOM     14  C   UNL     1       5.413   4.429  15.865  0.00  0.00    +0.000 A 
ATOM     15  C   UNL     1       5.671   5.769  16.134  0.00  0.00    +0.000 A 
ATOM     16  C   UNL     1       4.855   6.480  17.028  0.00  0.00    +0.000 A 
BRANCH  14  17
ATOM     17  O   UNL     1       6.132   3.631  15.032  0.00  0.00    +0.000 OA
BRANCH  17  18
ATOM     18  C   UNL     1       6.153   3.923  13.642  0.00  0.00    +0.000 C 
ATOM     19  F   UNL     1       6.956   4.950  13.295  0.00  0.00    +0.000 F 
ATOM     20  F   UNL     1       6.547   2.821  12.967  0.00  0.00    +0.000 F 
ATOM     21  F   UNL     1       4.896   4.230  13.248  0.00  0.00    +0.000 F 
ENDBRANCH  17  18
ENDBRANCH  14  17
ENDBRANCH   8  11
ENDBRANCH   3   5
BRANCH   2  22
ATOM     22  O   UNL     1      -0.138   9.755  23.320  0.00  0.00    +0.000 OA
BRANCH  22  23
ATOM     23  C   UNL     1      -1.061  10.538  22.547  0.00  0.00    +0.000 C 
BRANCH  23  24
ATOM     24  C   UNL     1      -1.056  12.020  22.934  0.00  0.00    +0.000 C 
BRANCH  24  25
ATOM     25  C   UNL     1      -0.994  12.910  21.678  0.00  0.00    +0.000 C 
ATOM     26  C   UNL     1      -0.161  12.313  20.531  0.00  0.00    +0.000 C 
ATOM     27  C   UNL     1      -0.941  11.598  19.435  0.00  0.00    +0.000 C 
ATOM     28  N   UNL     1      -2.342  11.927  19.424  0.00  0.00    +0.000 N 
ATOM     29  C   UNL     1      -3.280  11.522  18.525  0.00  0.00    +0.000 A 
ATOM     30  C   UNL     1      -4.450  12.108  18.969  0.00  0.00    +0.000 A 
ATOM     31  N   UNL     1      -4.224  12.874  20.104  0.00  0.00    +0.000 NA
ATOM     32  C   UNL     1      -2.943  12.736  20.340  0.00  0.00    +0.000 A 
ATOM     33  O   UNL     1      -2.303  13.367  21.316  0.00  0.00    +0.000 OA
BRANCH  30  34
ATOM     34  N   UNL     1      -5.763  12.000  18.377  0.00  0.00    +0.000 N 
ATOM     35  O   UNL     1      -6.250  10.857  18.309  0.00  0.00    +0.000 OA
ATOM     36  O   UNL     1      -6.308  13.040  17.983  0.00  0.00    +0.000 OA
ENDBRANCH  30  34
ENDBRANCH  24  25
ENDBRANCH  23  24
ENDBRANCH  22  23
ENDBRANCH   2  22
TORSDOF 9
ENDMDL
MODEL 6
REMARK VINA RESULT:      -8.3      0.694      1.292
REMARK  Name = 
REMARK  9 active torsions:
REMARK  status: ('A' for Active; 'I' for Inactive)
REMARK    1  A    between atoms: C_2  and  O_21
REMARK    2  A    between atoms: N_3  and  C_4
REMARK    3  A    between atoms: C_7  and  C_8
REMARK    4  A    between atoms: C_11  and  O_12
REMARK    5  A    between atoms: O_12  and  C_13
REMARK    6  A    between atoms: O_21  and  C_22
REMARK    7  A    between atoms: C_22  and  C_23
REMARK    8  A    between atoms: C_23  and  C_24
REMARK    9  A    between atoms: C_29  and  N_30
REMARK                            x       y       z     vdW  Elec       q    Type
REMARK                         _______ _______ _______ _____ _____    ______ ____
ROOT
ATOM      1  O   UNL     1       1.806   8.395  18.274  0.00  0.00    +0.000 OA
ATOM      2  C   UNL     1       2.020   7.723  19.270  0.00  0.00    +0.000 C 
ATOM      3  N   UNL     1       1.757   8.039  20.578  0.00  0.00    +0.000 N 
ATOM      4  H   UNL     1       2.062   7.345  21.244  0.00  0.00    +0.000 HD
ENDROOT
BRANCH   3   5
ATOM      5  C   UNL     1       1.032   9.146  21.058  0.00  0.00    +0.000 A 
ATOM      6  C   UNL     1       0.342   9.138  22.268  0.00  0.00    +0.000 A 
ATOM      7  C   UNL     1      -0.369  10.265  22.694  0.00  0.00    +0.000 A 
ATOM      8  C   UNL     1      -0.410  11.446  21.936  0.00  0.00    +0.000 A 
ATOM      9  C   UNL     1       0.312  11.449  20.730  0.00  0.00    +0.000 A 
ATOM     10  C   UNL     1       1.022  10.316  20.298  0.00  0.00    +0.000 A 
BRANCH   8  11
ATOM     11  C   UNL     1      -1.186  12.620  22.399  0.00  0.00    +0.000 A 
ATOM     12  C   UNL     1      -2.584  12.565  22.544  0.00  0.00    +0.000 A 
ATOM     13  C   UNL     1      -3.320  13.677  22.963  0.00  0.00    +0.000 A 
ATOM     14  C   UNL     1      -2.680  14.874  23.278  0.00  0.00    +0.000 A 
ATOM     15  C   UNL     1      -1.304  14.968  23.102  0.00  0.00    +0.000 A 
ATOM     16  C   UNL     1      -0.567  13.850  22.681  0.00  0.00    +0.000 A 
BRANCH  14  17
ATOM     17  O   UNL     1      -3.505  15.881  23.668  0.00  0.00    +0.000 OA
BRANCH  17  18
ATOM     18  C   UNL     1      -3.458  16.331  25.015  0.00  0.00    +0.000 C 
ATOM     19  F   UNL     1      -4.635  16.776  25.501  0.00  0.00    +0.000 F 
ATOM     20  F   UNL     1      -3.021  15.323  25.800  0.00  0.00    +0.000 F 
ATOM     21  F   UNL     1      -2.567  17.345  25.099  0.00  0.00    +0.000 F 
ENDBRANCH  17  18
ENDBRANCH  14  17
ENDBRANCH   8  11
ENDBRANCH   3   5
BRANCH   2  22
ATOM     22  O   UNL     1       2.523   6.457  19.222  0.00  0.00    +0.000 OA
BRANCH  22  23
ATOM     23  C   UNL     1       2.413   5.732  20.458  0.00  0.00    +0.000 C 
BRANCH  23  24
ATOM     24  C   UNL     1       1.433   4.558  20.374  0.00  0.00    +0.000 C 
BRANCH  24  25
ATOM     25  C   UNL     1       2.103   3.335  19.719  0.00  0.00    +0.000 C 
ATOM     26  C   UNL     1       1.728   3.138  18.240  0.00  0.00    +0.000 C 
ATOM     27  C   UNL     1       2.727   3.666  17.218  0.00  0.00    +0.000 C 
ATOM     28  N   UNL     1       4.034   3.907  17.768  0.00  0.00    +0.000 N 
ATOM     29  C   UNL     1       5.154   4.297  17.101  0.00  0.00    +0.000 A 
ATOM     30  C   UNL     1       6.121   4.387  18.085  0.00  0.00    +0.000 A 
ATOM     31  N   UNL     1       5.604   4.037  19.325  0.00  0.00    +0.000 NA
ATOM     32  C   UNL     1       4.348   3.755  19.085  0.00  0.00    +0.000 A 
ATOM     33  O   UNL     1       3.505   3.310  20.009  0.00  0.00    +0.000 OA
BRANCH  30  34
ATOM     34  N   UNL     1       7.504   4.769  17.921  0.00  0.00    +0.000 N 
ATOM     35  O   UNL     1       7.951   5.603  18.729  0.00  0.00    +0.000 OA
ATOM     36  O   UNL     1       8.144   4.246  16.998  0.00  0.00    +0.000 OA
ENDBRANCH  30  34
ENDBRANCH  24  25
ENDBRANCH  23  24
ENDBRANCH  22  23
ENDBRANCH   2  22
TORSDOF 9
ENDMDL
MODEL 7
REMARK VINA RESULT:      -8.3      6.446      9.639
REMARK  Name = 
REMARK  9 active torsions:
REMARK  status: ('A' for Active; 'I' for Inactive)
REMARK    1  A    between atoms: C_2  and  O_21
REMARK    2  A    between atoms: N_3  and  C_4
REMARK    3  A    between atoms: C_7  and  C_8
REMARK    4  A    between atoms: C_11  and  O_12
REMARK    5  A    between atoms: O_12  and  C_13
REMARK    6  A    between atoms: O_21  and  C_22
REMARK    7  A    between atoms: C_22  and  C_23
REMARK    8  A    between atoms: C_23  and  C_24
REMARK    9  A    between atoms: C_29  and  N_30
REMARK                            x       y       z     vdW  Elec       q    Type
REMARK                         _______ _______ _______ _____ _____    ______ ____
ROOT
ATOM      1  O   UNL     1       7.890   4.362  15.897  0.00  0.00    +0.000 OA
ATOM      2  C   UNL     1       6.776   4.520  16.373  0.00  0.00    +0.000 C 
ATOM      3  N   UNL     1       6.361   5.483  17.255  0.00  0.00    +0.000 N 
ATOM      4  H   UNL     1       5.400   5.393  17.550  0.00  0.00    +0.000 HD
ENDROOT
BRANCH   3   5
ATOM      5  C   UNL     1       7.084   6.610  17.691  0.00  0.00    +0.000 A 
ATOM      6  C   UNL     1       8.017   6.564  18.724  0.00  0.00    +0.000 A 
ATOM      7  C   UNL     1       8.702   7.716  19.122  0.00  0.00    +0.000 A 
ATOM      8  C   UNL     1       8.492   8.956  18.496  0.00  0.00    +0.000 A 
ATOM      9  C   UNL     1       7.568   8.983  17.438  0.00  0.00    +0.000 A 
ATOM     10  C   UNL     1       6.875   7.827  17.041  0.00  0.00    +0.000 A 
BRANCH   8  11
ATOM     11  C   UNL     1       9.217  10.167  18.949  0.00  0.00    +0.000 A 
ATOM     12  C   UNL     1       9.929  10.977  18.046  0.00  0.00    +0.000 A 
ATOM     13  C   UNL     1      10.629  12.109  18.474  0.00  0.00    +0.000 A 
ATOM     14  C   UNL     1      10.617  12.486  19.815  0.00  0.00    +0.000 A 
ATOM     15  C   UNL     1       9.956  11.679  20.735  0.00  0.00    +0.000 A 
ATOM     16  C   UNL     1       9.255  10.542  20.303  0.00  0.00    +0.000 A 
BRANCH  14  17
ATOM     17  O   UNL     1      11.338  13.601  20.106  0.00  0.00    +0.000 OA
BRANCH  17  18
ATOM     18  C   UNL     1      10.778  14.877  19.830  0.00  0.00    +0.000 C 
ATOM     19  F   UNL     1       9.439  14.881  19.669  0.00  0.00    +0.000 F 
ATOM     20  F   UNL     1      11.094  15.723  20.835  0.00  0.00    +0.000 F 
ATOM     21  F   UNL     1      11.332  15.352  18.691  0.00  0.00    +0.000 F 
ENDBRANCH  17  18
ENDBRANCH  14  17
ENDBRANCH   8  11
ENDBRANCH   3   5
BRANCH   2  22
ATOM     22  O   UNL     1       5.703   3.755  16.028  0.00  0.00    +0.000 OA
BRANCH  22  23
ATOM     23  C   UNL     1       4.510   4.042  16.776  0.00  0.00    +0.000 C 
BRANCH  23  24
ATOM     24  C   UNL     1       3.945   2.810  17.491  0.00  0.00    +0.000 C 
BRANCH  24  25
ATOM     25  C   UNL     1       2.446   2.996  17.792  0.00  0.00    +0.000 C 
ATOM     26  C   UNL     1       1.976   2.291  19.076  0.00  0.00    +0.000 C 
ATOM     27  C   UNL     1       1.871   3.163  20.321  0.00  0.00    +0.000 C 
ATOM     28  N   UNL     1       1.841   4.572  20.030  0.00  0.00    +0.000 N 
ATOM     29  C   UNL     1       1.670   5.595  20.911  0.00  0.00    +0.000 A 
ATOM     30  C   UNL     1       1.725   6.731  20.126  0.00  0.00    +0.000 A 
ATOM     31  N   UNL     1       1.903   6.405  18.789  0.00  0.00    +0.000 NA
ATOM     32  C   UNL     1       1.966   5.096  18.780  0.00  0.00    +0.000 A 
ATOM     33  O   UNL     1       2.072   4.373  17.672  0.00  0.00    +0.000 OA
BRANCH  30  34
ATOM     34  N   UNL     1       1.604   8.103  20.561  0.00  0.00    +0.000 N 
ATOM     35  O   UNL     1       1.621   8.301  21.789  0.00  0.00    +0.000 OA
ATOM     36  O   UNL     1       1.492   8.979  19.692  0.00  0.00    +0.000 OA
ENDBRANCH  30  34
ENDBRANCH  24  25
ENDBRANCH  23  24
ENDBRANCH  22  23
ENDBRANCH   2  22
TORSDOF 9
ENDMDL
MODEL 8
REMARK VINA RESULT:      -8.3      6.453     11.658
REMARK  Name = 
REMARK  9 active torsions:
REMARK  status: ('A' for Active; 'I' for Inactive)
REMARK    1  A    between atoms: C_2  and  O_21
REMARK    2  A    between atoms: N_3  and  C_4
REMARK    3  A    between atoms: C_7  and  C_8
REMARK    4  A    between atoms: C_11  and  O_12
REMARK    5  A    between atoms: O_12  and  C_13
REMARK    6  A    between atoms: O_21  and  C_22
REMARK    7  A    between atoms: C_22  and  C_23
REMARK    8  A    between atoms: C_23  and  C_24
REMARK    9  A    between atoms: C_29  and  N_30
REMARK                            x       y       z     vdW  Elec       q    Type
REMARK                         _______ _______ _______ _____ _____    ______ ____
ROOT
ATOM      1  O   UNL     1       0.359   9.887  23.725  0.00  0.00    +0.000 OA
ATOM      2  C   UNL     1      -0.470  10.275  22.917  0.00  0.00    +0.000 C 
ATOM      3  N   UNL     1      -0.477  10.097  21.558  0.00  0.00    +0.000 N 
ATOM      4  H   UNL     1      -1.245  10.547  21.082  0.00  0.00    +0.000 HD
ENDROOT
BRANCH   3   5
ATOM      5  C   UNL     1       0.389   9.286  20.800  0.00  0.00    +0.000 A 
ATOM      6  C   UNL     1       0.884   8.067  21.254  0.00  0.00    +0.000 A 
ATOM      7  C   UNL     1       1.748   7.305  20.461  0.00  0.00    +0.000 A 
ATOM      8  C   UNL     1       2.142   7.725  19.179  0.00  0.00    +0.000 A 
ATOM      9  C   UNL     1       1.614   8.945  18.723  0.00  0.00    +0.000 A 
ATOM     10  C   UNL     1       0.750   9.713  19.521  0.00  0.00    +0.000 A 
BRANCH   8  11
ATOM     11  C   UNL     1       3.074   6.909  18.366  0.00  0.00    +0.000 A 
ATOM     12  C   UNL     1       3.308   5.553  18.657  0.00  0.00    +0.000 A 
ATOM     13  C   UNL     1       4.201   4.787  17.902  0.00  0.00    +0.000 A 
ATOM     14  C   UNL     1       4.870   5.344  16.814  0.00  0.00    +0.000 A 
ATOM     15  C   UNL     1       4.690   6.693  16.532  0.00  0.00    +0.000 A 
ATOM     16  C   UNL     1       3.793   7.460  17.291  0.00  0.00    +0.000 A 
BRANCH  14  17
ATOM     17  O   UNL     1       5.715   4.499  16.165  0.00  0.00    +0.000 OA
BRANCH  17  18
ATOM     18  C   UNL     1       7.100   4.807  16.119  0.00  0.00    +0.000 C 
ATOM     19  F   UNL     1       7.397   6.103  16.344  0.00  0.00    +0.000 F 
ATOM     20  F   UNL     1       7.749   4.051  17.031  0.00  0.00    +0.000 F 
ATOM     21  F   UNL     1       7.573   4.483  14.893  0.00  0.00    +0.000 F 
ENDBRANCH  17  18
ENDBRANCH  14  17
ENDBRANCH   8  11
ENDBRANCH   3   5
BRANCH   2  22
ATOM     22  O   UNL     1      -1.612  10.926  23.275  0.00  0.00    +0.000 OA
BRANCH  22  23
ATOM     23  C   UNL     1      -1.444  12.336  23.493  0.00  0.00    +0.000 C 
BRANCH  23  24
ATOM     24  C   UNL     1      -2.758  13.116  23.386  0.00  0.00    +0.000 C 
BRANCH  24  25
ATOM     25  C   UNL     1      -2.763  14.003  22.127  0.00  0.00    +0.000 C 
ATOM     26  C   UNL     1      -1.451  13.956  21.325  0.00  0.00    +0.000 C 
ATOM     27  C   UNL     1      -1.435  13.025  20.119  0.00  0.00    +0.000 C 
ATOM     28  N   UNL     1      -2.748  12.638  19.678  0.00  0.00    +0.000 N 
ATOM     29  C   UNL     1      -3.068  11.890  18.587  0.00  0.00    +0.000 A 
ATOM     30  C   UNL     1      -4.447  11.811  18.623  0.00  0.00    +0.000 A 
ATOM     31  N   UNL     1      -4.959  12.517  19.703  0.00  0.00    +0.000 NA
ATOM     32  C   UNL     1      -3.901  12.998  20.307  0.00  0.00    +0.000 A 
ATOM     33  O   UNL     1      -3.959  13.796  21.366  0.00  0.00    +0.000 OA
BRANCH  30  34
ATOM     34  N   UNL     1      -5.309  11.122  17.691  0.00  0.00    +0.000 N 
ATOM     35  O   UNL     1      -4.914  11.052  16.514  0.00  0.00    +0.000 OA
ATOM     36  O   UNL     1      -6.372  10.653  18.123  0.00  0.00    +0.000 OA
ENDBRANCH  30  34
ENDBRANCH  24  25
ENDBRANCH  23  24
ENDBRANCH  22  23
ENDBRANCH   2  22
TORSDOF 9
ENDMDL
MODEL 9
REMARK VINA RESULT:      -8.2      6.841     12.592
REMARK  Name = 
REMARK  9 active torsions:
REMARK  status: ('A' for Active; 'I' for Inactive)
REMARK    1  A    between atoms: C_2  and  O_21
REMARK    2  A    between atoms: N_3  and  C_4
REMARK    3  A    between atoms: C_7  and  C_8
REMARK    4  A    between atoms: C_11  and  O_12
REMARK    5  A    between atoms: O_12  and  C_13
REMARK    6  A    between atoms: O_21  and  C_22
REMARK    7  A    between atoms: C_22  and  C_23
REMARK    8  A    between atoms: C_23  and  C_24
REMARK    9  A    between atoms: C_29  and  N_30
REMARK                            x       y       z     vdW  Elec       q    Type
REMARK                         _______ _______ _______ _____ _____    ______ ____
ROOT
ATOM      1  O   UNL     1       1.883   9.334  22.569  0.00  0.00    +0.000 OA
ATOM      2  C   UNL     1       0.922   9.620  21.873  0.00  0.00    +0.000 C 
ATOM      3  N   UNL     1       0.739   9.370  20.537  0.00  0.00    +0.000 N 
ATOM      4  H   UNL     1      -0.120   9.740  20.158  0.00  0.00    +0.000 HD
ENDROOT
BRANCH   3   5
ATOM      5  C   UNL     1       1.550   8.584  19.698  0.00  0.00    +0.000 A 
ATOM      6  C   UNL     1       2.009   9.018  18.457  0.00  0.00    +0.000 A 
ATOM      7  C   UNL     1       2.807   8.191  17.659  0.00  0.00    +0.000 A 
ATOM      8  C   UNL     1       3.188   6.904  18.074  0.00  0.00    +0.000 A 
ATOM      9  C   UNL     1       2.739   6.489  19.340  0.00  0.00    +0.000 A 
ATOM     10  C   UNL     1       1.934   7.317  20.139  0.00  0.00    +0.000 A 
BRANCH   8  11
ATOM     11  C   UNL     1       4.018   6.040  17.203  0.00  0.00    +0.000 A 
ATOM     12  C   UNL     1       4.884   6.585  16.239  0.00  0.00    +0.000 A 
ATOM     13  C   UNL     1       5.654   5.771  15.403  0.00  0.00    +0.000 A 
ATOM     14  C   UNL     1       5.604   4.383  15.522  0.00  0.00    +0.000 A 
ATOM     15  C   UNL     1       4.724   3.818  16.437  0.00  0.00    +0.000 A 
ATOM     16  C   UNL     1       3.952   4.637  17.275  0.00  0.00    +0.000 A 
BRANCH  14  17
ATOM     17  O   UNL     1       6.395   3.703  14.650  0.00  0.00    +0.000 OA
BRANCH  17  18
ATOM     18  C   UNL     1       6.079   3.730  13.265  0.00  0.00    +0.000 C 
ATOM     19  F   UNL     1       4.812   4.097  12.984  0.00  0.00    +0.000 F 
ATOM     20  F   UNL     1       6.923   4.578  12.638  0.00  0.00    +0.000 F 
ATOM     21  F   UNL     1       6.272   2.492  12.755  0.00  0.00    +0.000 F 
ENDBRANCH  17  18
ENDBRANCH  14  17
ENDBRANCH   8  11
ENDBRANCH   3   5
BRANCH   2  22
ATOM     22  O   UNL     1      -0.206  10.207  22.363  0.00  0.00    +0.000 OA
BRANCH  22  23
ATOM     23  C   UNL     1      -0.878  11.066  21.428  0.00  0.00    +0.000 C 
BRANCH  23  24
ATOM     24  C   UNL     1      -0.499  12.541  21.595  0.00  0.00    +0.000 C 
BRANCH  24  25
ATOM     25  C   UNL     1      -1.244  13.414  20.567  0.00  0.00    +0.000 C 
ATOM     26  C   UNL     1      -1.277  12.817  19.150  0.00  0.00    +0.000 C 
ATOM     27  C   UNL     1      -2.549  12.072  18.765  0.00  0.00    +0.000 C 
ATOM     28  N   UNL     1      -3.667  12.373  19.617  0.00  0.00    +0.000 N 
ATOM     29  C   UNL     1      -4.950  11.937  19.485  0.00  0.00    +0.000 A 
ATOM     30  C   UNL     1      -5.614  12.507  20.555  0.00  0.00    +0.000 A 
ATOM     31  N   UNL     1      -4.756  13.293  21.312  0.00  0.00    +0.000 NA
ATOM     32  C   UNL     1      -3.598  13.183  20.710  0.00  0.00    +0.000 A 
ATOM     33  O   UNL     1      -2.508  13.840  21.087  0.00  0.00    +0.000 OA
BRANCH  30  34
ATOM     34  N   UNL     1      -7.010  12.365  20.895  0.00  0.00    +0.000 N 
ATOM     35  O   UNL     1      -7.758  13.308  20.581  0.00  0.00    +0.000 OA
ATOM     36  O   UNL     1      -7.364  11.326  21.470  0.00  0.00    +0.000 OA
ENDBRANCH  30  34
ENDBRANCH  24  25
ENDBRANCH  23  24
ENDBRANCH  22  23
ENDBRANCH   2  22
TORSDOF 9
ENDMDL
