MODEL 1
REMARK VINA RESULT:      -7.3      0.000      0.000
REMARK  Name = 
REMARK  9 active torsions:
REMARK  status: ('A' for Active; 'I' for Inactive)
REMARK    1  A    between atoms: C_1  and  C_2
REMARK    2  A    between atoms: C_2  and  C_3
REMARK    3  A    between atoms: C_2  and  C_4
REMARK    4  A    between atoms: C_2  and  C_5
REMARK    5  A    between atoms: C_5  and  C_6
REMARK    6  A    between atoms: C_6  and  N_7
REMARK    7  A    between atoms: N_7  and  C_8
REMARK    8  A    between atoms: C_14  and  C_15
REMARK    9  A    between atoms: C_18  and  C_19
REMARK                            x       y       z     vdW  Elec       q    Type
REMARK                         _______ _______ _______ _____ _____    ______ ____
ROOT
ATOM      1  C   UNL     1       5.912   4.648  16.440  0.00  0.00    +0.000 C 
ATOM      2  C   UNL     1       6.925   4.704  17.633  0.00  0.00    +0.000 C 
ATOM      3  O   UNL     1       8.080   4.518  17.913  0.00  0.00    +0.000 OA
ATOM      4  C   UNL     1       5.806   5.115  18.522  0.00  0.00    +0.000 C 
ATOM      5  O   UNL     1       5.733   5.128  19.729  0.00  0.00    +0.000 OA
ATOM      6  C   UNL     1       4.937   5.395  17.364  0.00  0.00    +0.000 C 
ATOM      7  C   UNL     1       3.749   6.002  17.241  0.00  0.00    +0.000 C 
ENDROOT
BRANCH   7   8
ATOM      8  C   UNL     1       2.979   6.672  18.311  0.00  0.00    +0.000 A 
ATOM      9  C   UNL     1       2.587   8.013  18.217  0.00  0.00    +0.000 A 
ATOM     10  C   UNL     1       1.899   8.644  19.261  0.00  0.00    +0.000 A 
ATOM     11  C   UNL     1       1.562   7.926  20.408  0.00  0.00    +0.000 A 
ATOM     12  C   UNL     1       1.905   6.573  20.493  0.00  0.00    +0.000 A 
ATOM     13  C   UNL     1       2.605   5.951  19.453  0.00  0.00    +0.000 A 
BRANCH  11  14
ATOM     14  C   UNL     1       0.879   8.576  21.487  0.00  0.00    +0.000 C 
ATOM     15  N   UNL     1       0.329   9.104  22.362  0.00  0.00    +0.000 NA
ENDBRANCH  11  14
ENDBRANCH   7   8
BRANCH   1  16
ATOM     16  N   UNL     1       6.303   5.443  15.249  0.00  0.00    +0.000 NA
ATOM     17  H   UNL     1       5.520   5.952  14.835  0.00  0.00    +0.000 HD
BRANCH  16  18
ATOM     18  C   UNL     1       6.840   4.506  14.246  0.00  0.00    +0.000 C 
BRANCH  18  19
ATOM     19  C   UNL     1       5.838   3.461  13.720  0.00  0.00    +0.000 C 
BRANCH  19  21
ATOM     20  C   UNL     1       4.533   3.637  11.529  0.00  0.00    +0.000 C 
ATOM     21  C   UNL     1       5.891   3.286  12.164  0.00  0.00    +0.000 C 
ATOM     22  C   UNL     1       6.273   1.845  11.772  0.00  0.00    +0.000 C 
ATOM     23  C   UNL     1       6.951   4.230  11.567  0.00  0.00    +0.000 C 
ENDBRANCH  19  21
ENDBRANCH  18  19
ENDBRANCH  16  18
ENDBRANCH   1  16
TORSDOF 6
ENDMDL
MODEL 2
REMARK VINA RESULT:      -7.3      2.482      3.659
REMARK  Name = 
REMARK  9 active torsions:
REMARK  status: ('A' for Active; 'I' for Inactive)
REMARK    1  A    between atoms: C_1  and  C_2
REMARK    2  A    between atoms: C_2  and  C_3
REMARK    3  A    between atoms: C_2  and  C_4
REMARK    4  A    between atoms: C_2  and  C_5
REMARK    5  A    between atoms: C_5  and  C_6
REMARK    6  A    between atoms: C_6  and  N_7
REMARK    7  A    between atoms: N_7  and  C_8
REMARK    8  A    between atoms: C_14  and  C_15
REMARK    9  A    between atoms: C_18  and  C_19
REMARK                            x       y       z     vdW  Elec       q    Type
REMARK                         _______ _______ _______ _____ _____    ______ ____
ROOT
ATOM      1  C   UNL     1       3.991   3.797  18.821  0.00  0.00    +0.000 C 
ATOM      2  C   UNL     1       3.101   3.249  19.988  0.00  0.00    +0.000 C 
ATOM      3  O   UNL     1       2.994   2.326  20.753  0.00  0.00    +0.000 OA
ATOM      4  C   UNL     1       2.221   4.438  19.833  0.00  0.00    +0.000 C 
ATOM      5  O   UNL     1       1.103   4.640  20.248  0.00  0.00    +0.000 OA
ATOM      6  C   UNL     1       3.222   5.117  18.990  0.00  0.00    +0.000 C 
ATOM      7  C   UNL     1       3.327   6.371  18.530  0.00  0.00    +0.000 C 
ENDROOT
BRANCH   7   8
ATOM      8  C   UNL     1       2.435   7.509  18.843  0.00  0.00    +0.000 A 
ATOM      9  C   UNL     1       1.965   7.752  20.139  0.00  0.00    +0.000 A 
ATOM     10  C   UNL     1       1.085   8.807  20.408  0.00  0.00    +0.000 A 
ATOM     11  C   UNL     1       0.685   9.660  19.379  0.00  0.00    +0.000 A 
ATOM     12  C   UNL     1       1.186   9.458  18.089  0.00  0.00    +0.000 A 
ATOM     13  C   UNL     1       2.055   8.394  17.824  0.00  0.00    +0.000 A 
BRANCH  11  14
ATOM     14  C   UNL     1      -0.235  10.726  19.648  0.00  0.00    +0.000 C 
ATOM     15  N   UNL     1      -0.980  11.588  19.870  0.00  0.00    +0.000 NA
ENDBRANCH  11  14
ENDBRANCH   7   8
BRANCH   1  16
ATOM     16  N   UNL     1       5.435   3.925  19.141  0.00  0.00    +0.000 NA
ATOM     17  H   UNL     1       5.622   4.621  19.865  0.00  0.00    +0.000 HD
BRANCH  16  18
ATOM     18  C   UNL     1       6.130   4.329  17.906  0.00  0.00    +0.000 C 
BRANCH  18  19
ATOM     19  C   UNL     1       5.416   3.947  16.595  0.00  0.00    +0.000 C 
BRANCH  19  21
ATOM     20  C   UNL     1       7.402   4.986  15.366  0.00  0.00    +0.000 C 
ATOM     21  C   UNL     1       5.873   4.810  15.371  0.00  0.00    +0.000 C 
ATOM     22  C   UNL     1       5.205   6.200  15.382  0.00  0.00    +0.000 C 
ATOM     23  C   UNL     1       5.472   4.109  14.059  0.00  0.00    +0.000 C 
ENDBRANCH  19  21
ENDBRANCH  18  19
ENDBRANCH  16  18
ENDBRANCH   1  16
TORSDOF 6
ENDMDL
MODEL 3
REMARK VINA RESULT:      -7.2      2.821      3.389
REMARK  Name = 
REMARK  9 active torsions:
REMARK  status: ('A' for Active; 'I' for Inactive)
REMARK    1  A    between atoms: C_1  and  C_2
REMARK    2  A    between atoms: C_2  and  C_3
REMARK    3  A    between atoms: C_2  and  C_4
REMARK    4  A    between atoms: C_2  and  C_5
REMARK    5  A    between atoms: C_5  and  C_6
REMARK    6  A    between atoms: C_6  and  N_7
REMARK    7  A    between atoms: N_7  and  C_8
REMARK    8  A    between atoms: C_14  and  C_15
REMARK    9  A    between atoms: C_18  and  C_19
REMARK                            x       y       z     vdW  Elec       q    Type
REMARK                         _______ _______ _______ _____ _____    ______ ____
ROOT
ATOM      1  C   UNL     1       6.913   5.209  16.111  0.00  0.00    +0.000 C 
ATOM      2  C   UNL     1       7.235   6.388  17.091  0.00  0.00    +0.000 C 
ATOM      3  O   UNL     1       7.800   7.448  17.154  0.00  0.00    +0.000 OA
ATOM      4  C   UNL     1       6.509   5.654  18.162  0.00  0.00    +0.000 C 
ATOM      5  O   UNL     1       6.514   5.817  19.360  0.00  0.00    +0.000 OA
ATOM      6  C   UNL     1       5.919   4.727  17.180  0.00  0.00    +0.000 C 
ATOM      7  C   UNL     1       4.951   3.804  17.264  0.00  0.00    +0.000 C 
ENDROOT
BRANCH   7   8
ATOM      8  C   UNL     1       4.102   3.513  18.439  0.00  0.00    +0.000 A 
ATOM      9  C   UNL     1       4.587   2.821  19.555  0.00  0.00    +0.000 A 
ATOM     10  C   UNL     1       3.756   2.515  20.639  0.00  0.00    +0.000 A 
ATOM     11  C   UNL     1       2.424   2.928  20.635  0.00  0.00    +0.000 A 
ATOM     12  C   UNL     1       1.939   3.663  19.547  0.00  0.00    +0.000 A 
ATOM     13  C   UNL     1       2.771   3.954  18.461  0.00  0.00    +0.000 A 
BRANCH  11  14
ATOM     14  C   UNL     1       1.565   2.595  21.732  0.00  0.00    +0.000 C 
ATOM     15  N   UNL     1       0.867   2.326  22.620  0.00  0.00    +0.000 NA
ENDBRANCH  11  14
ENDBRANCH   7   8
BRANCH   1  16
ATOM     16  N   UNL     1       6.250   5.611  14.845  0.00  0.00    +0.000 NA
ATOM     17  H   UNL     1       5.232   5.541  14.889  0.00  0.00    +0.000 HD
BRANCH  16  18
ATOM     18  C   UNL     1       6.740   4.715  13.783  0.00  0.00    +0.000 C 
BRANCH  18  19
ATOM     19  C   UNL     1       5.805   3.541  13.431  0.00  0.00    +0.000 C 
BRANCH  19  21
ATOM     20  C   UNL     1       6.055   1.710  11.665  0.00  0.00    +0.000 C 
ATOM     21  C   UNL     1       5.786   3.207  11.901  0.00  0.00    +0.000 C 
ATOM     22  C   UNL     1       6.834   4.034  11.131  0.00  0.00    +0.000 C 
ATOM     23  C   UNL     1       4.402   3.539  11.311  0.00  0.00    +0.000 C 
ENDBRANCH  19  21
ENDBRANCH  18  19
ENDBRANCH  16  18
ENDBRANCH   1  16
TORSDOF 6
ENDMDL
MODEL 4
REMARK VINA RESULT:      -7.2      0.548      1.095
REMARK  Name = 
REMARK  9 active torsions:
REMARK  status: ('A' for Active; 'I' for Inactive)
REMARK    1  A    between atoms: C_1  and  C_2
REMARK    2  A    between atoms: C_2  and  C_3
REMARK    3  A    between atoms: C_2  and  C_4
REMARK    4  A    between atoms: C_2  and  C_5
REMARK    5  A    between atoms: C_5  and  C_6
REMARK    6  A    between atoms: C_6  and  N_7
REMARK    7  A    between atoms: N_7  and  C_8
REMARK    8  A    between atoms: C_14  and  C_15
REMARK    9  A    between atoms: C_18  and  C_19
REMARK                            x       y       z     vdW  Elec       q    Type
REMARK                         _______ _______ _______ _____ _____    ______ ____
ROOT
ATOM      1  C   UNL     1       6.407   4.254  16.415  0.00  0.00    +0.000 C 
ATOM      2  C   UNL     1       7.376   4.413  17.635  0.00  0.00    +0.000 C 
ATOM      3  O   UNL     1       8.524   4.270  17.966  0.00  0.00    +0.000 OA
ATOM      4  C   UNL     1       6.220   4.866  18.454  0.00  0.00    +0.000 C 
ATOM      5  O   UNL     1       6.105   4.963  19.654  0.00  0.00    +0.000 OA
ATOM      6  C   UNL     1       5.389   5.046  17.250  0.00  0.00    +0.000 C 
ATOM      7  C   UNL     1       4.195   5.620  17.043  0.00  0.00    +0.000 C 
ENDROOT
BRANCH   7   8
ATOM      8  C   UNL     1       3.378   6.350  18.036  0.00  0.00    +0.000 A 
ATOM      9  C   UNL     1       3.001   7.686  17.852  0.00  0.00    +0.000 A 
ATOM     10  C   UNL     1       2.265   8.375  18.824  0.00  0.00    +0.000 A 
ATOM     11  C   UNL     1       1.866   7.720  19.990  0.00  0.00    +0.000 A 
ATOM     12  C   UNL     1       2.194   6.371  20.163  0.00  0.00    +0.000 A 
ATOM     13  C   UNL     1       2.941   5.692  19.194  0.00  0.00    +0.000 A 
BRANCH  11  14
ATOM     14  C   UNL     1       1.134   8.430  20.996  0.00  0.00    +0.000 C 
ATOM     15  N   UNL     1       0.544   9.006  21.813  0.00  0.00    +0.000 NA
ENDBRANCH  11  14
ENDBRANCH   7   8
BRANCH   1  16
ATOM     16  N   UNL     1       6.827   4.970  15.184  0.00  0.00    +0.000 NA
ATOM     17  H   UNL     1       6.920   5.978  15.322  0.00  0.00    +0.000 HD
BRANCH  16  18
ATOM     18  C   UNL     1       5.799   4.727  14.156  0.00  0.00    +0.000 C 
BRANCH  18  19
ATOM     19  C   UNL     1       5.720   3.279  13.635  0.00  0.00    +0.000 C 
BRANCH  19  21
ATOM     20  C   UNL     1       6.976   4.011  11.532  0.00  0.00    +0.000 C 
ATOM     21  C   UNL     1       5.798   3.182  12.073  0.00  0.00    +0.000 C 
ATOM     22  C   UNL     1       4.493   3.670  11.413  0.00  0.00    +0.000 C 
ATOM     23  C   UNL     1       6.016   1.717  11.651  0.00  0.00    +0.000 C 
ENDBRANCH  19  21
ENDBRANCH  18  19
ENDBRANCH  16  18
ENDBRANCH   1  16
TORSDOF 6
ENDMDL
MODEL 5
REMARK VINA RESULT:      -7.0      2.630      3.772
REMARK  Name = 
REMARK  9 active torsions:
REMARK  status: ('A' for Active; 'I' for Inactive)
REMARK    1  A    between atoms: C_1  and  C_2
REMARK    2  A    between atoms: C_2  and  C_3
REMARK    3  A    between atoms: C_2  and  C_4
REMARK    4  A    between atoms: C_2  and  C_5
REMARK    5  A    between atoms: C_5  and  C_6
REMARK    6  A    between atoms: C_6  and  N_7
REMARK    7  A    between atoms: N_7  and  C_8
REMARK    8  A    between atoms: C_14  and  C_15
REMARK    9  A    between atoms: C_18  and  C_19
REMARK                            x       y       z     vdW  Elec       q    Type
REMARK                         _______ _______ _______ _____ _____    ______ ____
ROOT
ATOM      1  C   UNL     1       3.380   3.529  18.846  0.00  0.00    +0.000 C 
ATOM      2  C   UNL     1       2.493   3.100  20.064  0.00  0.00    +0.000 C 
ATOM      3  O   UNL     1       2.318   2.203  20.847  0.00  0.00    +0.000 OA
ATOM      4  C   UNL     1       1.751   4.382  19.934  0.00  0.00    +0.000 C 
ATOM      5  O   UNL     1       0.687   4.718  20.401  0.00  0.00    +0.000 OA
ATOM      6  C   UNL     1       2.780   4.932  19.033  0.00  0.00    +0.000 C 
ATOM      7  C   UNL     1       3.007   6.161  18.549  0.00  0.00    +0.000 C 
ENDROOT
BRANCH   7   8
ATOM      8  C   UNL     1       2.271   7.398  18.888  0.00  0.00    +0.000 A 
ATOM      9  C   UNL     1       1.896   7.705  20.202  0.00  0.00    +0.000 A 
ATOM     10  C   UNL     1       1.160   8.858  20.498  0.00  0.00    +0.000 A 
ATOM     11  C   UNL     1       0.813   9.744  19.478  0.00  0.00    +0.000 A 
ATOM     12  C   UNL     1       1.224   9.475  18.168  0.00  0.00    +0.000 A 
ATOM     13  C   UNL     1       1.948   8.313  17.877  0.00  0.00    +0.000 A 
BRANCH  11  14
ATOM     14  C   UNL     1       0.039  10.913  19.775  0.00  0.00    +0.000 C 
ATOM     15  N   UNL     1      -0.587  11.861  20.013  0.00  0.00    +0.000 NA
ENDBRANCH  11  14
ENDBRANCH   7   8
BRANCH   1  16
ATOM     16  N   UNL     1       4.843   3.489  19.093  0.00  0.00    +0.000 NA
ATOM     17  H   UNL     1       5.106   3.890  19.995  0.00  0.00    +0.000 HD
BRANCH  16  18
ATOM     18  C   UNL     1       5.495   4.266  18.023  0.00  0.00    +0.000 C 
BRANCH  18  19
ATOM     19  C   UNL     1       5.109   3.860  16.588  0.00  0.00    +0.000 C 
BRANCH  19  21
ATOM     20  C   UNL     1       5.267   6.166  15.495  0.00  0.00    +0.000 C 
ATOM     21  C   UNL     1       5.815   4.727  15.491  0.00  0.00    +0.000 C 
ATOM     22  C   UNL     1       5.627   4.120  14.086  0.00  0.00    +0.000 C 
ATOM     23  C   UNL     1       7.328   4.795  15.773  0.00  0.00    +0.000 C 
ENDBRANCH  19  21
ENDBRANCH  18  19
ENDBRANCH  16  18
ENDBRANCH   1  16
TORSDOF 6
ENDMDL
MODEL 6
REMARK VINA RESULT:      -7.0      2.625      3.554
REMARK  Name = 
REMARK  9 active torsions:
REMARK  status: ('A' for Active; 'I' for Inactive)
REMARK    1  A    between atoms: C_1  and  C_2
REMARK    2  A    between atoms: C_2  and  C_3
REMARK    3  A    between atoms: C_2  and  C_4
REMARK    4  A    between atoms: C_2  and  C_5
REMARK    5  A    between atoms: C_5  and  C_6
REMARK    6  A    between atoms: C_6  and  N_7
REMARK    7  A    between atoms: N_7  and  C_8
REMARK    8  A    between atoms: C_14  and  C_15
REMARK    9  A    between atoms: C_18  and  C_19
REMARK                            x       y       z     vdW  Elec       q    Type
REMARK                         _______ _______ _______ _____ _____    ______ ____
ROOT
ATOM      1  C   UNL     1       4.251   4.200  18.930  0.00  0.00    +0.000 C 
ATOM      2  C   UNL     1       3.350   3.549  20.035  0.00  0.00    +0.000 C 
ATOM      3  O   UNL     1       3.288   2.608  20.782  0.00  0.00    +0.000 OA
ATOM      4  C   UNL     1       2.368   4.648  19.837  0.00  0.00    +0.000 C 
ATOM      5  O   UNL     1       1.212   4.733  20.184  0.00  0.00    +0.000 OA
ATOM      6  C   UNL     1       3.346   5.435  19.065  0.00  0.00    +0.000 C 
ATOM      7  C   UNL     1       3.354   6.701  18.624  0.00  0.00    +0.000 C 
ENDROOT
BRANCH   7   8
ATOM      8  C   UNL     1       2.337   7.741  18.893  0.00  0.00    +0.000 A 
ATOM      9  C   UNL     1       1.799   8.536  17.874  0.00  0.00    +0.000 A 
ATOM     10  C   UNL     1       0.871   9.546  18.153  0.00  0.00    +0.000 A 
ATOM     11  C   UNL     1       0.441   9.754  19.464  0.00  0.00    +0.000 A 
ATOM     12  C   UNL     1       0.934   8.934  20.484  0.00  0.00    +0.000 A 
ATOM     13  C   UNL     1       1.872   7.935  20.201  0.00  0.00    +0.000 A 
BRANCH  11  14
ATOM     14  C   UNL     1      -0.491  10.804  19.755  0.00  0.00    +0.000 C 
ATOM     15  N   UNL     1      -1.243  11.655  19.994  0.00  0.00    +0.000 NA
ENDBRANCH  11  14
ENDBRANCH   7   8
BRANCH   1  16
ATOM     16  N   UNL     1       5.653   4.463  19.340  0.00  0.00    +0.000 NA
ATOM     17  H   UNL     1       5.722   4.924  20.250  0.00  0.00    +0.000 HD
BRANCH  16  18
ATOM     18  C   UNL     1       6.257   5.338  18.320  0.00  0.00    +0.000 C 
BRANCH  18  19
ATOM     19  C   UNL     1       6.902   4.607  17.127  0.00  0.00    +0.000 C 
BRANCH  19  21
ATOM     20  C   UNL     1       5.104   3.766  15.516  0.00  0.00    +0.000 C 
ATOM     21  C   UNL     1       6.156   4.861  15.773  0.00  0.00    +0.000 C 
ATOM     22  C   UNL     1       7.140   4.903  14.587  0.00  0.00    +0.000 C 
ATOM     23  C   UNL     1       5.426   6.216  15.824  0.00  0.00    +0.000 C 
ENDBRANCH  19  21
ENDBRANCH  18  19
ENDBRANCH  16  18
ENDBRANCH   1  16
TORSDOF 6
ENDMDL
MODEL 7
REMARK VINA RESULT:      -7.0      3.113      4.702
REMARK  Name = 
REMARK  9 active torsions:
REMARK  status: ('A' for Active; 'I' for Inactive)
REMARK    1  A    between atoms: C_1  and  C_2
REMARK    2  A    between atoms: C_2  and  C_3
REMARK    3  A    between atoms: C_2  and  C_4
REMARK    4  A    between atoms: C_2  and  C_5
REMARK    5  A    between atoms: C_5  and  C_6
REMARK    6  A    between atoms: C_6  and  N_7
REMARK    7  A    between atoms: N_7  and  C_8
REMARK    8  A    between atoms: C_14  and  C_15
REMARK    9  A    between atoms: C_18  and  C_19
REMARK                            x       y       z     vdW  Elec       q    Type
REMARK                         _______ _______ _______ _____ _____    ______ ____
ROOT
ATOM      1  C   UNL     1       5.810   4.507  18.384  0.00  0.00    +0.000 C 
ATOM      2  C   UNL     1       5.714   4.601  16.823  0.00  0.00    +0.000 C 
ATOM      3  O   UNL     1       6.055   4.045  15.812  0.00  0.00    +0.000 OA
ATOM      4  C   UNL     1       4.935   5.858  16.978  0.00  0.00    +0.000 C 
ATOM      5  O   UNL     1       4.674   6.718  16.169  0.00  0.00    +0.000 OA
ATOM      6  C   UNL     1       4.728   5.599  18.415  0.00  0.00    +0.000 C 
ATOM      7  C   UNL     1       3.945   6.169  19.341  0.00  0.00    +0.000 C 
ENDROOT
BRANCH   7   8
ATOM      8  C   UNL     1       2.947   7.238  19.124  0.00  0.00    +0.000 A 
ATOM      9  C   UNL     1       2.828   7.908  17.900  0.00  0.00    +0.000 A 
ATOM     10  C   UNL     1       1.909   8.949  17.727  0.00  0.00    +0.000 A 
ATOM     11  C   UNL     1       1.065   9.315  18.776  0.00  0.00    +0.000 A 
ATOM     12  C   UNL     1       1.139   8.621  19.988  0.00  0.00    +0.000 A 
ATOM     13  C   UNL     1       2.070   7.590  20.159  0.00  0.00    +0.000 A 
BRANCH  11  14
ATOM     14  C   UNL     1       0.139  10.396  18.608  0.00  0.00    +0.000 C 
ATOM     15  N   UNL     1      -0.607  11.274  18.471  0.00  0.00    +0.000 NA
ENDBRANCH  11  14
ENDBRANCH   7   8
BRANCH   1  16
ATOM     16  N   UNL     1       5.350   3.221  18.964  0.00  0.00    +0.000 NA
ATOM     17  H   UNL     1       5.961   2.437  18.730  0.00  0.00    +0.000 HD
BRANCH  16  18
ATOM     18  C   UNL     1       4.005   2.948  18.427  0.00  0.00    +0.000 C 
BRANCH  18  19
ATOM     19  C   UNL     1       2.925   2.644  19.484  0.00  0.00    +0.000 C 
BRANCH  19  21
ATOM     20  C   UNL     1       0.951   4.089  20.224  0.00  0.00    +0.000 C 
ATOM     21  C   UNL     1       1.513   3.200  19.099  0.00  0.00    +0.000 C 
ATOM     22  C   UNL     1       0.517   2.059  18.813  0.00  0.00    +0.000 C 
ATOM     23  C   UNL     1       1.619   4.060  17.825  0.00  0.00    +0.000 C 
ENDBRANCH  19  21
ENDBRANCH  18  19
ENDBRANCH  16  18
ENDBRANCH   1  16
TORSDOF 6
ENDMDL
MODEL 8
REMARK VINA RESULT:      -6.9      2.835      3.285
REMARK  Name = 
REMARK  9 active torsions:
REMARK  status: ('A' for Active; 'I' for Inactive)
REMARK    1  A    between atoms: C_1  and  C_2
REMARK    2  A    between atoms: C_2  and  C_3
REMARK    3  A    between atoms: C_2  and  C_4
REMARK    4  A    between atoms: C_2  and  C_5
REMARK    5  A    between atoms: C_5  and  C_6
REMARK    6  A    between atoms: C_6  and  N_7
REMARK    7  A    between atoms: N_7  and  C_8
REMARK    8  A    between atoms: C_14  and  C_15
REMARK    9  A    between atoms: C_18  and  C_19
REMARK                            x       y       z     vdW  Elec       q    Type
REMARK                         _______ _______ _______ _____ _____    ______ ____
ROOT
ATOM      1  C   UNL     1       6.845   5.294  16.208  0.00  0.00    +0.000 C 
ATOM      2  C   UNL     1       7.205   6.364  17.294  0.00  0.00    +0.000 C 
ATOM      3  O   UNL     1       7.815   7.389  17.458  0.00  0.00    +0.000 OA
ATOM      4  C   UNL     1       6.434   5.570  18.287  0.00  0.00    +0.000 C 
ATOM      5  O   UNL     1       6.430   5.624  19.495  0.00  0.00    +0.000 OA
ATOM      6  C   UNL     1       5.817   4.762  17.220  0.00  0.00    +0.000 C 
ATOM      7  C   UNL     1       4.810   3.878  17.211  0.00  0.00    +0.000 C 
ENDROOT
BRANCH   7   8
ATOM      8  C   UNL     1       3.933   3.520  18.347  0.00  0.00    +0.000 A 
ATOM      9  C   UNL     1       2.596   3.929  18.413  0.00  0.00    +0.000 A 
ATOM     10  C   UNL     1       1.794   3.619  19.518  0.00  0.00    +0.000 A 
ATOM     11  C   UNL     1       2.316   2.862  20.567  0.00  0.00    +0.000 A 
ATOM     12  C   UNL     1       3.636   2.406  20.491  0.00  0.00    +0.000 A 
ATOM     13  C   UNL     1       4.437   2.730  19.390  0.00  0.00    +0.000 A 
BRANCH  11  14
ATOM     14  C   UNL     1       1.505   2.564  21.710  0.00  0.00    +0.000 C 
ATOM     15  N   UNL     1       0.850   2.323  22.638  0.00  0.00    +0.000 NA
ENDBRANCH  11  14
ENDBRANCH   7   8
BRANCH   1  16
ATOM     16  N   UNL     1       6.218   5.837  14.978  0.00  0.00    +0.000 NA
ATOM     17  H   UNL     1       5.571   6.605  15.166  0.00  0.00    +0.000 HD
BRANCH  16  18
ATOM     18  C   UNL     1       5.472   4.739  14.337  0.00  0.00    +0.000 C 
BRANCH  18  19
ATOM     19  C   UNL     1       6.341   3.607  13.756  0.00  0.00    +0.000 C 
BRANCH  19  21
ATOM     20  C   UNL     1       7.064   4.483  11.466  0.00  0.00    +0.000 C 
ATOM     21  C   UNL     1       6.192   3.452  12.204  0.00  0.00    +0.000 C 
ATOM     22  C   UNL     1       4.726   3.621  11.760  0.00  0.00    +0.000 C 
ATOM     23  C   UNL     1       6.652   2.046  11.773  0.00  0.00    +0.000 C 
ENDBRANCH  19  21
ENDBRANCH  18  19
ENDBRANCH  16  18
ENDBRANCH   1  16
TORSDOF 6
ENDMDL
MODEL 9
REMARK VINA RESULT:      -6.9      2.810      3.713
REMARK  Name = 
REMARK  9 active torsions:
REMARK  status: ('A' for Active; 'I' for Inactive)
REMARK    1  A    between atoms: C_1  and  C_2
REMARK    2  A    between atoms: C_2  and  C_3
REMARK    3  A    between atoms: C_2  and  C_4
REMARK    4  A    between atoms: C_2  and  C_5
REMARK    5  A    between atoms: C_5  and  C_6
REMARK    6  A    between atoms: C_6  and  N_7
REMARK    7  A    between atoms: N_7  and  C_8
REMARK    8  A    between atoms: C_14  and  C_15
REMARK    9  A    between atoms: C_18  and  C_19
REMARK                            x       y       z     vdW  Elec       q    Type
REMARK                         _______ _______ _______ _____ _____    ______ ____
ROOT
ATOM      1  C   UNL     1       3.981   4.082  19.125  0.00  0.00    +0.000 C 
ATOM      2  C   UNL     1       3.102   3.557  20.311  0.00  0.00    +0.000 C 
ATOM      3  O   UNL     1       3.027   2.674  21.124  0.00  0.00    +0.000 OA
ATOM      4  C   UNL     1       2.170   4.693  20.080  0.00  0.00    +0.000 C 
ATOM      5  O   UNL     1       1.038   4.864  20.471  0.00  0.00    +0.000 OA
ATOM      6  C   UNL     1       3.149   5.372  19.213  0.00  0.00    +0.000 C 
ATOM      7  C   UNL     1       3.202   6.603  18.686  0.00  0.00    +0.000 C 
ENDROOT
BRANCH   7   8
ATOM      8  C   UNL     1       2.254   7.713  18.926  0.00  0.00    +0.000 A 
ATOM      9  C   UNL     1       1.761   8.508  17.885  0.00  0.00    +0.000 A 
ATOM     10  C   UNL     1       0.900   9.583  18.136  0.00  0.00    +0.000 A 
ATOM     11  C   UNL     1       0.492   9.859  19.442  0.00  0.00    +0.000 A 
ATOM     12  C   UNL     1       0.938   9.041  20.485  0.00  0.00    +0.000 A 
ATOM     13  C   UNL     1       1.810   7.976  20.229  0.00  0.00    +0.000 A 
BRANCH  11  14
ATOM     14  C   UNL     1      -0.370  10.973  19.704  0.00  0.00    +0.000 C 
ATOM     15  N   UNL     1      -1.070  11.874  19.918  0.00  0.00    +0.000 NA
ENDBRANCH  11  14
ENDBRANCH   7   8
BRANCH   1  16
ATOM     16  N   UNL     1       5.413   4.295  19.454  0.00  0.00    +0.000 NA
ATOM     17  H   UNL     1       5.603   5.230  19.820  0.00  0.00    +0.000 HD
BRANCH  16  18
ATOM     18  C   UNL     1       6.186   4.107  18.214  0.00  0.00    +0.000 C 
BRANCH  18  19
ATOM     19  C   UNL     1       6.425   5.385  17.388  0.00  0.00    +0.000 C 
BRANCH  19  21
ATOM     20  C   UNL     1       5.171   6.572  15.503  0.00  0.00    +0.000 C 
ATOM     21  C   UNL     1       5.894   5.278  15.918  0.00  0.00    +0.000 C 
ATOM     22  C   UNL     1       4.930   4.087  15.754  0.00  0.00    +0.000 C 
ATOM     23  C   UNL     1       7.074   5.062  14.951  0.00  0.00    +0.000 C 
ENDBRANCH  19  21
ENDBRANCH  18  19
ENDBRANCH  16  18
ENDBRANCH   1  16
TORSDOF 6
ENDMDL
