MODEL 1
REMARK VINA RESULT:      -6.3      0.000      0.000
REMARK  Name = 
REMARK  5 active torsions:
REMARK  status: ('A' for Active; 'I' for Inactive)
REMARK    1  A    between atoms: C_1  and  C_2
REMARK    2  A    between atoms: C_2  and  N_3
REMARK    3  A    between atoms: N_3  and  C_4
REMARK    4  A    between atoms: C_4  and  C_5
REMARK    5  A    between atoms: C_6  and  C_8
REMARK                            x       y       z     vdW  Elec       q    Type
REMARK                         _______ _______ _______ _____ _____    ______ ____
ROOT
ATOM      1  C   UNL     1       4.763   4.887  18.902  0.00  0.00    +0.000 A 
ATOM      2  S   UNL     1       3.563   5.524  19.938  0.00  0.00    +0.000 S 
ATOM      3  C   UNL     1       2.463   4.260  19.590  0.00  0.00    +0.000 A 
ATOM      4  C   UNL     1       1.237   4.015  20.237  0.00  0.00    +0.000 A 
ATOM      5  C   UNL     1       0.410   3.004  19.749  0.00  0.00    +0.000 A 
ATOM      6  C   UNL     1       0.787   2.264  18.638  0.00  0.00    +0.000 A 
ATOM      7  C   UNL     1       2.026   2.486  18.026  0.00  0.00    +0.000 A 
ATOM      8  C   UNL     1       2.907   3.482  18.521  0.00  0.00    +0.000 A 
ATOM      9  C   UNL     1       4.249   3.852  18.143  0.00  0.00    +0.000 A 
ATOM     10 CL   UNL     1       5.104   3.006  16.911  0.00  0.00    +0.000 Cl
ENDROOT
BRANCH   1  12
ATOM     11  N   UNL     1       6.296   6.472  17.738  0.00  0.00    +0.000 N 
ATOM     12  C   UNL     1       6.068   5.522  18.768  0.00  0.00    +0.000 C 
ATOM     13  O   UNL     1       6.975   5.247  19.553  0.00  0.00    +0.000 OA
BRANCH  11  15
ATOM     14  C   UNL     1       7.757   8.477  17.668  0.00  0.00    +0.000 C 
ATOM     15  C   UNL     1       7.671   6.959  17.593  0.00  0.00    +0.000 C 
ENDBRANCH  11  15
BRANCH  11  16
ATOM     16  C   UNL     1       5.268   6.884  16.770  0.00  0.00    +0.000 C 
ATOM     17  C   UNL     1       5.263   6.241  15.393  0.00  0.00    +0.000 C 
ENDBRANCH  11  16
ENDBRANCH   1  12
TORSDOF 3
ENDMDL
MODEL 2
REMARK VINA RESULT:      -6.3      2.106      2.742
REMARK  Name = 
REMARK  5 active torsions:
REMARK  status: ('A' for Active; 'I' for Inactive)
REMARK    1  A    between atoms: C_1  and  C_2
REMARK    2  A    between atoms: C_2  and  N_3
REMARK    3  A    between atoms: N_3  and  C_4
REMARK    4  A    between atoms: C_4  and  C_5
REMARK    5  A    between atoms: C_6  and  C_8
REMARK                            x       y       z     vdW  Elec       q    Type
REMARK                         _______ _______ _______ _____ _____    ______ ____
ROOT
ATOM      1  C   UNL     1       4.427   5.323  17.256  0.00  0.00    +0.000 A 
ATOM      2  S   UNL     1       4.514   3.622  17.113  0.00  0.00    +0.000 S 
ATOM      3  C   UNL     1       3.005   3.389  17.886  0.00  0.00    +0.000 A 
ATOM      4  C   UNL     1       2.300   2.176  17.997  0.00  0.00    +0.000 A 
ATOM      5  C   UNL     1       1.134   2.144  18.760  0.00  0.00    +0.000 A 
ATOM      6  C   UNL     1       0.687   3.287  19.407  0.00  0.00    +0.000 A 
ATOM      7  C   UNL     1       1.371   4.499  19.258  0.00  0.00    +0.000 A 
ATOM      8  C   UNL     1       2.540   4.574  18.457  0.00  0.00    +0.000 A 
ATOM      9  C   UNL     1       3.371   5.687  18.071  0.00  0.00    +0.000 A 
ATOM     10 CL   UNL     1       2.995   7.299  18.545  0.00  0.00    +0.000 Cl
ENDROOT
BRANCH   1  12
ATOM     11  N   UNL     1       6.618   6.491  17.485  0.00  0.00    +0.000 N 
ATOM     12  C   UNL     1       5.467   6.187  16.712  0.00  0.00    +0.000 C 
ATOM     13  O   UNL     1       5.358   6.648  15.576  0.00  0.00    +0.000 OA
BRANCH  11  15
ATOM     14  C   UNL     1       7.749   8.672  17.830  0.00  0.00    +0.000 C 
ATOM     15  C   UNL     1       7.546   7.472  16.916  0.00  0.00    +0.000 C 
ENDBRANCH  11  15
BRANCH  11  16
ATOM     16  C   UNL     1       6.849   5.966  18.840  0.00  0.00    +0.000 C 
ATOM     17  C   UNL     1       8.228   5.429  19.189  0.00  0.00    +0.000 C 
ENDBRANCH  11  16
ENDBRANCH   1  12
TORSDOF 3
ENDMDL
MODEL 3
REMARK VINA RESULT:      -6.2      1.464      1.876
REMARK  Name = 
REMARK  5 active torsions:
REMARK  status: ('A' for Active; 'I' for Inactive)
REMARK    1  A    between atoms: C_1  and  C_2
REMARK    2  A    between atoms: C_2  and  N_3
REMARK    3  A    between atoms: N_3  and  C_4
REMARK    4  A    between atoms: C_4  and  C_5
REMARK    5  A    between atoms: C_6  and  C_8
REMARK                            x       y       z     vdW  Elec       q    Type
REMARK                         _______ _______ _______ _____ _____    ______ ____
ROOT
ATOM      1  C   UNL     1       4.072   5.801  17.758  0.00  0.00    +0.000 A 
ATOM      2  S   UNL     1       2.921   6.327  18.906  0.00  0.00    +0.000 S 
ATOM      3  C   UNL     1       2.272   4.756  19.110  0.00  0.00    +0.000 A 
ATOM      4  C   UNL     1       1.331   4.359  20.078  0.00  0.00    +0.000 A 
ATOM      5  C   UNL     1       0.825   3.060  20.028  0.00  0.00    +0.000 A 
ATOM      6  C   UNL     1       1.236   2.184  19.035  0.00  0.00    +0.000 A 
ATOM      7  C   UNL     1       2.204   2.573  18.103  0.00  0.00    +0.000 A 
ATOM      8  C   UNL     1       2.766   3.875  18.148  0.00  0.00    +0.000 A 
ATOM      9  C   UNL     1       3.818   4.495  17.380  0.00  0.00    +0.000 A 
ATOM     10 CL   UNL     1       4.688   3.624  16.176  0.00  0.00    +0.000 Cl
ENDROOT
BRANCH   1  12
ATOM     11  N   UNL     1       6.402   6.670  17.579  0.00  0.00    +0.000 N 
ATOM     12  C   UNL     1       5.042   6.720  17.176  0.00  0.00    +0.000 C 
ATOM     13  O   UNL     1       4.689   7.537  16.325  0.00  0.00    +0.000 OA
BRANCH  11  15
ATOM     14  C   UNL     1       8.172   8.324  18.119  0.00  0.00    +0.000 C 
ATOM     15  C   UNL     1       7.279   7.716  17.046  0.00  0.00    +0.000 C 
ENDBRANCH  11  15
BRANCH  11  16
ATOM     16  C   UNL     1       6.922   5.713  18.568  0.00  0.00    +0.000 C 
ATOM     17  C   UNL     1       7.779   4.556  18.082  0.00  0.00    +0.000 C 
ENDBRANCH  11  16
ENDBRANCH   1  12
TORSDOF 3
ENDMDL
MODEL 4
REMARK VINA RESULT:      -6.1      1.544      1.902
REMARK  Name = 
REMARK  5 active torsions:
REMARK  status: ('A' for Active; 'I' for Inactive)
REMARK    1  A    between atoms: C_1  and  C_2
REMARK    2  A    between atoms: C_2  and  N_3
REMARK    3  A    between atoms: N_3  and  C_4
REMARK    4  A    between atoms: C_4  and  C_5
REMARK    5  A    between atoms: C_6  and  C_8
REMARK                            x       y       z     vdW  Elec       q    Type
REMARK                         _______ _______ _______ _____ _____    ______ ____
ROOT
ATOM      1  C   UNL     1       4.812   4.735  19.027  0.00  0.00    +0.000 A 
ATOM      2  S   UNL     1       4.767   3.029  18.931  0.00  0.00    +0.000 S 
ATOM      3  C   UNL     1       3.061   2.977  19.040  0.00  0.00    +0.000 A 
ATOM      4  C   UNL     1       2.245   1.844  18.861  0.00  0.00    +0.000 A 
ATOM      5  C   UNL     1       0.876   1.958  19.099  0.00  0.00    +0.000 A 
ATOM      6  C   UNL     1       0.334   3.164  19.515  0.00  0.00    +0.000 A 
ATOM      7  C   UNL     1       1.145   4.297  19.649  0.00  0.00    +0.000 A 
ATOM      8  C   UNL     1       2.536   4.224  19.379  0.00  0.00    +0.000 A 
ATOM      9  C   UNL     1       3.564   5.234  19.355  0.00  0.00    +0.000 A 
ATOM     10 CL   UNL     1       3.205   6.894  19.641  0.00  0.00    +0.000 Cl
ENDROOT
BRANCH   1  12
ATOM     11  N   UNL     1       6.349   6.268  17.802  0.00  0.00    +0.000 N 
ATOM     12  C   UNL     1       6.067   5.470  18.942  0.00  0.00    +0.000 C 
ATOM     13  O   UNL     1       6.885   5.411  19.860  0.00  0.00    +0.000 OA
BRANCH  11  15
ATOM     14  C   UNL     1       7.639   8.382  17.643  0.00  0.00    +0.000 C 
ATOM     15  C   UNL     1       7.687   6.863  17.738  0.00  0.00    +0.000 C 
ENDBRANCH  11  15
BRANCH  11  16
ATOM     16  C   UNL     1       5.425   6.421  16.668  0.00  0.00    +0.000 C 
ATOM     17  C   UNL     1       5.608   5.527  15.452  0.00  0.00    +0.000 C 
ENDBRANCH  11  16
ENDBRANCH   1  12
TORSDOF 3
ENDMDL
MODEL 5
REMARK VINA RESULT:      -6.0      2.687      5.574
REMARK  Name = 
REMARK  5 active torsions:
REMARK  status: ('A' for Active; 'I' for Inactive)
REMARK    1  A    between atoms: C_1  and  C_2
REMARK    2  A    between atoms: C_2  and  N_3
REMARK    3  A    between atoms: N_3  and  C_4
REMARK    4  A    between atoms: C_4  and  C_5
REMARK    5  A    between atoms: C_6  and  C_8
REMARK                            x       y       z     vdW  Elec       q    Type
REMARK                         _______ _______ _______ _____ _____    ______ ____
ROOT
ATOM      1  C   UNL     1       4.697   3.712  18.465  0.00  0.00    +0.000 A 
ATOM      2  S   UNL     1       4.029   3.189  16.982  0.00  0.00    +0.000 S 
ATOM      3  C   UNL     1       5.289   3.891  16.061  0.00  0.00    +0.000 A 
ATOM      4  C   UNL     1       5.510   3.725  14.681  0.00  0.00    +0.000 A 
ATOM      5  C   UNL     1       6.522   4.464  14.070  0.00  0.00    +0.000 A 
ATOM      6  C   UNL     1       7.288   5.353  14.810  0.00  0.00    +0.000 A 
ATOM      7  C   UNL     1       7.090   5.480  16.189  0.00  0.00    +0.000 A 
ATOM      8  C   UNL     1       6.093   4.715  16.849  0.00  0.00    +0.000 A 
ATOM      9  C   UNL     1       5.743   4.590  18.242  0.00  0.00    +0.000 A 
ATOM     10 CL   UNL     1       6.622   5.416  19.470  0.00  0.00    +0.000 Cl
ENDROOT
BRANCH   1  12
ATOM     11  N   UNL     1       2.898   4.047  20.158  0.00  0.00    +0.000 N 
ATOM     12  C   UNL     1       4.077   3.376  19.740  0.00  0.00    +0.000 C 
ATOM     13  O   UNL     1       4.567   2.503  20.456  0.00  0.00    +0.000 OA
BRANCH  11  15
ATOM     14  C   UNL     1       1.297   2.714  21.507  0.00  0.00    +0.000 C 
ATOM     15  C   UNL     1       2.420   3.743  21.509  0.00  0.00    +0.000 C 
ENDBRANCH  11  15
BRANCH  11  16
ATOM     16  C   UNL     1       2.226   5.084  19.360  0.00  0.00    +0.000 C 
ATOM     17  C   UNL     1       2.562   6.542  19.629  0.00  0.00    +0.000 C 
ENDBRANCH  11  16
ENDBRANCH   1  12
TORSDOF 3
ENDMDL
MODEL 6
REMARK VINA RESULT:      -5.7      2.592      5.441
REMARK  Name = 
REMARK  5 active torsions:
REMARK  status: ('A' for Active; 'I' for Inactive)
REMARK    1  A    between atoms: C_1  and  C_2
REMARK    2  A    between atoms: C_2  and  N_3
REMARK    3  A    between atoms: N_3  and  C_4
REMARK    4  A    between atoms: C_4  and  C_5
REMARK    5  A    between atoms: C_6  and  C_8
REMARK                            x       y       z     vdW  Elec       q    Type
REMARK                         _______ _______ _______ _____ _____    ______ ____
ROOT
ATOM      1  C   UNL     1       4.590   3.755  18.627  0.00  0.00    +0.000 A 
ATOM      2  S   UNL     1       6.103   4.550  18.650  0.00  0.00    +0.000 S 
ATOM      3  C   UNL     1       6.172   4.665  16.945  0.00  0.00    +0.000 A 
ATOM      4  C   UNL     1       7.118   5.385  16.192  0.00  0.00    +0.000 A 
ATOM      5  C   UNL     1       7.093   5.277  14.802  0.00  0.00    +0.000 A 
ATOM      6  C   UNL     1       6.158   4.465  14.177  0.00  0.00    +0.000 A 
ATOM      7  C   UNL     1       5.194   3.785  14.931  0.00  0.00    +0.000 A 
ATOM      8  C   UNL     1       5.169   3.903  16.345  0.00  0.00    +0.000 A 
ATOM      9  C   UNL     1       4.253   3.393  17.335  0.00  0.00    +0.000 A 
ATOM     10 CL   UNL     1       2.855   2.491  16.891  0.00  0.00    +0.000 Cl
ENDROOT
BRANCH   1  12
ATOM     11  N   UNL     1       2.815   4.170  20.327  0.00  0.00    +0.000 N 
ATOM     12  C   UNL     1       3.903   3.388  19.859  0.00  0.00    +0.000 C 
ATOM     13  O   UNL     1       4.256   2.394  20.493  0.00  0.00    +0.000 OA
BRANCH  11  15
ATOM     14  C   UNL     1       1.219   2.712  21.547  0.00  0.00    +0.000 C 
ATOM     15  C   UNL     1       2.271   3.809  21.639  0.00  0.00    +0.000 C 
ENDBRANCH  11  15
BRANCH  11  16
ATOM     16  C   UNL     1       2.305   5.358  19.625  0.00  0.00    +0.000 C 
ATOM     17  C   UNL     1       1.883   6.565  20.447  0.00  0.00    +0.000 C 
ENDBRANCH  11  16
ENDBRANCH   1  12
TORSDOF 3
ENDMDL
MODEL 7
REMARK VINA RESULT:      -5.7      2.534      5.581
REMARK  Name = 
REMARK  5 active torsions:
REMARK  status: ('A' for Active; 'I' for Inactive)
REMARK    1  A    between atoms: C_1  and  C_2
REMARK    2  A    between atoms: C_2  and  N_3
REMARK    3  A    between atoms: N_3  and  C_4
REMARK    4  A    between atoms: C_4  and  C_5
REMARK    5  A    between atoms: C_6  and  C_8
REMARK                            x       y       z     vdW  Elec       q    Type
REMARK                         _______ _______ _______ _____ _____    ______ ____
ROOT
ATOM      1  C   UNL     1       4.316   4.623  18.485  0.00  0.00    +0.000 A 
ATOM      2  S   UNL     1       5.965   5.065  18.567  0.00  0.00    +0.000 S 
ATOM      3  C   UNL     1       6.172   4.957  16.872  0.00  0.00    +0.000 A 
ATOM      4  C   UNL     1       7.305   5.358  16.140  0.00  0.00    +0.000 A 
ATOM      5  C   UNL     1       7.349   5.093  14.771  0.00  0.00    +0.000 A 
ATOM      6  C   UNL     1       6.297   4.437  14.149  0.00  0.00    +0.000 A 
ATOM      7  C   UNL     1       5.156   4.080  14.876  0.00  0.00    +0.000 A 
ATOM      8  C   UNL     1       5.064   4.368  16.262  0.00  0.00    +0.000 A 
ATOM      9  C   UNL     1       3.992   4.193  17.211  0.00  0.00    +0.000 A 
ATOM     10 CL   UNL     1       2.458   3.573  16.734  0.00  0.00    +0.000 Cl
ENDROOT
BRANCH   1  12
ATOM     11  N   UNL     1       3.423   3.375  20.450  0.00  0.00    +0.000 N 
ATOM     12  C   UNL     1       3.483   4.566  19.679  0.00  0.00    +0.000 C 
ATOM     13  O   UNL     1       2.835   5.552  20.032  0.00  0.00    +0.000 OA
BRANCH  11  15
ATOM     14  C   UNL     1       1.090   2.858  21.119  0.00  0.00    +0.000 C 
ATOM     15  C   UNL     1       2.460   3.362  21.555  0.00  0.00    +0.000 C 
ENDBRANCH  11  15
BRANCH  11  16
ATOM     16  C   UNL     1       4.180   2.157  20.124  0.00  0.00    +0.000 C 
ATOM     17  C   UNL     1       3.646   1.236  19.039  0.00  0.00    +0.000 C 
ENDBRANCH  11  16
ENDBRANCH   1  12
TORSDOF 3
ENDMDL
MODEL 8
REMARK VINA RESULT:      -5.6      2.627      5.710
REMARK  Name = 
REMARK  5 active torsions:
REMARK  status: ('A' for Active; 'I' for Inactive)
REMARK    1  A    between atoms: C_1  and  C_2
REMARK    2  A    between atoms: C_2  and  N_3
REMARK    3  A    between atoms: N_3  and  C_4
REMARK    4  A    between atoms: C_4  and  C_5
REMARK    5  A    between atoms: C_6  and  C_8
REMARK                            x       y       z     vdW  Elec       q    Type
REMARK                         _______ _______ _______ _____ _____    ______ ____
ROOT
ATOM      1  C   UNL     1       4.301   4.561  18.368  0.00  0.00    +0.000 A 
ATOM      2  S   UNL     1       3.564   4.257  16.857  0.00  0.00    +0.000 S 
ATOM      3  C   UNL     1       5.037   4.424  16.002  0.00  0.00    +0.000 A 
ATOM      4  C   UNL     1       5.252   4.138  14.641  0.00  0.00    +0.000 A 
ATOM      5  C   UNL     1       6.491   4.440  14.079  0.00  0.00    +0.000 A 
ATOM      6  C   UNL     1       7.488   5.022  14.848  0.00  0.00    +0.000 A 
ATOM      7  C   UNL     1       7.281   5.264  16.211  0.00  0.00    +0.000 A 
ATOM      8  C   UNL     1       6.043   4.934  16.822  0.00  0.00    +0.000 A 
ATOM      9  C   UNL     1       5.602   4.995  18.194  0.00  0.00    +0.000 A 
ATOM     10 CL   UNL     1       6.658   5.497  19.458  0.00  0.00    +0.000 Cl
ENDROOT
BRANCH   1  12
ATOM     11  N   UNL     1       3.459   3.314  20.356  0.00  0.00    +0.000 N 
ATOM     12  C   UNL     1       3.538   4.519  19.609  0.00  0.00    +0.000 C 
ATOM     13  O   UNL     1       2.968   5.528  20.022  0.00  0.00    +0.000 OA
BRANCH  11  15
ATOM     14  C   UNL     1       1.181   2.780  21.183  0.00  0.00    +0.000 C 
ATOM     15  C   UNL     1       2.564   3.324  21.516  0.00  0.00    +0.000 C 
ENDBRANCH  11  15
BRANCH  11  16
ATOM     16  C   UNL     1       4.127   2.065  19.957  0.00  0.00    +0.000 C 
ATOM     17  C   UNL     1       3.555   1.272  18.793  0.00  0.00    +0.000 C 
ENDBRANCH  11  16
ENDBRANCH   1  12
TORSDOF 3
ENDMDL
MODEL 9
REMARK VINA RESULT:      -5.5      3.606      5.401
REMARK  Name = 
REMARK  5 active torsions:
REMARK  status: ('A' for Active; 'I' for Inactive)
REMARK    1  A    between atoms: C_1  and  C_2
REMARK    2  A    between atoms: C_2  and  N_3
REMARK    3  A    between atoms: N_3  and  C_4
REMARK    4  A    between atoms: C_4  and  C_5
REMARK    5  A    between atoms: C_6  and  C_8
REMARK                            x       y       z     vdW  Elec       q    Type
REMARK                         _______ _______ _______ _____ _____    ______ ____
ROOT
ATOM      1  C   UNL     1       2.984   6.283  19.323  0.00  0.00    +0.000 A 
ATOM      2  S   UNL     1       2.091   6.826  20.675  0.00  0.00    +0.000 S 
ATOM      3  C   UNL     1       1.521   8.216  19.855  0.00  0.00    +0.000 A 
ATOM      4  C   UNL     1       0.545   9.119  20.316  0.00  0.00    +0.000 A 
ATOM      5  C   UNL     1       0.281  10.264  19.566  0.00  0.00    +0.000 A 
ATOM      6  C   UNL     1       0.979  10.511  18.393  0.00  0.00    +0.000 A 
ATOM      7  C   UNL     1       1.918   9.588  17.919  0.00  0.00    +0.000 A 
ATOM      8  C   UNL     1       2.183   8.394  18.640  0.00  0.00    +0.000 A 
ATOM      9  C   UNL     1       3.018   7.257  18.341  0.00  0.00    +0.000 A 
ATOM     10 CL   UNL     1       3.892   7.143  16.862  0.00  0.00    +0.000 Cl
ENDROOT
BRANCH   1  12
ATOM     11  N   UNL     1       3.039   3.792  19.222  0.00  0.00    +0.000 N 
ATOM     12  C   UNL     1       3.724   5.028  19.354  0.00  0.00    +0.000 C 
ATOM     13  O   UNL     1       4.949   5.034  19.484  0.00  0.00    +0.000 OA
BRANCH  11  15
ATOM     14  C   UNL     1       3.560   1.538  18.324  0.00  0.00    +0.000 C 
ATOM     15  C   UNL     1       3.842   2.579  19.399  0.00  0.00    +0.000 C 
ENDBRANCH  11  15
BRANCH  11  16
ATOM     16  C   UNL     1       1.583   3.686  19.037  0.00  0.00    +0.000 C 
ATOM     17  C   UNL     1       0.733   3.203  20.201  0.00  0.00    +0.000 C 
ENDBRANCH  11  16
ENDBRANCH   1  12
TORSDOF 3
ENDMDL
