MODEL 1
REMARK VINA RESULT:      -8.3      0.000      0.000
REMARK  Name = 
REMARK  6 active torsions:
REMARK  status: ('A' for Active; 'I' for Inactive)
REMARK    1  A    between atoms: C_2  and  C_3
REMARK    2  A    between atoms: C_2  and  C_18
REMARK    3  A    between atoms: C_3  and  C_4
REMARK    4  A    between atoms: C_4  and  C_5
REMARK    5  A    between atoms: N_8  and  C_9
REMARK    6  A    between atoms: C_9  and  C_10
REMARK                            x       y       z     vdW  Elec       q    Type
REMARK                         _______ _______ _______ _____ _____    ______ ____
ROOT
ATOM      1  C   UNL     1       7.605   5.721  17.890  0.00  0.00    +0.000 C 
ATOM      2  C   UNL     1       7.049   4.786  16.798  0.00  0.00    +0.000 C 
ATOM      3  C   UNL     1       5.567   5.077  16.540  0.00  0.00    +0.000 C 
ATOM      4  N   UNL     1       4.772   4.874  17.776  0.00  0.00    +0.000 NA
ATOM      5  C   UNL     1       5.265   5.726  18.887  0.00  0.00    +0.000 C 
ATOM      6  C   UNL     1       6.761   5.491  19.158  0.00  0.00    +0.000 C 
ENDROOT
BRANCH   1   7
ATOM      7  C   UNL     1       7.647   7.222  17.476  0.00  0.00    +0.000 C 
BRANCH   7   8
ATOM      8  C   UNL     1       8.402   8.080  18.507  0.00  0.00    +0.000 C 
BRANCH   8  10
ATOM      9  O   UNL     1       7.563  10.041  17.469  0.00  0.00    +0.000 OA
ATOM     10  C   UNL     1       8.409   9.562  18.212  0.00  0.00    +0.000 C 
BRANCH  10  11
ATOM     11  C   UNL     1       9.436  10.449  18.834  0.00  0.00    +0.000 A 
ATOM     12  C   UNL     1      10.484  10.980  18.056  0.00  0.00    +0.000 A 
ATOM     13  C   UNL     1      11.438  11.826  18.631  0.00  0.00    +0.000 A 
ATOM     14  C   UNL     1      11.364  12.149  19.988  0.00  0.00    +0.000 A 
ATOM     15  C   UNL     1      10.337  11.625  20.774  0.00  0.00    +0.000 A 
ATOM     16  C   UNL     1       9.378  10.783  20.204  0.00  0.00    +0.000 A 
ENDBRANCH  10  11
ENDBRANCH   8  10
ENDBRANCH   7   8
ENDBRANCH   1   7
BRANCH   4  17
ATOM     17  C   UNL     1       3.341   5.172  17.538  0.00  0.00    +0.000 C 
BRANCH  17  18
ATOM     18  C   UNL     1       2.432   4.355  18.425  0.00  0.00    +0.000 A 
ATOM     19  C   UNL     1       2.031   3.065  18.041  0.00  0.00    +0.000 A 
ATOM     20  C   UNL     1       1.183   2.316  18.865  0.00  0.00    +0.000 A 
ATOM     21  C   UNL     1       0.729   2.851  20.075  0.00  0.00    +0.000 A 
ATOM     22  C   UNL     1       1.123   4.133  20.464  0.00  0.00    +0.000 A 
ATOM     23  C   UNL     1       1.971   4.885  19.645  0.00  0.00    +0.000 A 
ENDBRANCH  17  18
ENDBRANCH   4  17
TORSDOF 6
ENDMDL
MODEL 2
REMARK VINA RESULT:      -8.2      0.396      1.064
REMARK  Name = 
REMARK  6 active torsions:
REMARK  status: ('A' for Active; 'I' for Inactive)
REMARK    1  A    between atoms: C_2  and  C_3
REMARK    2  A    between atoms: C_2  and  C_18
REMARK    3  A    between atoms: C_3  and  C_4
REMARK    4  A    between atoms: C_4  and  C_5
REMARK    5  A    between atoms: N_8  and  C_9
REMARK    6  A    between atoms: C_9  and  C_10
REMARK                            x       y       z     vdW  Elec       q    Type
REMARK                         _______ _______ _______ _____ _____    ______ ____
ROOT
ATOM      1  C   UNL     1       7.486   6.107  17.802  0.00  0.00    +0.000 C 
ATOM      2  C   UNL     1       6.952   5.342  16.576  0.00  0.00    +0.000 C 
ATOM      3  C   UNL     1       5.433   5.506  16.456  0.00  0.00    +0.000 C 
ATOM      4  N   UNL     1       4.754   4.979  17.666  0.00  0.00    +0.000 NA
ATOM      5  C   UNL     1       5.237   5.653  18.897  0.00  0.00    +0.000 C 
ATOM      6  C   UNL     1       6.765   5.543  19.040  0.00  0.00    +0.000 C 
ENDROOT
BRANCH   1   7
ATOM      7  C   UNL     1       7.344   7.655  17.692  0.00  0.00    +0.000 C 
BRANCH   7   8
ATOM      8  C   UNL     1       8.468   8.388  18.447  0.00  0.00    +0.000 C 
BRANCH   8  10
ATOM      9  O   UNL     1       7.720  10.406  17.448  0.00  0.00    +0.000 OA
ATOM     10  C   UNL     1       8.551   9.872  18.171  0.00  0.00    +0.000 C 
BRANCH  10  11
ATOM     11  C   UNL     1       9.635  10.693  18.787  0.00  0.00    +0.000 A 
ATOM     12  C   UNL     1      10.703  11.169  18.001  0.00  0.00    +0.000 A 
ATOM     13  C   UNL     1      11.710  11.953  18.572  0.00  0.00    +0.000 A 
ATOM     14  C   UNL     1      11.669  12.270  19.931  0.00  0.00    +0.000 A 
ATOM     15  C   UNL     1      10.623  11.800  20.725  0.00  0.00    +0.000 A 
ATOM     16  C   UNL     1       9.611  11.020  20.160  0.00  0.00    +0.000 A 
ENDBRANCH  10  11
ENDBRANCH   8  10
ENDBRANCH   7   8
ENDBRANCH   1   7
BRANCH   4  17
ATOM     17  C   UNL     1       3.287   5.151  17.565  0.00  0.00    +0.000 C 
BRANCH  17  18
ATOM     18  C   UNL     1       2.540   4.284  18.551  0.00  0.00    +0.000 A 
ATOM     19  C   UNL     1       1.858   4.862  19.634  0.00  0.00    +0.000 A 
ATOM     20  C   UNL     1       1.174   4.052  20.548  0.00  0.00    +0.000 A 
ATOM     21  C   UNL     1       1.169   2.663  20.386  0.00  0.00    +0.000 A 
ATOM     22  C   UNL     1       1.845   2.081  19.312  0.00  0.00    +0.000 A 
ATOM     23  C   UNL     1       2.528   2.886  18.395  0.00  0.00    +0.000 A 
ENDBRANCH  17  18
ENDBRANCH   4  17
TORSDOF 6
ENDMDL
MODEL 3
REMARK VINA RESULT:      -7.8      1.034      1.268
REMARK  Name = 
REMARK  6 active torsions:
REMARK  status: ('A' for Active; 'I' for Inactive)
REMARK    1  A    between atoms: C_2  and  C_3
REMARK    2  A    between atoms: C_2  and  C_18
REMARK    3  A    between atoms: C_3  and  C_4
REMARK    4  A    between atoms: C_4  and  C_5
REMARK    5  A    between atoms: N_8  and  C_9
REMARK    6  A    between atoms: C_9  and  C_10
REMARK                            x       y       z     vdW  Elec       q    Type
REMARK                         _______ _______ _______ _____ _____    ______ ____
ROOT
ATOM      1  C   UNL     1       7.323   6.634  17.162  0.00  0.00    +0.000 C 
ATOM      2  C   UNL     1       6.069   6.026  16.505  0.00  0.00    +0.000 C 
ATOM      3  C   UNL     1       4.890   6.029  17.483  0.00  0.00    +0.000 C 
ATOM      4  N   UNL     1       5.213   5.234  18.693  0.00  0.00    +0.000 NA
ATOM      5  C   UNL     1       6.430   5.745  19.371  0.00  0.00    +0.000 C 
ATOM      6  C   UNL     1       7.633   5.792  18.414  0.00  0.00    +0.000 C 
ENDROOT
BRANCH   1   7
ATOM      7  C   UNL     1       7.191   8.151  17.492  0.00  0.00    +0.000 C 
BRANCH   7   8
ATOM      8  C   UNL     1       8.471   8.709  18.141  0.00  0.00    +0.000 C 
BRANCH   8  10
ATOM      9  O   UNL     1       7.760  10.880  17.501  0.00  0.00    +0.000 OA
ATOM     10  C   UNL     1       8.601  10.214  18.088  0.00  0.00    +0.000 C 
BRANCH  10  11
ATOM     11  C   UNL     1       9.746  10.895  18.762  0.00  0.00    +0.000 A 
ATOM     12  C   UNL     1      10.903  11.234  18.033  0.00  0.00    +0.000 A 
ATOM     13  C   UNL     1      11.970  11.888  18.657  0.00  0.00    +0.000 A 
ATOM     14  C   UNL     1      11.901  12.208  20.015  0.00  0.00    +0.000 A 
ATOM     15  C   UNL     1      10.766  11.872  20.753  0.00  0.00    +0.000 A 
ATOM     16  C   UNL     1       9.695  11.223  20.135  0.00  0.00    +0.000 A 
ENDBRANCH  10  11
ENDBRANCH   8  10
ENDBRANCH   7   8
ENDBRANCH   1   7
BRANCH   4  17
ATOM     17  C   UNL     1       4.084   5.248  19.651  0.00  0.00    +0.000 C 
BRANCH  17  18
ATOM     18  C   UNL     1       3.027   4.227  19.304  0.00  0.00    +0.000 A 
ATOM     19  C   UNL     1       3.066   2.940  19.866  0.00  0.00    +0.000 A 
ATOM     20  C   UNL     1       2.087   1.997  19.534  0.00  0.00    +0.000 A 
ATOM     21  C   UNL     1       1.066   2.331  18.639  0.00  0.00    +0.000 A 
ATOM     22  C   UNL     1       1.020   3.608  18.076  0.00  0.00    +0.000 A 
ATOM     23  C   UNL     1       1.995   4.555  18.406  0.00  0.00    +0.000 A 
ENDBRANCH  17  18
ENDBRANCH   4  17
TORSDOF 6
ENDMDL
MODEL 4
REMARK VINA RESULT:      -7.7      1.433      1.947
REMARK  Name = 
REMARK  6 active torsions:
REMARK  status: ('A' for Active; 'I' for Inactive)
REMARK    1  A    between atoms: C_2  and  C_3
REMARK    2  A    between atoms: C_2  and  C_18
REMARK    3  A    between atoms: C_3  and  C_4
REMARK    4  A    between atoms: C_4  and  C_5
REMARK    5  A    between atoms: N_8  and  C_9
REMARK    6  A    between atoms: C_9  and  C_10
REMARK                            x       y       z     vdW  Elec       q    Type
REMARK                         _______ _______ _______ _____ _____    ______ ____
ROOT
ATOM      1  C   UNL     1       6.837   6.851  16.793  0.00  0.00    +0.000 C 
ATOM      2  C   UNL     1       5.317   6.902  17.042  0.00  0.00    +0.000 C 
ATOM      3  C   UNL     1       4.944   6.084  18.281  0.00  0.00    +0.000 C 
ATOM      4  N   UNL     1       5.339   4.664  18.109  0.00  0.00    +0.000 NA
ATOM      5  C   UNL     1       6.793   4.533  17.840  0.00  0.00    +0.000 C 
ATOM      6  C   UNL     1       7.219   5.368  16.620  0.00  0.00    +0.000 C 
ENDROOT
BRANCH   1   7
ATOM      7  C   UNL     1       7.682   7.551  17.899  0.00  0.00    +0.000 C 
BRANCH   7   8
ATOM      8  C   UNL     1       7.909   9.041  17.589  0.00  0.00    +0.000 C 
BRANCH   8  10
ATOM      9  O   UNL     1       9.132   9.229  19.613  0.00  0.00    +0.000 OA
ATOM     10  C   UNL     1       8.838   9.752  18.546  0.00  0.00    +0.000 C 
BRANCH  10  11
ATOM     11  C   UNL     1       9.410  11.084  18.191  0.00  0.00    +0.000 A 
ATOM     12  C   UNL     1      10.795  11.318  18.302  0.00  0.00    +0.000 A 
ATOM     13  C   UNL     1      11.336  12.560  17.954  0.00  0.00    +0.000 A 
ATOM     14  C   UNL     1      10.505  13.584  17.494  0.00  0.00    +0.000 A 
ATOM     15  C   UNL     1       9.131  13.372  17.386  0.00  0.00    +0.000 A 
ATOM     16  C   UNL     1       8.584  12.132  17.729  0.00  0.00    +0.000 A 
ENDBRANCH  10  11
ENDBRANCH   8  10
ENDBRANCH   7   8
ENDBRANCH   1   7
BRANCH   4  17
ATOM     17  C   UNL     1       4.998   3.870  19.312  0.00  0.00    +0.000 C 
BRANCH  17  18
ATOM     18  C   UNL     1       3.522   3.558  19.391  0.00  0.00    +0.000 A 
ATOM     19  C   UNL     1       2.899   2.802  18.385  0.00  0.00    +0.000 A 
ATOM     20  C   UNL     1       1.530   2.523  18.461  0.00  0.00    +0.000 A 
ATOM     21  C   UNL     1       0.776   2.997  19.539  0.00  0.00    +0.000 A 
ATOM     22  C   UNL     1       1.389   3.749  20.543  0.00  0.00    +0.000 A 
ATOM     23  C   UNL     1       2.757   4.030  20.473  0.00  0.00    +0.000 A 
ENDBRANCH  17  18
ENDBRANCH   4  17
TORSDOF 6
ENDMDL
MODEL 5
REMARK VINA RESULT:      -7.7      4.463      7.952
REMARK  Name = 
REMARK  6 active torsions:
REMARK  status: ('A' for Active; 'I' for Inactive)
REMARK    1  A    between atoms: C_2  and  C_3
REMARK    2  A    between atoms: C_2  and  C_18
REMARK    3  A    between atoms: C_3  and  C_4
REMARK    4  A    between atoms: C_4  and  C_5
REMARK    5  A    between atoms: N_8  and  C_9
REMARK    6  A    between atoms: C_9  and  C_10
REMARK                            x       y       z     vdW  Elec       q    Type
REMARK                         _______ _______ _______ _____ _____    ______ ____
ROOT
ATOM      1  C   UNL     1       5.417   4.796  17.882  0.00  0.00    +0.000 C 
ATOM      2  C   UNL     1       6.924   4.622  17.612  0.00  0.00    +0.000 C 
ATOM      3  C   UNL     1       7.269   5.039  16.180  0.00  0.00    +0.000 C 
ATOM      4  N   UNL     1       6.522   4.211  15.200  0.00  0.00    +0.000 NA
ATOM      5  C   UNL     1       5.057   4.306  15.412  0.00  0.00    +0.000 C 
ATOM      6  C   UNL     1       4.668   3.928  16.852  0.00  0.00    +0.000 C 
ENDROOT
BRANCH   1   7
ATOM      7  C   UNL     1       4.938   6.278  17.861  0.00  0.00    +0.000 C 
BRANCH   7   8
ATOM      8  C   UNL     1       3.409   6.384  17.717  0.00  0.00    +0.000 C 
BRANCH   8  10
ATOM      9  O   UNL     1       2.424   7.393  19.625  0.00  0.00    +0.000 OA
ATOM     10  C   UNL     1       2.647   6.352  19.022  0.00  0.00    +0.000 C 
BRANCH  10  11
ATOM     11  C   UNL     1       2.154   5.055  19.574  0.00  0.00    +0.000 A 
ATOM     12  C   UNL     1       1.527   4.115  18.733  0.00  0.00    +0.000 A 
ATOM     13  C   UNL     1       1.079   2.892  19.244  0.00  0.00    +0.000 A 
ATOM     14  C   UNL     1       1.246   2.592  20.598  0.00  0.00    +0.000 A 
ATOM     15  C   UNL     1       1.858   3.516  21.445  0.00  0.00    +0.000 A 
ATOM     16  C   UNL     1       2.311   4.738  20.941  0.00  0.00    +0.000 A 
ENDBRANCH  10  11
ENDBRANCH   8  10
ENDBRANCH   7   8
ENDBRANCH   1   7
BRANCH   4  17
ATOM     17  C   UNL     1       6.837   4.621  13.812  0.00  0.00    +0.000 C 
BRANCH  17  18
ATOM     18  C   UNL     1       6.191   3.719  12.789  0.00  0.00    +0.000 A 
ATOM     19  C   UNL     1       6.918   2.670  12.203  0.00  0.00    +0.000 A 
ATOM     20  C   UNL     1       6.315   1.842  11.249  0.00  0.00    +0.000 A 
ATOM     21  C   UNL     1       4.985   2.056  10.875  0.00  0.00    +0.000 A 
ATOM     22  C   UNL     1       4.255   3.098  11.453  0.00  0.00    +0.000 A 
ATOM     23  C   UNL     1       4.853   3.927  12.407  0.00  0.00    +0.000 A 
ENDBRANCH  17  18
ENDBRANCH   4  17
TORSDOF 6
ENDMDL
MODEL 6
REMARK VINA RESULT:      -7.7      0.551      1.136
REMARK  Name = 
REMARK  6 active torsions:
REMARK  status: ('A' for Active; 'I' for Inactive)
REMARK    1  A    between atoms: C_2  and  C_3
REMARK    2  A    between atoms: C_2  and  C_18
REMARK    3  A    between atoms: C_3  and  C_4
REMARK    4  A    between atoms: C_4  and  C_5
REMARK    5  A    between atoms: N_8  and  C_9
REMARK    6  A    between atoms: C_9  and  C_10
REMARK                            x       y       z     vdW  Elec       q    Type
REMARK                         _______ _______ _______ _____ _____    ______ ____
ROOT
ATOM      1  C   UNL     1       7.286   6.313  17.712  0.00  0.00    +0.000 C 
ATOM      2  C   UNL     1       6.632   5.780  16.423  0.00  0.00    +0.000 C 
ATOM      3  C   UNL     1       5.117   6.004  16.453  0.00  0.00    +0.000 C 
ATOM      4  N   UNL     1       4.508   5.301  17.609  0.00  0.00    +0.000 NA
ATOM      5  C   UNL     1       5.106   5.743  18.892  0.00  0.00    +0.000 C 
ATOM      6  C   UNL     1       6.635   5.568  18.893  0.00  0.00    +0.000 C 
ENDROOT
BRANCH   1   7
ATOM      7  C   UNL     1       7.200   7.860  17.873  0.00  0.00    +0.000 C 
BRANCH   7   8
ATOM      8  C   UNL     1       8.583   8.488  18.121  0.00  0.00    +0.000 C 
BRANCH   8  10
ATOM      9  O   UNL     1       7.726  10.627  17.556  0.00  0.00    +0.000 OA
ATOM     10  C   UNL     1       8.596   9.999  18.145  0.00  0.00    +0.000 C 
BRANCH  10  11
ATOM     11  C   UNL     1       9.658  10.732  18.896  0.00  0.00    +0.000 A 
ATOM     12  C   UNL     1       9.422  11.178  20.212  0.00  0.00    +0.000 A 
ATOM     13  C   UNL     1      10.421  11.848  20.924  0.00  0.00    +0.000 A 
ATOM     14  C   UNL     1      11.665  12.087  20.335  0.00  0.00    +0.000 A 
ATOM     15  C   UNL     1      11.912  11.659  19.030  0.00  0.00    +0.000 A 
ATOM     16  C   UNL     1      10.919  10.985  18.314  0.00  0.00    +0.000 A 
ENDBRANCH  10  11
ENDBRANCH   8  10
ENDBRANCH   7   8
ENDBRANCH   1   7
BRANCH   4  17
ATOM     17  C   UNL     1       3.045   5.528  17.654  0.00  0.00    +0.000 C 
BRANCH  17  18
ATOM     18  C   UNL     1       2.335   4.512  18.517  0.00  0.00    +0.000 A 
ATOM     19  C   UNL     1       2.268   3.165  18.123  0.00  0.00    +0.000 A 
ATOM     20  C   UNL     1       1.603   2.230  18.924  0.00  0.00    +0.000 A 
ATOM     21  C   UNL     1       0.999   2.634  20.120  0.00  0.00    +0.000 A 
ATOM     22  C   UNL     1       1.061   3.971  20.517  0.00  0.00    +0.000 A 
ATOM     23  C   UNL     1       1.726   4.909  19.721  0.00  0.00    +0.000 A 
ENDBRANCH  17  18
ENDBRANCH   4  17
TORSDOF 6
ENDMDL
MODEL 7
REMARK VINA RESULT:      -7.6      1.428      2.183
REMARK  Name = 
REMARK  6 active torsions:
REMARK  status: ('A' for Active; 'I' for Inactive)
REMARK    1  A    between atoms: C_2  and  C_3
REMARK    2  A    between atoms: C_2  and  C_18
REMARK    3  A    between atoms: C_3  and  C_4
REMARK    4  A    between atoms: C_4  and  C_5
REMARK    5  A    between atoms: N_8  and  C_9
REMARK    6  A    between atoms: C_9  and  C_10
REMARK                            x       y       z     vdW  Elec       q    Type
REMARK                         _______ _______ _______ _____ _____    ______ ____
ROOT
ATOM      1  C   UNL     1       7.166   6.711  17.022  0.00  0.00    +0.000 C 
ATOM      2  C   UNL     1       5.664   7.041  16.928  0.00  0.00    +0.000 C 
ATOM      3  C   UNL     1       4.942   6.651  18.221  0.00  0.00    +0.000 C 
ATOM      4  N   UNL     1       5.083   5.197  18.480  0.00  0.00    +0.000 NA
ATOM      5  C   UNL     1       6.509   4.795  18.560  0.00  0.00    +0.000 C 
ATOM      6  C   UNL     1       7.282   5.199  17.293  0.00  0.00    +0.000 C 
ENDROOT
BRANCH   1   7
ATOM      7  C   UNL     1       7.935   7.559  18.080  0.00  0.00    +0.000 C 
BRANCH   7   8
ATOM      8  C   UNL     1       8.071   9.029  17.646  0.00  0.00    +0.000 C 
BRANCH   8  10
ATOM      9  O   UNL     1       9.038   9.538  19.751  0.00  0.00    +0.000 OA
ATOM     10  C   UNL     1       8.866   9.897  18.594  0.00  0.00    +0.000 C 
BRANCH  10  11
ATOM     11  C   UNL     1       9.455  11.185  18.122  0.00  0.00    +0.000 A 
ATOM     12  C   UNL     1       8.638  12.318  17.941  0.00  0.00    +0.000 A 
ATOM     13  C   UNL     1       9.189  13.531  17.516  0.00  0.00    +0.000 A 
ATOM     14  C   UNL     1      10.559  13.630  17.263  0.00  0.00    +0.000 A 
ATOM     15  C   UNL     1      11.381  12.515  17.430  0.00  0.00    +0.000 A 
ATOM     16  C   UNL     1      10.837  11.301  17.858  0.00  0.00    +0.000 A 
ENDBRANCH  10  11
ENDBRANCH   8  10
ENDBRANCH   7   8
ENDBRANCH   1   7
BRANCH   4  17
ATOM     17  C   UNL     1       4.403   4.817  19.740  0.00  0.00    +0.000 C 
BRANCH  17  18
ATOM     18  C   UNL     1       3.114   4.070  19.490  0.00  0.00    +0.000 A 
ATOM     19  C   UNL     1       2.234   3.793  20.549  0.00  0.00    +0.000 A 
ATOM     20  C   UNL     1       1.045   3.094  20.312  0.00  0.00    +0.000 A 
ATOM     21  C   UNL     1       0.729   2.667  19.018  0.00  0.00    +0.000 A 
ATOM     22  C   UNL     1       1.599   2.938  17.960  0.00  0.00    +0.000 A 
ATOM     23  C   UNL     1       2.788   3.638  18.192  0.00  0.00    +0.000 A 
ENDBRANCH  17  18
ENDBRANCH   4  17
TORSDOF 6
ENDMDL
MODEL 8
REMARK VINA RESULT:      -7.6      1.474      2.042
REMARK  Name = 
REMARK  6 active torsions:
REMARK  status: ('A' for Active; 'I' for Inactive)
REMARK    1  A    between atoms: C_2  and  C_3
REMARK    2  A    between atoms: C_2  and  C_18
REMARK    3  A    between atoms: C_3  and  C_4
REMARK    4  A    between atoms: C_4  and  C_5
REMARK    5  A    between atoms: N_8  and  C_9
REMARK    6  A    between atoms: C_9  and  C_10
REMARK                            x       y       z     vdW  Elec       q    Type
REMARK                         _______ _______ _______ _____ _____    ______ ____
ROOT
ATOM      1  C   UNL     1       6.952   6.774  16.930  0.00  0.00    +0.000 C 
ATOM      2  C   UNL     1       5.417   6.856  17.034  0.00  0.00    +0.000 C 
ATOM      3  C   UNL     1       4.925   6.179  18.317  0.00  0.00    +0.000 C 
ATOM      4  N   UNL     1       5.317   4.748  18.335  0.00  0.00    +0.000 NA
ATOM      5  C   UNL     1       6.787   4.585  18.214  0.00  0.00    +0.000 C 
ATOM      6  C   UNL     1       7.330   5.281  16.954  0.00  0.00    +0.000 C 
ENDROOT
BRANCH   1   7
ATOM      7  C   UNL     1       7.705   7.589  18.025  0.00  0.00    +0.000 C 
BRANCH   7   8
ATOM      8  C   UNL     1       8.072   9.001  17.536  0.00  0.00    +0.000 C 
BRANCH   8  10
ATOM      9  O   UNL     1       9.084   9.390  19.646  0.00  0.00    +0.000 OA
ATOM     10  C   UNL     1       8.866   9.825  18.524  0.00  0.00    +0.000 C 
BRANCH  10  11
ATOM     11  C   UNL     1       9.398  11.164  18.132  0.00  0.00    +0.000 A 
ATOM     12  C   UNL     1       8.561  12.297  18.151  0.00  0.00    +0.000 A 
ATOM     13  C   UNL     1       9.061  13.556  17.802  0.00  0.00    +0.000 A 
ATOM     14  C   UNL     1      10.398  13.701  17.427  0.00  0.00    +0.000 A 
ATOM     15  C   UNL     1      11.238  12.588  17.395  0.00  0.00    +0.000 A 
ATOM     16  C   UNL     1      10.746  11.329  17.746  0.00  0.00    +0.000 A 
ENDBRANCH  10  11
ENDBRANCH   8  10
ENDBRANCH   7   8
ENDBRANCH   1   7
BRANCH   4  17
ATOM     17  C   UNL     1       4.861   4.091  19.582  0.00  0.00    +0.000 C 
BRANCH  17  18
ATOM     18  C   UNL     1       3.414   3.663  19.506  0.00  0.00    +0.000 A 
ATOM     19  C   UNL     1       2.938   2.954  18.392  0.00  0.00    +0.000 A 
ATOM     20  C   UNL     1       1.595   2.567  18.325  0.00  0.00    +0.000 A 
ATOM     21  C   UNL     1       0.720   2.887  19.368  0.00  0.00    +0.000 A 
ATOM     22  C   UNL     1       1.186   3.593  20.479  0.00  0.00    +0.000 A 
ATOM     23  C   UNL     1       2.528   3.980  20.552  0.00  0.00    +0.000 A 
ENDBRANCH  17  18
ENDBRANCH   4  17
TORSDOF 6
ENDMDL
MODEL 9
REMARK VINA RESULT:      -7.6      3.863      6.871
REMARK  Name = 
REMARK  6 active torsions:
REMARK  status: ('A' for Active; 'I' for Inactive)
REMARK    1  A    between atoms: C_2  and  C_3
REMARK    2  A    between atoms: C_2  and  C_18
REMARK    3  A    between atoms: C_3  and  C_4
REMARK    4  A    between atoms: C_4  and  C_5
REMARK    5  A    between atoms: N_8  and  C_9
REMARK    6  A    between atoms: C_9  and  C_10
REMARK                            x       y       z     vdW  Elec       q    Type
REMARK                         _______ _______ _______ _____ _____    ______ ____
ROOT
ATOM      1  C   UNL     1       7.078   5.572  17.250  0.00  0.00    +0.000 C 
ATOM      2  C   UNL     1       6.498   4.937  18.529  0.00  0.00    +0.000 C 
ATOM      3  C   UNL     1       5.004   4.647  18.359  0.00  0.00    +0.000 C 
ATOM      4  N   UNL     1       4.257   5.898  18.081  0.00  0.00    +0.000 NA
ATOM      5  C   UNL     1       4.776   6.584  16.872  0.00  0.00    +0.000 C 
ATOM      6  C   UNL     1       6.284   6.865  16.985  0.00  0.00    +0.000 C 
ENDROOT
BRANCH   1   7
ATOM      7  C   UNL     1       7.081   4.620  16.017  0.00  0.00    +0.000 C 
BRANCH   7   8
ATOM      8  C   UNL     1       6.398   5.263  14.796  0.00  0.00    +0.000 C 
BRANCH   8  10
ATOM      9  O   UNL     1       8.020   5.580  13.093  0.00  0.00    +0.000 OA
ATOM     10  C   UNL     1       7.045   4.942  13.468  0.00  0.00    +0.000 C 
BRANCH  10  11
ATOM     11  C   UNL     1       6.509   3.839  12.616  0.00  0.00    +0.000 A 
ATOM     12  C   UNL     1       5.123   3.724  12.388  0.00  0.00    +0.000 A 
ATOM     13  C   UNL     1       4.620   2.703  11.576  0.00  0.00    +0.000 A 
ATOM     14  C   UNL     1       5.488   1.782  10.985  0.00  0.00    +0.000 A 
ATOM     15  C   UNL     1       6.862   1.878  11.207  0.00  0.00    +0.000 A 
ATOM     16  C   UNL     1       7.372   2.898  12.014  0.00  0.00    +0.000 A 
ENDBRANCH  10  11
ENDBRANCH   8  10
ENDBRANCH   7   8
ENDBRANCH   1   7
BRANCH   4  17
ATOM     17  C   UNL     1       2.813   5.622  17.897  0.00  0.00    +0.000 C 
BRANCH  17  18
ATOM     18  C   UNL     1       2.266   4.703  18.963  0.00  0.00    +0.000 A 
ATOM     19  C   UNL     1       1.485   3.589  18.613  0.00  0.00    +0.000 A 
ATOM     20  C   UNL     1       0.976   2.746  19.607  0.00  0.00    +0.000 A 
ATOM     21  C   UNL     1       1.242   3.010  20.954  0.00  0.00    +0.000 A 
ATOM     22  C   UNL     1       2.018   4.115  21.310  0.00  0.00    +0.000 A 
ATOM     23  C   UNL     1       2.530   4.960  20.321  0.00  0.00    +0.000 A 
ENDBRANCH  17  18
ENDBRANCH   4  17
TORSDOF 6
ENDMDL
