MODEL 1
REMARK VINA RESULT:      -7.9      0.000      0.000
REMARK  Name = 
REMARK  6 active torsions:
REMARK  status: ('A' for Active; 'I' for Inactive)
REMARK    1  A    between atoms: C_2  and  C_14
REMARK    2  A    between atoms: N_3  and  CA_4
REMARK    3  A    between atoms: CA_4  and  C_5
REMARK    4  A    between atoms: CA_4  and  C_7
REMARK    5  A    between atoms: C_5  and  O_6
REMARK    6  A    between atoms: C_17  and  C_18
REMARK                            x       y       z     vdW  Elec       q    Type
REMARK                         _______ _______ _______ _____ _____    ______ ____
ROOT
ATOM      1  O   UNL     1       1.650  11.352  18.538  0.00  0.00    +0.000 OA
ATOM      2  C   UNL     1       1.071  10.387  19.034  0.00  0.00    +0.000 C 
ATOM      3  N   UNL     1      -0.164  10.551  19.627  0.00  0.00    +0.000 N 
ATOM      4  H   UNL     1      -0.660   9.721  19.931  0.00  0.00    +0.000 HD
ENDROOT
BRANCH   2   5
ATOM      5  C   UNL     1       1.632   9.042  19.037  0.00  0.00    +0.000 A 
ATOM      6  C   UNL     1       1.664   8.173  20.110  0.00  0.00    +0.000 A 
ATOM      7  C   UNL     1       2.263   6.920  19.785  0.00  0.00    +0.000 A 
ATOM      8  C   UNL     1       2.694   6.863  18.473  0.00  0.00    +0.000 A 
ATOM      9  S   UNL     1       2.356   8.331  17.661  0.00  0.00    +0.000 S 
BRANCH   8  10
ATOM     10  C   UNL     1       3.360   5.662  17.856  0.00  0.00    +0.000 A 
ATOM     11  C   UNL     1       2.759   4.415  17.762  0.00  0.00    +0.000 A 
ATOM     12  N   UNL     1       3.629   3.566  17.132  0.00  0.00    +0.000 N 
ATOM     13  C   UNL     1       4.782   4.226  16.826  0.00  0.00    +0.000 A 
ATOM     14  N   UNL     1       5.830   3.653  16.206  0.00  0.00    +0.000 NA
ATOM     15  C   UNL     1       6.862   4.503  16.017  0.00  0.00    +0.000 A 
ATOM     16  C   UNL     1       6.890   5.834  16.403  0.00  0.00    +0.000 A 
ATOM     17  C   UNL     1       5.774   6.378  17.041  0.00  0.00    +0.000 A 
ATOM     18  C   UNL     1       4.661   5.545  17.266  0.00  0.00    +0.000 A 
ATOM     19  H   UNL     1       3.471   2.592  16.914  0.00  0.00    +0.000 HD
ENDBRANCH   8  10
ENDBRANCH   2   5
BRANCH   3  20
ATOM     20  CA  UNL     1      -0.822  11.851  19.691  0.00  0.00    +0.000 C 
BRANCH  20  21
ATOM     21  C   UNL     1      -1.620  11.986  20.976  0.00  0.00    +0.000 A 
ATOM     22  C   UNL     1      -1.139  11.395  22.160  0.00  0.00    +0.000 A 
ATOM     23  C   UNL     1      -1.858  11.500  23.353  0.00  0.00    +0.000 A 
ATOM     24  C   UNL     1      -3.061  12.195  23.368  0.00  0.00    +0.000 A 
ATOM     25  F   UNL     1      -3.754  12.290  24.510  0.00  0.00    +0.000 F 
ATOM     26  C   UNL     1      -3.554  12.792  22.214  0.00  0.00    +0.000 A 
ATOM     27  C   UNL     1      -2.836  12.691  21.021  0.00  0.00    +0.000 A 
ENDBRANCH  20  21
BRANCH  20  28
ATOM     28  C   UNL     1      -1.693  12.125  18.440  0.00  0.00    +0.000 C 
BRANCH  28  29
ATOM     29  O   UNL     1      -0.992  12.809  17.402  0.00  0.00    +0.000 OA
ATOM     30  H   UNL     1      -1.104  13.776  17.533  0.00  0.00    +0.000 HD
ENDBRANCH  28  29
ENDBRANCH  20  28
ENDBRANCH   3  20
TORSDOF 6
ENDMDL
MODEL 2
REMARK VINA RESULT:      -7.9      2.757      3.649
REMARK  Name = 
REMARK  6 active torsions:
REMARK  status: ('A' for Active; 'I' for Inactive)
REMARK    1  A    between atoms: C_2  and  C_14
REMARK    2  A    between atoms: N_3  and  CA_4
REMARK    3  A    between atoms: CA_4  and  C_5
REMARK    4  A    between atoms: CA_4  and  C_7
REMARK    5  A    between atoms: C_5  and  O_6
REMARK    6  A    between atoms: C_17  and  C_18
REMARK                            x       y       z     vdW  Elec       q    Type
REMARK                         _______ _______ _______ _____ _____    ______ ____
ROOT
ATOM      1  O   UNL     1       0.272  10.175  20.652  0.00  0.00    +0.000 OA
ATOM      2  C   UNL     1       0.675  10.086  19.493  0.00  0.00    +0.000 C 
ATOM      3  N   UNL     1       0.315  11.037  18.560  0.00  0.00    +0.000 N 
ATOM      4  H   UNL     1       0.747  10.993  17.645  0.00  0.00    +0.000 HD
ENDROOT
BRANCH   2   5
ATOM      5  C   UNL     1       1.530   9.001  19.033  0.00  0.00    +0.000 A 
ATOM      6  C   UNL     1       2.184   8.934  17.818  0.00  0.00    +0.000 A 
ATOM      7  C   UNL     1       2.963   7.748  17.676  0.00  0.00    +0.000 A 
ATOM      8  C   UNL     1       2.875   6.921  18.780  0.00  0.00    +0.000 A 
ATOM      9  S   UNL     1       1.852   7.606  19.969  0.00  0.00    +0.000 S 
BRANCH   8  10
ATOM     10  C   UNL     1       3.595   5.605  18.907  0.00  0.00    +0.000 A 
ATOM     11  C   UNL     1       4.931   5.493  19.262  0.00  0.00    +0.000 A 
ATOM     12  N   UNL     1       5.253   4.163  19.304  0.00  0.00    +0.000 N 
ATOM     13  C   UNL     1       4.165   3.410  18.974  0.00  0.00    +0.000 A 
ATOM     14  N   UNL     1       4.172   2.065  18.922  0.00  0.00    +0.000 NA
ATOM     15  C   UNL     1       2.980   1.543  18.563  0.00  0.00    +0.000 A 
ATOM     16  C   UNL     1       1.838   2.272  18.268  0.00  0.00    +0.000 A 
ATOM     17  C   UNL     1       1.886   3.665  18.340  0.00  0.00    +0.000 A 
ATOM     18  C   UNL     1       3.101   4.274  18.712  0.00  0.00    +0.000 A 
ATOM     19  H   UNL     1       6.153   3.766  19.538  0.00  0.00    +0.000 HD
ENDBRANCH   8  10
ENDBRANCH   2   5
BRANCH   3  20
ATOM     20  CA  UNL     1      -0.544  12.166  18.902  0.00  0.00    +0.000 C 
BRANCH  20  21
ATOM     21  C   UNL     1      -1.976  11.900  18.474  0.00  0.00    +0.000 A 
ATOM     22  C   UNL     1      -3.032  12.175  19.362  0.00  0.00    +0.000 A 
ATOM     23  C   UNL     1      -4.358  11.933  18.993  0.00  0.00    +0.000 A 
ATOM     24  C   UNL     1      -4.632  11.412  17.735  0.00  0.00    +0.000 A 
ATOM     25  F   UNL     1      -5.903  11.173  17.383  0.00  0.00    +0.000 F 
ATOM     26  C   UNL     1      -3.608  11.136  16.837  0.00  0.00    +0.000 A 
ATOM     27  C   UNL     1      -2.283  11.381  17.203  0.00  0.00    +0.000 A 
ENDBRANCH  20  21
BRANCH  20  28
ATOM     28  C   UNL     1      -0.008  13.499  18.326  0.00  0.00    +0.000 C 
BRANCH  28  29
ATOM     29  O   UNL     1      -0.802  14.631  18.683  0.00  0.00    +0.000 OA
ATOM     30  H   UNL     1      -1.412  14.369  19.406  0.00  0.00    +0.000 HD
ENDBRANCH  28  29
ENDBRANCH  20  28
ENDBRANCH   3  20
TORSDOF 6
ENDMDL
MODEL 3
REMARK VINA RESULT:      -7.8      2.404      3.010
REMARK  Name = 
REMARK  6 active torsions:
REMARK  status: ('A' for Active; 'I' for Inactive)
REMARK    1  A    between atoms: C_2  and  C_14
REMARK    2  A    between atoms: N_3  and  CA_4
REMARK    3  A    between atoms: CA_4  and  C_5
REMARK    4  A    between atoms: CA_4  and  C_7
REMARK    5  A    between atoms: C_5  and  O_6
REMARK    6  A    between atoms: C_17  and  C_18
REMARK                            x       y       z     vdW  Elec       q    Type
REMARK                         _______ _______ _______ _____ _____    ______ ____
ROOT
ATOM      1  O   UNL     1       0.809   9.410  21.335  0.00  0.00    +0.000 OA
ATOM      2  C   UNL     1       1.073   9.012  20.200  0.00  0.00    +0.000 C 
ATOM      3  N   UNL     1       0.755   9.787  19.104  0.00  0.00    +0.000 N 
ATOM      4  H   UNL     1       1.079   9.480  18.195  0.00  0.00    +0.000 HD
ENDROOT
BRANCH   2   5
ATOM      5  C   UNL     1       1.714   7.730  19.940  0.00  0.00    +0.000 A 
ATOM      6  C   UNL     1       1.709   6.629  20.774  0.00  0.00    +0.000 A 
ATOM      7  C   UNL     1       2.410   5.517  20.223  0.00  0.00    +0.000 A 
ATOM      8  C   UNL     1       2.954   5.796  18.983  0.00  0.00    +0.000 A 
ATOM      9  S   UNL     1       2.596   7.402  18.513  0.00  0.00    +0.000 S 
BRANCH   8  10
ATOM     10  C   UNL     1       3.744   4.807  18.167  0.00  0.00    +0.000 A 
ATOM     11  C   UNL     1       3.776   3.446  18.432  0.00  0.00    +0.000 A 
ATOM     12  N   UNL     1       4.568   2.845  17.490  0.00  0.00    +0.000 N 
ATOM     13  C   UNL     1       5.059   3.781  16.629  0.00  0.00    +0.000 A 
ATOM     14  N   UNL     1       5.874   3.495  15.597  0.00  0.00    +0.000 NA
ATOM     15  C   UNL     1       6.235   4.587  14.890  0.00  0.00    +0.000 A 
ATOM     16  C   UNL     1       5.838   5.888  15.159  0.00  0.00    +0.000 A 
ATOM     17  C   UNL     1       4.989   6.127  16.241  0.00  0.00    +0.000 A 
ATOM     18  C   UNL     1       4.572   5.029  17.018  0.00  0.00    +0.000 A 
ATOM     19  H   UNL     1       4.778   1.858  17.418  0.00  0.00    +0.000 HD
ENDBRANCH   8  10
ENDBRANCH   2   5
BRANCH   3  20
ATOM     20  CA  UNL     1       0.104  11.086  19.240  0.00  0.00    +0.000 C 
BRANCH  20  21
ATOM     21  C   UNL     1      -1.305  11.042  18.677  0.00  0.00    +0.000 A 
ATOM     22  C   UNL     1      -2.299  11.876  19.221  0.00  0.00    +0.000 A 
ATOM     23  C   UNL     1      -3.605  11.849  18.724  0.00  0.00    +0.000 A 
ATOM     24  C   UNL     1      -3.921  10.986  17.682  0.00  0.00    +0.000 A 
ATOM     25  F   UNL     1      -5.175  10.954  17.209  0.00  0.00    +0.000 F 
ATOM     26  C   UNL     1      -2.957  10.156  17.124  0.00  0.00    +0.000 A 
ATOM     27  C   UNL     1      -1.650  10.184  17.617  0.00  0.00    +0.000 A 
ENDBRANCH  20  21
BRANCH  20  28
ATOM     28  C   UNL     1       0.942  12.225  18.610  0.00  0.00    +0.000 C 
BRANCH  28  29
ATOM     29  O   UNL     1       2.151  11.769  18.001  0.00  0.00    +0.000 OA
ATOM     30  H   UNL     1       2.049  11.819  17.026  0.00  0.00    +0.000 HD
ENDBRANCH  28  29
ENDBRANCH  20  28
ENDBRANCH   3  20
TORSDOF 6
ENDMDL
MODEL 4
REMARK VINA RESULT:      -7.7      1.216      2.374
REMARK  Name = 
REMARK  6 active torsions:
REMARK  status: ('A' for Active; 'I' for Inactive)
REMARK    1  A    between atoms: C_2  and  C_14
REMARK    2  A    between atoms: N_3  and  CA_4
REMARK    3  A    between atoms: CA_4  and  C_5
REMARK    4  A    between atoms: CA_4  and  C_7
REMARK    5  A    between atoms: C_5  and  O_6
REMARK    6  A    between atoms: C_17  and  C_18
REMARK                            x       y       z     vdW  Elec       q    Type
REMARK                         _______ _______ _______ _____ _____    ______ ____
ROOT
ATOM      1  O   UNL     1       1.361  11.726  19.469  0.00  0.00    +0.000 OA
ATOM      2  C   UNL     1       0.689  10.698  19.547  0.00  0.00    +0.000 C 
ATOM      3  N   UNL     1      -0.684  10.775  19.653  0.00  0.00    +0.000 N 
ATOM      4  H   UNL     1      -1.214   9.913  19.610  0.00  0.00    +0.000 HD
ENDROOT
BRANCH   2   5
ATOM      5  C   UNL     1       1.277   9.365  19.540  0.00  0.00    +0.000 A 
ATOM      6  C   UNL     1       1.334   8.491  20.609  0.00  0.00    +0.000 A 
ATOM      7  C   UNL     1       1.956   7.253  20.274  0.00  0.00    +0.000 A 
ATOM      8  C   UNL     1       2.380   7.211  18.959  0.00  0.00    +0.000 A 
ATOM      9  S   UNL     1       2.007   8.675  18.156  0.00  0.00    +0.000 S 
BRANCH   8  10
ATOM     10  C   UNL     1       3.065   6.026  18.332  0.00  0.00    +0.000 A 
ATOM     11  C   UNL     1       4.260   6.114  17.632  0.00  0.00    +0.000 A 
ATOM     12  N   UNL     1       4.608   4.856  17.218  0.00  0.00    +0.000 N 
ATOM     13  C   UNL     1       3.664   3.957  17.620  0.00  0.00    +0.000 A 
ATOM     14  N   UNL     1       3.726   2.638  17.358  0.00  0.00    +0.000 NA
ATOM     15  C   UNL     1       2.674   1.951  17.850  0.00  0.00    +0.000 A 
ATOM     16  C   UNL     1       1.614   2.499  18.557  0.00  0.00    +0.000 A 
ATOM     17  C   UNL     1       1.602   3.872  18.804  0.00  0.00    +0.000 A 
ATOM     18  C   UNL     1       2.674   4.648  18.319  0.00  0.00    +0.000 A 
ATOM     19  H   UNL     1       5.431   4.599  16.691  0.00  0.00    +0.000 HD
ENDBRANCH   8  10
ENDBRANCH   2   5
BRANCH   3  20
ATOM     20  CA  UNL     1      -1.385  12.055  19.678  0.00  0.00    +0.000 C 
BRANCH  20  21
ATOM     21  C   UNL     1      -2.157  12.218  20.975  0.00  0.00    +0.000 A 
ATOM     22  C   UNL     1      -3.448  12.779  20.953  0.00  0.00    +0.000 A 
ATOM     23  C   UNL     1      -4.175  12.945  22.134  0.00  0.00    +0.000 A 
ATOM     24  C   UNL     1      -3.614  12.553  23.343  0.00  0.00    +0.000 A 
ATOM     25  F   UNL     1      -4.308  12.719  24.477  0.00  0.00    +0.000 F 
ATOM     26  C   UNL     1      -2.344  11.993  23.392  0.00  0.00    +0.000 A 
ATOM     27  C   UNL     1      -1.616  11.822  22.212  0.00  0.00    +0.000 A 
ENDBRANCH  20  21
BRANCH  20  28
ATOM     28  C   UNL     1      -2.293  12.244  18.439  0.00  0.00    +0.000 C 
BRANCH  28  29
ATOM     29  O   UNL     1      -1.564  12.400  17.221  0.00  0.00    +0.000 OA
ATOM     30  H   UNL     1      -0.764  11.833  17.260  0.00  0.00    +0.000 HD
ENDBRANCH  28  29
ENDBRANCH  20  28
ENDBRANCH   3  20
TORSDOF 6
ENDMDL
MODEL 5
REMARK VINA RESULT:      -7.7      2.752      3.715
REMARK  Name = 
REMARK  6 active torsions:
REMARK  status: ('A' for Active; 'I' for Inactive)
REMARK    1  A    between atoms: C_2  and  C_14
REMARK    2  A    between atoms: N_3  and  CA_4
REMARK    3  A    between atoms: CA_4  and  C_5
REMARK    4  A    between atoms: CA_4  and  C_7
REMARK    5  A    between atoms: C_5  and  O_6
REMARK    6  A    between atoms: C_17  and  C_18
REMARK                            x       y       z     vdW  Elec       q    Type
REMARK                         _______ _______ _______ _____ _____    ______ ____
ROOT
ATOM      1  O   UNL     1       0.948  10.977  20.699  0.00  0.00    +0.000 OA
ATOM      2  C   UNL     1       0.715  10.444  19.614  0.00  0.00    +0.000 C 
ATOM      3  N   UNL     1      -0.279  10.941  18.798  0.00  0.00    +0.000 N 
ATOM      4  H   UNL     1      -0.374  10.547  17.870  0.00  0.00    +0.000 HD
ENDROOT
BRANCH   2   5
ATOM      5  C   UNL     1       1.447   9.281  19.131  0.00  0.00    +0.000 A 
ATOM      6  C   UNL     1       1.983   9.120  17.867  0.00  0.00    +0.000 A 
ATOM      7  C   UNL     1       2.660   7.875  17.712  0.00  0.00    +0.000 A 
ATOM      8  C   UNL     1       2.613   7.100  18.855  0.00  0.00    +0.000 A 
ATOM      9  S   UNL     1       1.752   7.903  20.096  0.00  0.00    +0.000 S 
BRANCH   8  10
ATOM     10  C   UNL     1       3.247   5.739  18.978  0.00  0.00    +0.000 A 
ATOM     11  C   UNL     1       4.594   5.542  19.244  0.00  0.00    +0.000 A 
ATOM     12  N   UNL     1       4.825   4.194  19.309  0.00  0.00    +0.000 N 
ATOM     13  C   UNL     1       3.666   3.512  19.080  0.00  0.00    +0.000 A 
ATOM     14  N   UNL     1       3.576   2.169  19.074  0.00  0.00    +0.000 NA
ATOM     15  C   UNL     1       2.328   1.724  18.816  0.00  0.00    +0.000 A 
ATOM     16  C   UNL     1       1.221   2.524  18.574  0.00  0.00    +0.000 A 
ATOM     17  C   UNL     1       1.372   3.912  18.596  0.00  0.00    +0.000 A 
ATOM     18  C   UNL     1       2.649   4.442  18.862  0.00  0.00    +0.000 A 
ATOM     19  H   UNL     1       5.709   3.740  19.495  0.00  0.00    +0.000 HD
ENDBRANCH   8  10
ENDBRANCH   2   5
BRANCH   3  20
ATOM     20  CA  UNL     1      -1.084  12.097  19.179  0.00  0.00    +0.000 C 
BRANCH  20  21
ATOM     21  C   UNL     1      -2.531  11.905  18.761  0.00  0.00    +0.000 A 
ATOM     22  C   UNL     1      -2.825  11.313  17.518  0.00  0.00    +0.000 A 
ATOM     23  C   UNL     1      -4.148  11.131  17.109  0.00  0.00    +0.000 A 
ATOM     24  C   UNL     1      -5.183  11.541  17.939  0.00  0.00    +0.000 A 
ATOM     25  F   UNL     1      -6.452  11.373  17.545  0.00  0.00    +0.000 F 
ATOM     26  C   UNL     1      -4.920  12.123  19.173  0.00  0.00    +0.000 A 
ATOM     27  C   UNL     1      -3.598  12.303  19.586  0.00  0.00    +0.000 A 
ENDBRANCH  20  21
BRANCH  20  28
ATOM     28  C   UNL     1      -0.496  13.421  18.631  0.00  0.00    +0.000 C 
BRANCH  28  29
ATOM     29  O   UNL     1       0.600  13.916  19.402  0.00  0.00    +0.000 OA
ATOM     30  H   UNL     1       1.407  13.417  19.152  0.00  0.00    +0.000 HD
ENDBRANCH  28  29
ENDBRANCH  20  28
ENDBRANCH   3  20
TORSDOF 6
ENDMDL
MODEL 6
REMARK VINA RESULT:      -7.6      2.751      3.993
REMARK  Name = 
REMARK  6 active torsions:
REMARK  status: ('A' for Active; 'I' for Inactive)
REMARK    1  A    between atoms: C_2  and  C_14
REMARK    2  A    between atoms: N_3  and  CA_4
REMARK    3  A    between atoms: CA_4  and  C_5
REMARK    4  A    between atoms: CA_4  and  C_7
REMARK    5  A    between atoms: C_5  and  O_6
REMARK    6  A    between atoms: C_17  and  C_18
REMARK                            x       y       z     vdW  Elec       q    Type
REMARK                         _______ _______ _______ _____ _____    ______ ____
ROOT
ATOM      1  O   UNL     1       1.028  11.342  20.519  0.00  0.00    +0.000 OA
ATOM      2  C   UNL     1       0.677  10.629  19.580  0.00  0.00    +0.000 C 
ATOM      3  N   UNL     1      -0.439  10.959  18.839  0.00  0.00    +0.000 N 
ATOM      4  H   UNL     1      -0.639  10.411  18.011  0.00  0.00    +0.000 HD
ENDROOT
BRANCH   2   5
ATOM      5  C   UNL     1       1.390   9.418  19.196  0.00  0.00    +0.000 A 
ATOM      6  C   UNL     1       1.949   9.155  17.960  0.00  0.00    +0.000 A 
ATOM      7  C   UNL     1       2.598   7.887  17.908  0.00  0.00    +0.000 A 
ATOM      8  C   UNL     1       2.507   7.196  19.101  0.00  0.00    +0.000 A 
ATOM      9  S   UNL     1       1.639   8.105  20.263  0.00  0.00    +0.000 S 
BRANCH   8  10
ATOM     10  C   UNL     1       3.104   5.833  19.335  0.00  0.00    +0.000 A 
ATOM     11  C   UNL     1       4.374   5.469  18.911  0.00  0.00    +0.000 A 
ATOM     12  N   UNL     1       4.603   4.177  19.304  0.00  0.00    +0.000 N 
ATOM     13  C   UNL     1       3.511   3.690  19.960  0.00  0.00    +0.000 A 
ATOM     14  N   UNL     1       3.433   2.444  20.462  0.00  0.00    +0.000 NA
ATOM     15  C   UNL     1       2.251   2.188  21.061  0.00  0.00    +0.000 A 
ATOM     16  C   UNL     1       1.194   3.080  21.172  0.00  0.00    +0.000 A 
ATOM     17  C   UNL     1       1.331   4.361  20.635  0.00  0.00    +0.000 A 
ATOM     18  C   UNL     1       2.542   4.694  19.999  0.00  0.00    +0.000 A 
ATOM     19  H   UNL     1       5.443   3.637  19.145  0.00  0.00    +0.000 HD
ENDBRANCH   8  10
ENDBRANCH   2   5
BRANCH   3  20
ATOM     20  CA  UNL     1      -1.238  12.144  19.134  0.00  0.00    +0.000 C 
BRANCH  20  21
ATOM     21  C   UNL     1      -2.681  11.936  18.713  0.00  0.00    +0.000 A 
ATOM     22  C   UNL     1      -3.721  12.261  19.605  0.00  0.00    +0.000 A 
ATOM     23  C   UNL     1      -5.057  12.073  19.243  0.00  0.00    +0.000 A 
ATOM     24  C   UNL     1      -5.360  11.557  17.989  0.00  0.00    +0.000 A 
ATOM     25  F   UNL     1      -6.641  11.370  17.644  0.00  0.00    +0.000 F 
ATOM     26  C   UNL     1      -4.352  11.233  17.089  0.00  0.00    +0.000 A 
ATOM     27  C   UNL     1      -3.016  11.424  17.447  0.00  0.00    +0.000 A 
ENDBRANCH  20  21
BRANCH  20  28
ATOM     28  C   UNL     1      -0.632  13.423  18.506  0.00  0.00    +0.000 C 
BRANCH  28  29
ATOM     29  O   UNL     1      -1.126  14.629  19.090  0.00  0.00    +0.000 OA
ATOM     30  H   UNL     1      -0.851  14.656  20.032  0.00  0.00    +0.000 HD
ENDBRANCH  28  29
ENDBRANCH  20  28
ENDBRANCH   3  20
TORSDOF 6
ENDMDL
MODEL 7
REMARK VINA RESULT:      -7.6      2.668      3.786
REMARK  Name = 
REMARK  6 active torsions:
REMARK  status: ('A' for Active; 'I' for Inactive)
REMARK    1  A    between atoms: C_2  and  C_14
REMARK    2  A    between atoms: N_3  and  CA_4
REMARK    3  A    between atoms: CA_4  and  C_5
REMARK    4  A    between atoms: CA_4  and  C_7
REMARK    5  A    between atoms: C_5  and  O_6
REMARK    6  A    between atoms: C_17  and  C_18
REMARK                            x       y       z     vdW  Elec       q    Type
REMARK                         _______ _______ _______ _____ _____    ______ ____
ROOT
ATOM      1  O   UNL     1       0.236  10.838  21.383  0.00  0.00    +0.000 OA
ATOM      2  C   UNL     1       0.132  10.515  20.200  0.00  0.00    +0.000 C 
ATOM      3  N   UNL     1      -0.785  11.149  19.388  0.00  0.00    +0.000 N 
ATOM      4  H   UNL     1      -0.773  10.934  18.398  0.00  0.00    +0.000 HD
ENDROOT
BRANCH   2   5
ATOM      5  C   UNL     1       0.940   9.467  19.592  0.00  0.00    +0.000 A 
ATOM      6  C   UNL     1       1.370   9.424  18.280  0.00  0.00    +0.000 A 
ATOM      7  C   UNL     1       2.164   8.274  17.998  0.00  0.00    +0.000 A 
ATOM      8  C   UNL     1       2.310   7.449  19.096  0.00  0.00    +0.000 A 
ATOM      9  S   UNL     1       1.484   8.092  20.450  0.00  0.00    +0.000 S 
BRANCH   8  10
ATOM     10  C   UNL     1       3.099   6.166  19.089  0.00  0.00    +0.000 A 
ATOM     11  C   UNL     1       4.198   5.947  18.272  0.00  0.00    +0.000 A 
ATOM     12  N   UNL     1       4.685   4.694  18.535  0.00  0.00    +0.000 N 
ATOM     13  C   UNL     1       3.923   4.091  19.493  0.00  0.00    +0.000 A 
ATOM     14  N   UNL     1       4.151   2.850  19.959  0.00  0.00    +0.000 NA
ATOM     15  C   UNL     1       3.260   2.465  20.897  0.00  0.00    +0.000 A 
ATOM     16  C   UNL     1       2.202   3.230  21.365  0.00  0.00    +0.000 A 
ATOM     17  C   UNL     1       2.014   4.513  20.848  0.00  0.00    +0.000 A 
ATOM     18  C   UNL     1       2.912   4.977  19.867  0.00  0.00    +0.000 A 
ATOM     19  H   UNL     1       5.484   4.253  18.101  0.00  0.00    +0.000 HD
ENDBRANCH   8  10
ENDBRANCH   2   5
BRANCH   3  20
ATOM     20  CA  UNL     1      -1.655  12.209  19.887  0.00  0.00    +0.000 C 
BRANCH  20  21
ATOM     21  C   UNL     1      -3.046  12.087  19.291  0.00  0.00    +0.000 A 
ATOM     22  C   UNL     1      -3.222  11.421  18.064  0.00  0.00    +0.000 A 
ATOM     23  C   UNL     1      -4.492  11.300  17.493  0.00  0.00    +0.000 A 
ATOM     24  C   UNL     1      -5.589  11.847  18.145  0.00  0.00    +0.000 A 
ATOM     25  F   UNL     1      -6.806  11.738  17.595  0.00  0.00    +0.000 F 
ATOM     26  C   UNL     1      -5.443  12.504  19.360  0.00  0.00    +0.000 A 
ATOM     27  C   UNL     1      -4.175  12.623  19.935  0.00  0.00    +0.000 A 
ENDBRANCH  20  21
BRANCH  20  28
ATOM     28  C   UNL     1      -1.049  13.615  19.655  0.00  0.00    +0.000 C 
BRANCH  28  29
ATOM     29  O   UNL     1      -0.682  13.857  18.297  0.00  0.00    +0.000 OA
ATOM     30  H   UNL     1      -0.654  14.827  18.149  0.00  0.00    +0.000 HD
ENDBRANCH  28  29
ENDBRANCH  20  28
ENDBRANCH   3  20
TORSDOF 6
ENDMDL
MODEL 8
REMARK VINA RESULT:      -7.5      0.585      1.099
REMARK  Name = 
REMARK  6 active torsions:
REMARK  status: ('A' for Active; 'I' for Inactive)
REMARK    1  A    between atoms: C_2  and  C_14
REMARK    2  A    between atoms: N_3  and  CA_4
REMARK    3  A    between atoms: CA_4  and  C_5
REMARK    4  A    between atoms: CA_4  and  C_7
REMARK    5  A    between atoms: C_5  and  O_6
REMARK    6  A    between atoms: C_17  and  C_18
REMARK                            x       y       z     vdW  Elec       q    Type
REMARK                         _______ _______ _______ _____ _____    ______ ____
ROOT
ATOM      1  O   UNL     1       1.526  11.302  18.735  0.00  0.00    +0.000 OA
ATOM      2  C   UNL     1       0.906  10.351  19.209  0.00  0.00    +0.000 C 
ATOM      3  N   UNL     1      -0.366  10.533  19.708  0.00  0.00    +0.000 N 
ATOM      4  H   UNL     1      -0.888   9.713  19.994  0.00  0.00    +0.000 HD
ENDROOT
BRANCH   2   5
ATOM      5  C   UNL     1       1.457   9.004  19.280  0.00  0.00    +0.000 A 
ATOM      6  C   UNL     1       1.494   8.194  20.399  0.00  0.00    +0.000 A 
ATOM      7  C   UNL     1       2.080   6.921  20.138  0.00  0.00    +0.000 A 
ATOM      8  C   UNL     1       2.498   6.789  18.828  0.00  0.00    +0.000 A 
ATOM      9  S   UNL     1       2.163   8.213  17.939  0.00  0.00    +0.000 S 
BRANCH   8  10
ATOM     10  C   UNL     1       3.148   5.551  18.271  0.00  0.00    +0.000 A 
ATOM     11  C   UNL     1       2.843   4.266  18.696  0.00  0.00    +0.000 A 
ATOM     12  N   UNL     1       3.598   3.383  17.970  0.00  0.00    +0.000 N 
ATOM     13  C   UNL     1       4.393   4.062  17.095  0.00  0.00    +0.000 A 
ATOM     14  N   UNL     1       5.253   3.466  16.248  0.00  0.00    +0.000 NA
ATOM     15  C   UNL     1       5.938   4.344  15.486  0.00  0.00    +0.000 A 
ATOM     16  C   UNL     1       5.808   5.724  15.532  0.00  0.00    +0.000 A 
ATOM     17  C   UNL     1       4.898   6.289  16.428  0.00  0.00    +0.000 A 
ATOM     18  C   UNL     1       4.149   5.427  17.252  0.00  0.00    +0.000 A 
ATOM     19  H   UNL     1       3.591   2.375  18.049  0.00  0.00    +0.000 HD
ENDBRANCH   8  10
ENDBRANCH   2   5
BRANCH   3  20
ATOM     20  CA  UNL     1      -1.019  11.838  19.698  0.00  0.00    +0.000 C 
BRANCH  20  21
ATOM     21  C   UNL     1      -1.810  12.053  20.977  0.00  0.00    +0.000 A 
ATOM     22  C   UNL     1      -3.025  12.762  20.934  0.00  0.00    +0.000 A 
ATOM     23  C   UNL     1      -3.767  12.977  22.099  0.00  0.00    +0.000 A 
ATOM     24  C   UNL     1      -3.296  12.486  23.309  0.00  0.00    +0.000 A 
ATOM     25  F   UNL     1      -4.004  12.698  24.428  0.00  0.00    +0.000 F 
ATOM     26  C   UNL     1      -2.103  11.779  23.377  0.00  0.00    +0.000 A 
ATOM     27  C   UNL     1      -1.361  11.559  22.215  0.00  0.00    +0.000 A 
ENDBRANCH  20  21
BRANCH  20  28
ATOM     28  C   UNL     1      -1.895  12.040  18.437  0.00  0.00    +0.000 C 
BRANCH  28  29
ATOM     29  O   UNL     1      -1.139  12.109  17.228  0.00  0.00    +0.000 OA
ATOM     30  H   UNL     1      -0.957  13.052  17.026  0.00  0.00    +0.000 HD
ENDBRANCH  28  29
ENDBRANCH  20  28
ENDBRANCH   3  20
TORSDOF 6
ENDMDL
MODEL 9
REMARK VINA RESULT:      -7.5      4.403     10.027
REMARK  Name = 
REMARK  6 active torsions:
REMARK  status: ('A' for Active; 'I' for Inactive)
REMARK    1  A    between atoms: C_2  and  C_14
REMARK    2  A    between atoms: N_3  and  CA_4
REMARK    3  A    between atoms: CA_4  and  C_5
REMARK    4  A    between atoms: CA_4  and  C_7
REMARK    5  A    between atoms: C_5  and  O_6
REMARK    6  A    between atoms: C_17  and  C_18
REMARK                            x       y       z     vdW  Elec       q    Type
REMARK                         _______ _______ _______ _____ _____    ______ ____
ROOT
ATOM      1  O   UNL     1       2.690   5.248  17.839  0.00  0.00    +0.000 OA
ATOM      2  C   UNL     1       3.052   5.930  18.797  0.00  0.00    +0.000 C 
ATOM      3  N   UNL     1       4.186   5.585  19.503  0.00  0.00    +0.000 N 
ATOM      4  H   UNL     1       4.515   6.223  20.218  0.00  0.00    +0.000 HD
ENDROOT
BRANCH   2   5
ATOM      5  C   UNL     1       2.329   7.112  19.246  0.00  0.00    +0.000 A 
ATOM      6  C   UNL     1       2.062   8.241  18.496  0.00  0.00    +0.000 A 
ATOM      7  C   UNL     1       1.313   9.217  19.217  0.00  0.00    +0.000 A 
ATOM      8  C   UNL     1       1.038   8.822  20.512  0.00  0.00    +0.000 A 
ATOM      9  S   UNL     1       1.689   7.271  20.824  0.00  0.00    +0.000 S 
BRANCH   8  10
ATOM     10  C   UNL     1       0.260   9.652  21.500  0.00  0.00    +0.000 A 
ATOM     11  C   UNL     1      -0.460   9.113  22.556  0.00  0.00    +0.000 A 
ATOM     12  N   UNL     1      -1.023  10.142  23.261  0.00  0.00    +0.000 N 
ATOM     13  C   UNL     1      -0.697  11.334  22.683  0.00  0.00    +0.000 A 
ATOM     14  N   UNL     1      -1.109  12.528  23.147  0.00  0.00    +0.000 NA
ATOM     15  C   UNL     1      -0.666  13.565  22.404  0.00  0.00    +0.000 A 
ATOM     16  C   UNL     1       0.129  13.464  21.273  0.00  0.00    +0.000 A 
ATOM     17  C   UNL     1       0.529  12.200  20.838  0.00  0.00    +0.000 A 
ATOM     18  C   UNL     1       0.104  11.074  21.570  0.00  0.00    +0.000 A 
ATOM     19  H   UNL     1      -1.600  10.065  24.087  0.00  0.00    +0.000 HD
ENDBRANCH   8  10
ENDBRANCH   2   5
BRANCH   3  20
ATOM     20  CA  UNL     1       4.988   4.418  19.151  0.00  0.00    +0.000 C 
BRANCH  20  21
ATOM     21  C   UNL     1       5.613   4.590  17.779  0.00  0.00    +0.000 A 
ATOM     22  C   UNL     1       6.613   5.562  17.585  0.00  0.00    +0.000 A 
ATOM     23  C   UNL     1       7.199   5.743  16.329  0.00  0.00    +0.000 A 
ATOM     24  C   UNL     1       6.786   4.955  15.262  0.00  0.00    +0.000 A 
ATOM     25  F   UNL     1       7.342   5.133  14.056  0.00  0.00    +0.000 F 
ATOM     26  C   UNL     1       5.805   3.985  15.429  0.00  0.00    +0.000 A 
ATOM     27  C   UNL     1       5.220   3.800  16.684  0.00  0.00    +0.000 A 
ENDBRANCH  20  21
BRANCH  20  28
ATOM     28  C   UNL     1       4.178   3.103  19.256  0.00  0.00    +0.000 C 
BRANCH  28  29
ATOM     29  O   UNL     1       4.960   1.988  19.684  0.00  0.00    +0.000 OA
ATOM     30  H   UNL     1       4.606   1.667  20.541  0.00  0.00    +0.000 HD
ENDBRANCH  28  29
ENDBRANCH  20  28
ENDBRANCH   3  20
TORSDOF 6
ENDMDL
