MODEL 1
REMARK VINA RESULT:      -7.5      0.000      0.000
REMARK  Name = 
REMARK  6 active torsions:
REMARK  status: ('A' for Active; 'I' for Inactive)
REMARK    1  A    between atoms: C_1  and  C_2
REMARK    2  A    between atoms: C_2  and  O_3
REMARK    3  A    between atoms: O_3  and  C_4
REMARK    4  A    between atoms: C_4  and  C_6
REMARK    5  A    between atoms: N_9  and  C_10
REMARK    6  A    between atoms: C_10  and  C_11
REMARK                            x       y       z     vdW  Elec       q    Type
REMARK                         _______ _______ _______ _____ _____    ______ ____
ROOT
ATOM      1  C   UNL     1       7.139   6.265  17.685  0.00  0.00    +0.000 C 
ATOM      2  C   UNL     1       6.572   5.593  18.935  0.00  0.00    +0.000 C 
ATOM      3  C   UNL     1       5.238   4.908  18.640  0.00  0.00    +0.000 C 
ATOM      4  N   UNL     1       4.244   5.857  18.113  0.00  0.00    +0.000 NA
ATOM      5  C   UNL     1       4.735   6.537  16.902  0.00  0.00    +0.000 C 
ATOM      6  C   UNL     1       6.088   7.224  17.118  0.00  0.00    +0.000 C 
ENDROOT
BRANCH   1   7
ATOM      7  C   UNL     1       7.575   5.241  16.644  0.00  0.00    +0.000 C 
ATOM      8  O   UNL     1       8.006   4.125  16.899  0.00  0.00    +0.000 OA
BRANCH   7   9
ATOM      9  O   UNL     1       7.400   5.735  15.386  0.00  0.00    +0.000 OA
BRANCH   9  11
ATOM     10  C   UNL     1       7.603   5.057  13.075  0.00  0.00    +0.000 C 
ATOM     11  C   UNL     1       6.937   4.789  14.411  0.00  0.00    +0.000 C 
ENDBRANCH   9  11
ENDBRANCH   7   9
ENDBRANCH   1   7
BRANCH   4  12
ATOM     12  C   UNL     1       2.974   5.163  17.789  0.00  0.00    +0.000 C 
BRANCH  12  13
ATOM     13  C   UNL     1       2.390   4.400  18.956  0.00  0.00    +0.000 A 
ATOM     14  C   UNL     1       2.232   5.014  20.208  0.00  0.00    +0.000 A 
ATOM     15  C   UNL     1       1.746   4.280  21.292  0.00  0.00    +0.000 A 
ATOM     16  C   UNL     1       1.411   2.940  21.121  0.00  0.00    +0.000 A 
ATOM     17  F   UNL     1       0.967   2.235  22.170  0.00  0.00    +0.000 F 
ATOM     18  C   UNL     1       1.539   2.321  19.887  0.00  0.00    +0.000 A 
ATOM     19  C   UNL     1       2.025   3.055  18.813  0.00  0.00    +0.000 A 
ATOM     20  F   UNL     1       2.158   2.446  17.626  0.00  0.00    +0.000 F 
ENDBRANCH  12  13
ENDBRANCH   4  12
TORSDOF 5
ENDMDL
MODEL 2
REMARK VINA RESULT:      -7.5      1.710      2.582
REMARK  Name = 
REMARK  6 active torsions:
REMARK  status: ('A' for Active; 'I' for Inactive)
REMARK    1  A    between atoms: C_1  and  C_2
REMARK    2  A    between atoms: C_2  and  O_3
REMARK    3  A    between atoms: O_3  and  C_4
REMARK    4  A    between atoms: C_4  and  C_6
REMARK    5  A    between atoms: N_9  and  C_10
REMARK    6  A    between atoms: C_10  and  C_11
REMARK                            x       y       z     vdW  Elec       q    Type
REMARK                         _______ _______ _______ _____ _____    ______ ____
ROOT
ATOM      1  C   UNL     1       5.892   6.414  16.584  0.00  0.00    +0.000 C 
ATOM      2  C   UNL     1       4.780   6.482  17.630  0.00  0.00    +0.000 C 
ATOM      3  C   UNL     1       4.440   5.094  18.171  0.00  0.00    +0.000 C 
ATOM      4  N   UNL     1       4.029   4.177  17.094  0.00  0.00    +0.000 NA
ATOM      5  C   UNL     1       5.065   4.068  16.052  0.00  0.00    +0.000 C 
ATOM      6  C   UNL     1       5.477   5.431  15.484  0.00  0.00    +0.000 C 
ENDROOT
BRANCH   1   7
ATOM      7  C   UNL     1       7.227   6.020  17.204  0.00  0.00    +0.000 C 
ATOM      8  O   UNL     1       7.837   4.990  16.954  0.00  0.00    +0.000 OA
BRANCH   7   9
ATOM      9  O   UNL     1       7.657   6.986  18.065  0.00  0.00    +0.000 OA
BRANCH   9  11
ATOM     10  C   UNL     1       8.555   9.196  18.451  0.00  0.00    +0.000 C 
ATOM     11  C   UNL     1       7.779   8.301  17.503  0.00  0.00    +0.000 C 
ENDBRANCH   9  11
ENDBRANCH   7   9
ENDBRANCH   1   7
BRANCH   4  12
ATOM     12  C   UNL     1       3.749   2.824  17.634  0.00  0.00    +0.000 C 
BRANCH  12  13
ATOM     13  C   UNL     1       2.975   2.841  18.931  0.00  0.00    +0.000 A 
ATOM     14  C   UNL     1       3.576   2.432  20.132  0.00  0.00    +0.000 A 
ATOM     15  C   UNL     1       2.831   2.398  21.312  0.00  0.00    +0.000 A 
ATOM     16  C   UNL     1       1.494   2.780  21.294  0.00  0.00    +0.000 A 
ATOM     17  F   UNL     1       0.777   2.723  22.424  0.00  0.00    +0.000 F 
ATOM     18  C   UNL     1       0.887   3.209  20.122  0.00  0.00    +0.000 A 
ATOM     19  C   UNL     1       1.632   3.239  18.951  0.00  0.00    +0.000 A 
ATOM     20  F   UNL     1       1.035   3.642  17.820  0.00  0.00    +0.000 F 
ENDBRANCH  12  13
ENDBRANCH   4  12
TORSDOF 5
ENDMDL
MODEL 3
REMARK VINA RESULT:      -7.5      1.784      2.865
REMARK  Name = 
REMARK  6 active torsions:
REMARK  status: ('A' for Active; 'I' for Inactive)
REMARK    1  A    between atoms: C_1  and  C_2
REMARK    2  A    between atoms: C_2  and  O_3
REMARK    3  A    between atoms: O_3  and  C_4
REMARK    4  A    between atoms: C_4  and  C_6
REMARK    5  A    between atoms: N_9  and  C_10
REMARK    6  A    between atoms: C_10  and  C_11
REMARK                            x       y       z     vdW  Elec       q    Type
REMARK                         _______ _______ _______ _____ _____    ______ ____
ROOT
ATOM      1  C   UNL     1       7.653   5.665  17.862  0.00  0.00    +0.000 C 
ATOM      2  C   UNL     1       7.185   4.773  16.712  0.00  0.00    +0.000 C 
ATOM      3  C   UNL     1       5.669   4.849  16.532  0.00  0.00    +0.000 C 
ATOM      4  N   UNL     1       4.956   4.462  17.761  0.00  0.00    +0.000 NA
ATOM      5  C   UNL     1       5.366   5.291  18.908  0.00  0.00    +0.000 C 
ATOM      6  C   UNL     1       6.882   5.284  19.130  0.00  0.00    +0.000 C 
ENDROOT
BRANCH   1   7
ATOM      7  C   UNL     1       7.484   7.143  17.533  0.00  0.00    +0.000 C 
ATOM      8  O   UNL     1       6.752   7.585  16.659  0.00  0.00    +0.000 OA
BRANCH   7   9
ATOM      9  O   UNL     1       8.249   7.908  18.363  0.00  0.00    +0.000 OA
BRANCH   9  11
ATOM     10  C   UNL     1       9.109  10.047  19.085  0.00  0.00    +0.000 C 
ATOM     11  C   UNL     1       8.311   9.303  18.031  0.00  0.00    +0.000 C 
ENDBRANCH   9  11
ENDBRANCH   7   9
ENDBRANCH   1   7
BRANCH   4  12
ATOM     12  C   UNL     1       3.490   4.587  17.579  0.00  0.00    +0.000 C 
BRANCH  12  13
ATOM     13  C   UNL     1       2.691   4.042  18.740  0.00  0.00    +0.000 A 
ATOM     14  C   UNL     1       2.007   4.905  19.611  0.00  0.00    +0.000 A 
ATOM     15  C   UNL     1       1.321   4.392  20.713  0.00  0.00    +0.000 A 
ATOM     16  C   UNL     1       1.311   3.019  20.938  0.00  0.00    +0.000 A 
ATOM     17  F   UNL     1       0.671   2.533  22.010  0.00  0.00    +0.000 F 
ATOM     18  C   UNL     1       1.962   2.146  20.078  0.00  0.00    +0.000 A 
ATOM     19  C   UNL     1       2.644   2.664  18.985  0.00  0.00    +0.000 A 
ATOM     20  F   UNL     1       3.281   1.815  18.165  0.00  0.00    +0.000 F 
ENDBRANCH  12  13
ENDBRANCH   4  12
TORSDOF 5
ENDMDL
MODEL 4
REMARK VINA RESULT:      -7.2      1.200      1.699
REMARK  Name = 
REMARK  6 active torsions:
REMARK  status: ('A' for Active; 'I' for Inactive)
REMARK    1  A    between atoms: C_1  and  C_2
REMARK    2  A    between atoms: C_2  and  O_3
REMARK    3  A    between atoms: O_3  and  C_4
REMARK    4  A    between atoms: C_4  and  C_6
REMARK    5  A    between atoms: N_9  and  C_10
REMARK    6  A    between atoms: C_10  and  C_11
REMARK                            x       y       z     vdW  Elec       q    Type
REMARK                         _______ _______ _______ _____ _____    ______ ____
ROOT
ATOM      1  C   UNL     1       7.279   6.242  17.766  0.00  0.00    +0.000 C 
ATOM      2  C   UNL     1       6.599   5.711  19.028  0.00  0.00    +0.000 C 
ATOM      3  C   UNL     1       5.209   5.157  18.719  0.00  0.00    +0.000 C 
ATOM      4  N   UNL     1       4.344   6.173  18.099  0.00  0.00    +0.000 NA
ATOM      5  C   UNL     1       4.947   6.723  16.873  0.00  0.00    +0.000 C 
ATOM      6  C   UNL     1       6.359   7.273  17.104  0.00  0.00    +0.000 C 
ENDROOT
BRANCH   1   7
ATOM      7  C   UNL     1       7.635   5.116  16.803  0.00  0.00    +0.000 C 
ATOM      8  O   UNL     1       8.058   4.018  17.136  0.00  0.00    +0.000 OA
BRANCH   7   9
ATOM      9  O   UNL     1       7.398   5.497  15.515  0.00  0.00    +0.000 OA
BRANCH   9  11
ATOM     10  C   UNL     1       5.599   4.040  14.823  0.00  0.00    +0.000 C 
ATOM     11  C   UNL     1       7.049   4.436  14.614  0.00  0.00    +0.000 C 
ENDBRANCH   9  11
ENDBRANCH   7   9
ENDBRANCH   1   7
BRANCH   4  12
ATOM     12  C   UNL     1       3.017   5.602  17.765  0.00  0.00    +0.000 C 
BRANCH  12  13
ATOM     13  C   UNL     1       2.441   4.736  18.860  0.00  0.00    +0.000 A 
ATOM     14  C   UNL     1       2.242   3.361  18.659  0.00  0.00    +0.000 A 
ATOM     15  C   UNL     1       1.655   2.584  19.659  0.00  0.00    +0.000 A 
ATOM     16  C   UNL     1       1.276   3.177  20.859  0.00  0.00    +0.000 A 
ATOM     17  F   UNL     1       0.692   2.432  21.807  0.00  0.00    +0.000 F 
ATOM     18  C   UNL     1       1.483   4.530  21.086  0.00  0.00    +0.000 A 
ATOM     19  C   UNL     1       2.066   5.298  20.087  0.00  0.00    +0.000 A 
ATOM     20  F   UNL     1       2.251   6.608  20.309  0.00  0.00    +0.000 F 
ENDBRANCH  12  13
ENDBRANCH   4  12
TORSDOF 5
ENDMDL
MODEL 5
REMARK VINA RESULT:      -7.0      2.167      3.257
REMARK  Name = 
REMARK  6 active torsions:
REMARK  status: ('A' for Active; 'I' for Inactive)
REMARK    1  A    between atoms: C_1  and  C_2
REMARK    2  A    between atoms: C_2  and  O_3
REMARK    3  A    between atoms: O_3  and  C_4
REMARK    4  A    between atoms: C_4  and  C_6
REMARK    5  A    between atoms: N_9  and  C_10
REMARK    6  A    between atoms: C_10  and  C_11
REMARK                            x       y       z     vdW  Elec       q    Type
REMARK                         _______ _______ _______ _____ _____    ______ ____
ROOT
ATOM      1  C   UNL     1       7.766   5.807  18.590  0.00  0.00    +0.000 C 
ATOM      2  C   UNL     1       7.995   4.660  17.607  0.00  0.00    +0.000 C 
ATOM      3  C   UNL     1       6.768   4.431  16.725  0.00  0.00    +0.000 C 
ATOM      4  N   UNL     1       5.568   4.143  17.527  0.00  0.00    +0.000 NA
ATOM      5  C   UNL     1       5.294   5.218  18.497  0.00  0.00    +0.000 C 
ATOM      6  C   UNL     1       6.496   5.521  19.398  0.00  0.00    +0.000 C 
ENDROOT
BRANCH   1   7
ATOM      7  C   UNL     1       7.679   7.151  17.878  0.00  0.00    +0.000 C 
ATOM      8  O   UNL     1       6.974   7.383  16.906  0.00  0.00    +0.000 OA
BRANCH   7   9
ATOM      9  O   UNL     1       8.484   8.068  18.487  0.00  0.00    +0.000 OA
BRANCH   9  11
ATOM     10  C   UNL     1       9.030  10.364  19.005  0.00  0.00    +0.000 C 
ATOM     11  C   UNL     1       8.306   9.426  18.059  0.00  0.00    +0.000 C 
ENDBRANCH   9  11
ENDBRANCH   7   9
ENDBRANCH   1   7
BRANCH   4  12
ATOM     12  C   UNL     1       4.380   3.971  16.656  0.00  0.00    +0.000 C 
BRANCH  12  13
ATOM     13  C   UNL     1       3.143   3.532  17.403  0.00  0.00    +0.000 A 
ATOM     14  C   UNL     1       2.090   4.429  17.641  0.00  0.00    +0.000 A 
ATOM     15  C   UNL     1       0.979   4.026  18.383  0.00  0.00    +0.000 A 
ATOM     16  C   UNL     1       0.917   2.728  18.878  0.00  0.00    +0.000 A 
ATOM     17  F   UNL     1      -0.142   2.353  19.610  0.00  0.00    +0.000 F 
ATOM     18  C   UNL     1       1.936   1.818  18.637  0.00  0.00    +0.000 A 
ATOM     19  C   UNL     1       3.040   2.226  17.900  0.00  0.00    +0.000 A 
ATOM     20  F   UNL     1       4.027   1.345  17.681  0.00  0.00    +0.000 F 
ENDBRANCH  12  13
ENDBRANCH   4  12
TORSDOF 5
ENDMDL
MODEL 6
REMARK VINA RESULT:      -6.9      1.921      2.809
REMARK  Name = 
REMARK  6 active torsions:
REMARK  status: ('A' for Active; 'I' for Inactive)
REMARK    1  A    between atoms: C_1  and  C_2
REMARK    2  A    between atoms: C_2  and  O_3
REMARK    3  A    between atoms: O_3  and  C_4
REMARK    4  A    between atoms: C_4  and  C_6
REMARK    5  A    between atoms: N_9  and  C_10
REMARK    6  A    between atoms: C_10  and  C_11
REMARK                            x       y       z     vdW  Elec       q    Type
REMARK                         _______ _______ _______ _____ _____    ______ ____
ROOT
ATOM      1  C   UNL     1       5.714   6.531  17.153  0.00  0.00    +0.000 C 
ATOM      2  C   UNL     1       4.303   6.503  17.739  0.00  0.00    +0.000 C 
ATOM      3  C   UNL     1       3.895   5.086  18.142  0.00  0.00    +0.000 C 
ATOM      4  N   UNL     1       3.960   4.158  17.001  0.00  0.00    +0.000 NA
ATOM      5  C   UNL     1       5.301   4.139  16.393  0.00  0.00    +0.000 C 
ATOM      6  C   UNL     1       5.787   5.536  15.990  0.00  0.00    +0.000 C 
ENDROOT
BRANCH   1   7
ATOM      7  C   UNL     1       6.769   6.226  18.210  0.00  0.00    +0.000 C 
ATOM      8  O   UNL     1       6.644   5.402  19.105  0.00  0.00    +0.000 OA
BRANCH   7   9
ATOM      9  O   UNL     1       7.881   6.988  18.008  0.00  0.00    +0.000 OA
BRANCH   9  11
ATOM     10  C   UNL     1       8.496   9.306  18.300  0.00  0.00    +0.000 C 
ATOM     11  C   UNL     1       7.638   8.319  17.532  0.00  0.00    +0.000 C 
ENDBRANCH   9  11
ENDBRANCH   7   9
ENDBRANCH   1   7
BRANCH   4  12
ATOM     12  C   UNL     1       3.607   2.781  17.423  0.00  0.00    +0.000 C 
BRANCH  12  13
ATOM     13  C   UNL     1       2.847   2.726  18.727  0.00  0.00    +0.000 A 
ATOM     14  C   UNL     1       1.453   2.893  18.755  0.00  0.00    +0.000 A 
ATOM     15  C   UNL     1       0.771   2.899  19.973  0.00  0.00    +0.000 A 
ATOM     16  C   UNL     1       1.479   2.729  21.158  0.00  0.00    +0.000 A 
ATOM     17  F   UNL     1       0.823   2.758  22.326  0.00  0.00    +0.000 F 
ATOM     18  C   UNL     1       2.853   2.540  21.152  0.00  0.00    +0.000 A 
ATOM     19  C   UNL     1       3.527   2.538  19.938  0.00  0.00    +0.000 A 
ATOM     20  F   UNL     1       4.856   2.367  19.941  0.00  0.00    +0.000 F 
ENDBRANCH  12  13
ENDBRANCH   4  12
TORSDOF 5
ENDMDL
MODEL 7
REMARK VINA RESULT:      -6.9      1.301      2.463
REMARK  Name = 
REMARK  6 active torsions:
REMARK  status: ('A' for Active; 'I' for Inactive)
REMARK    1  A    between atoms: C_1  and  C_2
REMARK    2  A    between atoms: C_2  and  O_3
REMARK    3  A    between atoms: O_3  and  C_4
REMARK    4  A    between atoms: C_4  and  C_6
REMARK    5  A    between atoms: N_9  and  C_10
REMARK    6  A    between atoms: C_10  and  C_11
REMARK                            x       y       z     vdW  Elec       q    Type
REMARK                         _______ _______ _______ _____ _____    ______ ____
ROOT
ATOM      1  C   UNL     1       6.189   4.622  15.737  0.00  0.00    +0.000 C 
ATOM      2  C   UNL     1       5.422   5.873  15.310  0.00  0.00    +0.000 C 
ATOM      3  C   UNL     1       4.697   6.511  16.494  0.00  0.00    +0.000 C 
ATOM      4  N   UNL     1       3.762   5.569  17.130  0.00  0.00    +0.000 NA
ATOM      5  C   UNL     1       4.446   4.339  17.567  0.00  0.00    +0.000 C 
ATOM      6  C   UNL     1       5.220   3.660  16.431  0.00  0.00    +0.000 C 
ENDROOT
BRANCH   1   7
ATOM      7  C   UNL     1       7.370   4.965  16.637  0.00  0.00    +0.000 C 
ATOM      8  O   UNL     1       8.159   4.150  17.096  0.00  0.00    +0.000 OA
BRANCH   7   9
ATOM      9  O   UNL     1       7.438   6.310  16.844  0.00  0.00    +0.000 OA
BRANCH   9  11
ATOM     10  C   UNL     1       7.195   5.872  19.208  0.00  0.00    +0.000 C 
ATOM     11  C   UNL     1       7.884   6.711  18.148  0.00  0.00    +0.000 C 
ENDBRANCH   9  11
ENDBRANCH   7   9
ENDBRANCH   1   7
BRANCH   4  12
ATOM     12  C   UNL     1       3.104   6.192  18.304  0.00  0.00    +0.000 C 
BRANCH  12  13
ATOM     13  C   UNL     1       2.463   5.191  19.237  0.00  0.00    +0.000 A 
ATOM     14  C   UNL     1       2.863   5.100  20.579  0.00  0.00    +0.000 A 
ATOM     15  C   UNL     1       2.303   4.132  21.414  0.00  0.00    +0.000 A 
ATOM     16  C   UNL     1       1.339   3.264  20.911  0.00  0.00    +0.000 A 
ATOM     17  F   UNL     1       0.822   2.321  21.711  0.00  0.00    +0.000 F 
ATOM     18  C   UNL     1       0.914   3.350  19.594  0.00  0.00    +0.000 A 
ATOM     19  C   UNL     1       1.476   4.314  18.767  0.00  0.00    +0.000 A 
ATOM     20  F   UNL     1       1.068   4.384  17.492  0.00  0.00    +0.000 F 
ENDBRANCH  12  13
ENDBRANCH   4  12
TORSDOF 5
ENDMDL
MODEL 8
REMARK VINA RESULT:      -6.9      1.593      2.017
REMARK  Name = 
REMARK  6 active torsions:
REMARK  status: ('A' for Active; 'I' for Inactive)
REMARK    1  A    between atoms: C_1  and  C_2
REMARK    2  A    between atoms: C_2  and  O_3
REMARK    3  A    between atoms: O_3  and  C_4
REMARK    4  A    between atoms: C_4  and  C_6
REMARK    5  A    between atoms: N_9  and  C_10
REMARK    6  A    between atoms: C_10  and  C_11
REMARK                            x       y       z     vdW  Elec       q    Type
REMARK                         _______ _______ _______ _____ _____    ______ ____
ROOT
ATOM      1  C   UNL     1       7.118   4.665  15.823  0.00  0.00    +0.000 C 
ATOM      2  C   UNL     1       6.298   3.592  16.537  0.00  0.00    +0.000 C 
ATOM      3  C   UNL     1       4.855   4.047  16.755  0.00  0.00    +0.000 C 
ATOM      4  N   UNL     1       4.791   5.296  17.531  0.00  0.00    +0.000 NA
ATOM      5  C   UNL     1       5.564   6.373  16.890  0.00  0.00    +0.000 C 
ATOM      6  C   UNL     1       7.018   5.973  16.615  0.00  0.00    +0.000 C 
ENDROOT
BRANCH   1   7
ATOM      7  C   UNL     1       6.665   4.854  14.381  0.00  0.00    +0.000 C 
ATOM      8  O   UNL     1       6.955   5.811  13.677  0.00  0.00    +0.000 OA
BRANCH   7   9
ATOM      9  O   UNL     1       5.905   3.798  13.977  0.00  0.00    +0.000 OA
BRANCH   9  11
ATOM     10  C   UNL     1       4.768   3.379  11.886  0.00  0.00    +0.000 C 
ATOM     11  C   UNL     1       6.098   3.385  12.616  0.00  0.00    +0.000 C 
ENDBRANCH   9  11
ENDBRANCH   7   9
ENDBRANCH   1   7
BRANCH   4  12
ATOM     12  C   UNL     1       3.386   5.745  17.690  0.00  0.00    +0.000 C 
BRANCH  12  13
ATOM     13  C   UNL     1       2.632   4.996  18.764  0.00  0.00    +0.000 A 
ATOM     14  C   UNL     1       2.996   5.116  20.114  0.00  0.00    +0.000 A 
ATOM     15  C   UNL     1       2.328   4.373  21.089  0.00  0.00    +0.000 A 
ATOM     16  C   UNL     1       1.294   3.521  20.716  0.00  0.00    +0.000 A 
ATOM     17  F   UNL     1       0.671   2.793  21.653  0.00  0.00    +0.000 F 
ATOM     18  C   UNL     1       0.904   3.404  19.390  0.00  0.00    +0.000 A 
ATOM     19  C   UNL     1       1.573   4.144  18.424  0.00  0.00    +0.000 A 
ATOM     20  F   UNL     1       1.199   4.016  17.143  0.00  0.00    +0.000 F 
ENDBRANCH  12  13
ENDBRANCH   4  12
TORSDOF 5
ENDMDL
MODEL 9
REMARK VINA RESULT:      -6.8      1.825      2.724
REMARK  Name = 
REMARK  6 active torsions:
REMARK  status: ('A' for Active; 'I' for Inactive)
REMARK    1  A    between atoms: C_1  and  C_2
REMARK    2  A    between atoms: C_2  and  O_3
REMARK    3  A    between atoms: O_3  and  C_4
REMARK    4  A    between atoms: C_4  and  C_6
REMARK    5  A    between atoms: N_9  and  C_10
REMARK    6  A    between atoms: C_10  and  C_11
REMARK                            x       y       z     vdW  Elec       q    Type
REMARK                         _______ _______ _______ _____ _____    ______ ____
ROOT
ATOM      1  C   UNL     1       5.314   6.768  16.306  0.00  0.00    +0.000 C 
ATOM      2  C   UNL     1       4.183   6.661  17.328  0.00  0.00    +0.000 C 
ATOM      3  C   UNL     1       4.135   5.271  17.960  0.00  0.00    +0.000 C 
ATOM      4  N   UNL     1       3.965   4.218  16.945  0.00  0.00    +0.000 NA
ATOM      5  C   UNL     1       5.030   4.269  15.929  0.00  0.00    +0.000 C 
ATOM      6  C   UNL     1       5.155   5.648  15.272  0.00  0.00    +0.000 C 
ENDROOT
BRANCH   1   7
ATOM      7  C   UNL     1       6.683   6.716  16.973  0.00  0.00    +0.000 C 
ATOM      8  O   UNL     1       7.751   6.822  16.386  0.00  0.00    +0.000 OA
BRANCH   7   9
ATOM      9  O   UNL     1       6.553   6.554  18.320  0.00  0.00    +0.000 OA
BRANCH   9  11
ATOM     10  C   UNL     1       7.875   4.532  18.314  0.00  0.00    +0.000 C 
ATOM     11  C   UNL     1       7.642   5.881  18.968  0.00  0.00    +0.000 C 
ENDBRANCH   9  11
ENDBRANCH   7   9
ENDBRANCH   1   7
BRANCH   4  12
ATOM     12  C   UNL     1       3.968   2.875  17.574  0.00  0.00    +0.000 C 
BRANCH  12  13
ATOM     13  C   UNL     1       3.088   2.782  18.799  0.00  0.00    +0.000 A 
ATOM     14  C   UNL     1       1.698   2.953  18.700  0.00  0.00    +0.000 A 
ATOM     15  C   UNL     1       0.905   2.922  19.849  0.00  0.00    +0.000 A 
ATOM     16  C   UNL     1       1.497   2.711  21.089  0.00  0.00    +0.000 A 
ATOM     17  F   UNL     1       0.734   2.705  22.191  0.00  0.00    +0.000 F 
ATOM     18  C   UNL     1       2.866   2.518  21.207  0.00  0.00    +0.000 A 
ATOM     19  C   UNL     1       3.651   2.552  20.061  0.00  0.00    +0.000 A 
ATOM     20  F   UNL     1       4.974   2.377  20.184  0.00  0.00    +0.000 F 
ENDBRANCH  12  13
ENDBRANCH   4  12
TORSDOF 5
ENDMDL
