MODEL 1
REMARK VINA RESULT:      -7.2      0.000      0.000
REMARK  Name = 
REMARK  7 active torsions:
REMARK  status: ('A' for Active; 'I' for Inactive)
REMARK    1  A    between atoms: C_1  and  C_2
REMARK    2  A    between atoms: C_2  and  C_4
REMARK    3  A    between atoms: C_7  and  O_8
REMARK    4  A    between atoms: C_9  and  C_10
REMARK    5  A    between atoms: C_10  and  C_12
REMARK    6  A    between atoms: C_13  and  C_14
REMARK    7  A    between atoms: C_13  and  C_15
REMARK                            x       y       z     vdW  Elec       q    Type
REMARK                         _______ _______ _______ _____ _____    ______ ____
ROOT
ATOM      1  C   UNL     1       5.504   5.215  15.867  0.00  0.00    +0.000 A 
ATOM      2  C   UNL     1       5.349   6.557  16.233  0.00  0.00    +0.000 A 
ATOM      3  C   UNL     1       4.386   6.927  17.177  0.00  0.00    +0.000 A 
ATOM      4  C   UNL     1       3.568   5.955  17.763  0.00  0.00    +0.000 A 
ATOM      5  C   UNL     1       3.711   4.608  17.407  0.00  0.00    +0.000 A 
ATOM      6  C   UNL     1       4.682   4.251  16.455  0.00  0.00    +0.000 A 
ENDROOT
BRANCH   1   8
ATOM      7  C   UNL     1       6.168   3.897  13.748  0.00  0.00    +0.000 C 
ATOM      8  C   UNL     1       6.541   4.847  14.860  0.00  0.00    +0.000 C 
ATOM      9  O   UNL     1       7.675   5.311  14.955  0.00  0.00    +0.000 OA
ENDBRANCH   1   8
BRANCH   4  10
ATOM     10  O   UNL     1       2.613   6.348  18.656  0.00  0.00    +0.000 OA
ATOM     11  H   UNL     1       2.467   5.640  19.308  0.00  0.00    +0.000 HD
ENDBRANCH   4  10
BRANCH   5  12
ATOM     12  C   UNL     1       2.869   3.489  17.912  0.00  0.00    +0.000 C 
ATOM     13  O   UNL     1       2.131   2.920  17.113  0.00  0.00    +0.000 OA
BRANCH  12  14
ATOM     14  C   UNL     1       3.038   3.020  19.317  0.00  0.00    +0.000 C 
ATOM     15  C   UNL     1       2.153   3.184  20.319  0.00  0.00    +0.000 C 
ATOM     16  C   UNL     1       0.840   3.920  20.253  0.00  0.00    +0.000 C 
ATOM     17  C   UNL     1       2.444   2.609  21.682  0.00  0.00    +0.000 C 
ENDBRANCH  12  14
ENDBRANCH   5  12
TORSDOF 4
ENDMDL
MODEL 2
REMARK VINA RESULT:      -7.1      2.157      6.040
REMARK  Name = 
REMARK  7 active torsions:
REMARK  status: ('A' for Active; 'I' for Inactive)
REMARK    1  A    between atoms: C_1  and  C_2
REMARK    2  A    between atoms: C_2  and  C_4
REMARK    3  A    between atoms: C_7  and  O_8
REMARK    4  A    between atoms: C_9  and  C_10
REMARK    5  A    between atoms: C_10  and  C_12
REMARK    6  A    between atoms: C_13  and  C_14
REMARK    7  A    between atoms: C_13  and  C_15
REMARK                            x       y       z     vdW  Elec       q    Type
REMARK                         _______ _______ _______ _____ _____    ______ ____
ROOT
ATOM      1  C   UNL     1       4.329   5.514  17.784  0.00  0.00    +0.000 A 
ATOM      2  C   UNL     1       5.087   5.183  18.914  0.00  0.00    +0.000 A 
ATOM      3  C   UNL     1       6.406   4.740  18.776  0.00  0.00    +0.000 A 
ATOM      4  C   UNL     1       6.977   4.622  17.505  0.00  0.00    +0.000 A 
ATOM      5  C   UNL     1       6.232   4.948  16.365  0.00  0.00    +0.000 A 
ATOM      6  C   UNL     1       4.906   5.391  16.519  0.00  0.00    +0.000 A 
ENDROOT
BRANCH   1   8
ATOM      7  C   UNL     1       1.814   4.967  17.996  0.00  0.00    +0.000 C 
ATOM      8  C   UNL     1       2.925   5.987  17.959  0.00  0.00    +0.000 C 
ATOM      9  O   UNL     1       2.696   7.190  18.059  0.00  0.00    +0.000 OA
ENDBRANCH   1   8
BRANCH   4  10
ATOM     10  O   UNL     1       8.255   4.154  17.398  0.00  0.00    +0.000 OA
ATOM     11  H   UNL     1       8.528   4.165  16.464  0.00  0.00    +0.000 HD
ENDBRANCH   4  10
BRANCH   5  12
ATOM     12  C   UNL     1       6.702   4.812  14.960  0.00  0.00    +0.000 C 
ATOM     13  O   UNL     1       7.754   5.364  14.650  0.00  0.00    +0.000 OA
BRANCH  12  14
ATOM     14  C   UNL     1       5.963   3.920  14.022  0.00  0.00    +0.000 C 
ATOM     15  C   UNL     1       6.244   3.734  12.717  0.00  0.00    +0.000 C 
ATOM     16  C   UNL     1       7.319   4.424  11.918  0.00  0.00    +0.000 C 
ATOM     17  C   UNL     1       5.433   2.758  11.904  0.00  0.00    +0.000 C 
ENDBRANCH  12  14
ENDBRANCH   5  12
TORSDOF 4
ENDMDL
MODEL 3
REMARK VINA RESULT:      -7.1      1.603      2.184
REMARK  Name = 
REMARK  7 active torsions:
REMARK  status: ('A' for Active; 'I' for Inactive)
REMARK    1  A    between atoms: C_1  and  C_2
REMARK    2  A    between atoms: C_2  and  C_4
REMARK    3  A    between atoms: C_7  and  O_8
REMARK    4  A    between atoms: C_9  and  C_10
REMARK    5  A    between atoms: C_10  and  C_12
REMARK    6  A    between atoms: C_13  and  C_14
REMARK    7  A    between atoms: C_13  and  C_15
REMARK                            x       y       z     vdW  Elec       q    Type
REMARK                         _______ _______ _______ _____ _____    ______ ____
ROOT
ATOM      1  C   UNL     1       6.407   4.866  15.817  0.00  0.00    +0.000 A 
ATOM      2  C   UNL     1       7.380   4.797  16.821  0.00  0.00    +0.000 A 
ATOM      3  C   UNL     1       7.013   4.883  18.168  0.00  0.00    +0.000 A 
ATOM      4  C   UNL     1       5.669   5.040  18.521  0.00  0.00    +0.000 A 
ATOM      5  C   UNL     1       4.684   5.111  17.528  0.00  0.00    +0.000 A 
ATOM      6  C   UNL     1       5.068   5.025  16.177  0.00  0.00    +0.000 A 
ENDROOT
BRANCH   1   8
ATOM      7  C   UNL     1       6.089   3.812  13.481  0.00  0.00    +0.000 C 
ATOM      8  C   UNL     1       6.824   4.768  14.388  0.00  0.00    +0.000 C 
ATOM      9  O   UNL     1       7.757   5.454  13.977  0.00  0.00    +0.000 OA
ENDBRANCH   1   8
BRANCH   4  10
ATOM     10  O   UNL     1       5.343   5.156  19.842  0.00  0.00    +0.000 OA
ATOM     11  H   UNL     1       5.750   4.427  20.342  0.00  0.00    +0.000 HD
ENDBRANCH   4  10
BRANCH   5  12
ATOM     12  C   UNL     1       3.232   5.335  17.767  0.00  0.00    +0.000 C 
ATOM     13  O   UNL     1       2.829   6.493  17.809  0.00  0.00    +0.000 OA
BRANCH  12  14
ATOM     14  C   UNL     1       2.310   4.165  17.821  0.00  0.00    +0.000 C 
ATOM     15  C   UNL     1       1.644   3.731  18.909  0.00  0.00    +0.000 C 
ATOM     16  C   UNL     1       1.731   4.291  20.305  0.00  0.00    +0.000 C 
ATOM     17  C   UNL     1       0.703   2.557  18.797  0.00  0.00    +0.000 C 
ENDBRANCH  12  14
ENDBRANCH   5  12
TORSDOF 4
ENDMDL
MODEL 4
REMARK VINA RESULT:      -7.0      1.321      1.477
REMARK  Name = 
REMARK  7 active torsions:
REMARK  status: ('A' for Active; 'I' for Inactive)
REMARK    1  A    between atoms: C_1  and  C_2
REMARK    2  A    between atoms: C_2  and  C_4
REMARK    3  A    between atoms: C_7  and  O_8
REMARK    4  A    between atoms: C_9  and  C_10
REMARK    5  A    between atoms: C_10  and  C_12
REMARK    6  A    between atoms: C_13  and  C_14
REMARK    7  A    between atoms: C_13  and  C_15
REMARK                            x       y       z     vdW  Elec       q    Type
REMARK                         _______ _______ _______ _____ _____    ______ ____
ROOT
ATOM      1  C   UNL     1       5.763   5.200  15.681  0.00  0.00    +0.000 A 
ATOM      2  C   UNL     1       5.320   6.518  15.840  0.00  0.00    +0.000 A 
ATOM      3  C   UNL     1       4.534   6.872  16.941  0.00  0.00    +0.000 A 
ATOM      4  C   UNL     1       4.184   5.909  17.892  0.00  0.00    +0.000 A 
ATOM      5  C   UNL     1       4.620   4.586  17.747  0.00  0.00    +0.000 A 
ATOM      6  C   UNL     1       5.408   4.244  16.634  0.00  0.00    +0.000 A 
ENDROOT
BRANCH   1   8
ATOM      7  C   UNL     1       6.089   3.819  13.524  0.00  0.00    +0.000 C 
ATOM      8  C   UNL     1       6.603   4.849  14.498  0.00  0.00    +0.000 C 
ATOM      9  O   UNL     1       7.694   5.393  14.343  0.00  0.00    +0.000 OA
ENDBRANCH   1   8
BRANCH   4  10
ATOM     10  O   UNL     1       3.388   6.275  18.939  0.00  0.00    +0.000 OA
ATOM     11  H   UNL     1       3.697   5.836  19.752  0.00  0.00    +0.000 HD
ENDBRANCH   4  10
BRANCH   5  12
ATOM     12  C   UNL     1       4.271   3.459  18.654  0.00  0.00    +0.000 C 
ATOM     13  O   UNL     1       5.028   3.219  19.590  0.00  0.00    +0.000 OA
BRANCH  12  14
ATOM     14  C   UNL     1       2.970   2.751  18.478  0.00  0.00    +0.000 C 
ATOM     15  C   UNL     1       1.867   2.922  19.233  0.00  0.00    +0.000 C 
ATOM     16  C   UNL     1       1.727   3.812  20.440  0.00  0.00    +0.000 C 
ATOM     17  C   UNL     1       0.605   2.167  18.901  0.00  0.00    +0.000 C 
ENDBRANCH  12  14
ENDBRANCH   5  12
TORSDOF 4
ENDMDL
MODEL 5
REMARK VINA RESULT:      -7.0      1.485      5.764
REMARK  Name = 
REMARK  7 active torsions:
REMARK  status: ('A' for Active; 'I' for Inactive)
REMARK    1  A    between atoms: C_1  and  C_2
REMARK    2  A    between atoms: C_2  and  C_4
REMARK    3  A    between atoms: C_7  and  O_8
REMARK    4  A    between atoms: C_9  and  C_10
REMARK    5  A    between atoms: C_10  and  C_12
REMARK    6  A    between atoms: C_13  and  C_14
REMARK    7  A    between atoms: C_13  and  C_15
REMARK                            x       y       z     vdW  Elec       q    Type
REMARK                         _______ _______ _______ _____ _____    ______ ____
ROOT
ATOM      1  C   UNL     1       3.106   5.077  17.698  0.00  0.00    +0.000 A 
ATOM      2  C   UNL     1       3.196   6.429  18.047  0.00  0.00    +0.000 A 
ATOM      3  C   UNL     1       4.309   7.185  17.668  0.00  0.00    +0.000 A 
ATOM      4  C   UNL     1       5.343   6.593  16.935  0.00  0.00    +0.000 A 
ATOM      5  C   UNL     1       5.268   5.241  16.578  0.00  0.00    +0.000 A 
ATOM      6  C   UNL     1       4.143   4.492  16.969  0.00  0.00    +0.000 A 
ENDROOT
BRANCH   1   8
ATOM      7  C   UNL     1       1.577   4.193  19.582  0.00  0.00    +0.000 C 
ATOM      8  C   UNL     1       1.906   4.293  18.113  0.00  0.00    +0.000 C 
ATOM      9  O   UNL     1       1.216   3.738  17.262  0.00  0.00    +0.000 OA
ENDBRANCH   1   8
BRANCH   4  10
ATOM     10  O   UNL     1       6.434   7.346  16.607  0.00  0.00    +0.000 OA
ATOM     11  H   UNL     1       6.155   8.262  16.429  0.00  0.00    +0.000 HD
ENDBRANCH   4  10
BRANCH   5  12
ATOM     12  C   UNL     1       6.322   4.481  15.853  0.00  0.00    +0.000 C 
ATOM     13  O   UNL     1       7.425   4.381  16.383  0.00  0.00    +0.000 OA
BRANCH  12  14
ATOM     14  C   UNL     1       5.976   3.769  14.590  0.00  0.00    +0.000 C 
ATOM     15  C   UNL     1       6.506   4.010  13.374  0.00  0.00    +0.000 C 
ATOM     16  C   UNL     1       7.510   5.076  13.022  0.00  0.00    +0.000 C 
ATOM     17  C   UNL     1       6.090   3.172  12.193  0.00  0.00    +0.000 C 
ENDBRANCH  12  14
ENDBRANCH   5  12
TORSDOF 4
ENDMDL
MODEL 6
REMARK VINA RESULT:      -6.9      1.801      6.011
REMARK  Name = 
REMARK  7 active torsions:
REMARK  status: ('A' for Active; 'I' for Inactive)
REMARK    1  A    between atoms: C_1  and  C_2
REMARK    2  A    between atoms: C_2  and  C_4
REMARK    3  A    between atoms: C_7  and  O_8
REMARK    4  A    between atoms: C_9  and  C_10
REMARK    5  A    between atoms: C_10  and  C_12
REMARK    6  A    between atoms: C_13  and  C_14
REMARK    7  A    between atoms: C_13  and  C_15
REMARK                            x       y       z     vdW  Elec       q    Type
REMARK                         _______ _______ _______ _____ _____    ______ ____
ROOT
ATOM      1  C   UNL     1       3.887   3.940  17.754  0.00  0.00    +0.000 A 
ATOM      2  C   UNL     1       4.549   4.313  18.930  0.00  0.00    +0.000 A 
ATOM      3  C   UNL     1       5.853   4.814  18.879  0.00  0.00    +0.000 A 
ATOM      4  C   UNL     1       6.508   4.944  17.651  0.00  0.00    +0.000 A 
ATOM      5  C   UNL     1       5.860   4.575  16.465  0.00  0.00    +0.000 A 
ATOM      6  C   UNL     1       4.549   4.071  16.531  0.00  0.00    +0.000 A 
ENDROOT
BRANCH   1   8
ATOM      7  C   UNL     1       2.242   2.149  18.622  0.00  0.00    +0.000 C 
ATOM      8  C   UNL     1       2.494   3.411  17.835  0.00  0.00    +0.000 C 
ATOM      9  O   UNL     1       1.584   4.001  17.258  0.00  0.00    +0.000 OA
ENDBRANCH   1   8
BRANCH   4  10
ATOM     10  O   UNL     1       7.793   5.404  17.634  0.00  0.00    +0.000 OA
ATOM     11  H   UNL     1       7.810   6.334  17.920  0.00  0.00    +0.000 HD
ENDBRANCH   4  10
BRANCH   5  12
ATOM     12  C   UNL     1       6.464   4.610  15.105  0.00  0.00    +0.000 C 
ATOM     13  O   UNL     1       7.479   5.282  14.945  0.00  0.00    +0.000 OA
BRANCH  12  14
ATOM     14  C   UNL     1       5.903   3.742  14.031  0.00  0.00    +0.000 C 
ATOM     15  C   UNL     1       6.298   3.721  12.743  0.00  0.00    +0.000 C 
ATOM     16  C   UNL     1       7.341   4.600  12.103  0.00  0.00    +0.000 C 
ATOM     17  C   UNL     1       5.666   2.750  11.778  0.00  0.00    +0.000 C 
ENDBRANCH  12  14
ENDBRANCH   5  12
TORSDOF 4
ENDMDL
MODEL 7
REMARK VINA RESULT:      -6.8      0.773      1.132
REMARK  Name = 
REMARK  7 active torsions:
REMARK  status: ('A' for Active; 'I' for Inactive)
REMARK    1  A    between atoms: C_1  and  C_2
REMARK    2  A    between atoms: C_2  and  C_4
REMARK    3  A    between atoms: C_7  and  O_8
REMARK    4  A    between atoms: C_9  and  C_10
REMARK    5  A    between atoms: C_10  and  C_12
REMARK    6  A    between atoms: C_13  and  C_14
REMARK    7  A    between atoms: C_13  and  C_15
REMARK                            x       y       z     vdW  Elec       q    Type
REMARK                         _______ _______ _______ _____ _____    ______ ____
ROOT
ATOM      1  C   UNL     1       5.596   5.205  16.408  0.00  0.00    +0.000 A 
ATOM      2  C   UNL     1       5.491   6.575  16.676  0.00  0.00    +0.000 A 
ATOM      3  C   UNL     1       4.379   7.079  17.357  0.00  0.00    +0.000 A 
ATOM      4  C   UNL     1       3.362   6.216  17.777  0.00  0.00    +0.000 A 
ATOM      5  C   UNL     1       3.452   4.842  17.516  0.00  0.00    +0.000 A 
ATOM      6  C   UNL     1       4.575   4.350  16.828  0.00  0.00    +0.000 A 
ENDROOT
BRANCH   1   8
ATOM      7  C   UNL     1       6.693   4.448  14.196  0.00  0.00    +0.000 C 
ATOM      8  C   UNL     1       6.794   4.692  15.682  0.00  0.00    +0.000 C 
ATOM      9  O   UNL     1       7.832   4.469  16.300  0.00  0.00    +0.000 OA
ENDBRANCH   1   8
BRANCH   4  10
ATOM     10  O   UNL     1       2.272   6.740  18.410  0.00  0.00    +0.000 OA
ATOM     11  H   UNL     1       1.572   6.065  18.466  0.00  0.00    +0.000 HD
ENDBRANCH   4  10
BRANCH   5  12
ATOM     12  C   UNL     1       2.416   3.830  17.857  0.00  0.00    +0.000 C 
ATOM     13  O   UNL     1       2.018   3.091  16.961  0.00  0.00    +0.000 OA
BRANCH  12  14
ATOM     14  C   UNL     1       1.993   3.663  19.276  0.00  0.00    +0.000 C 
ATOM     15  C   UNL     1       2.705   3.060  20.249  0.00  0.00    +0.000 C 
ATOM     16  C   UNL     1       4.042   2.382  20.102  0.00  0.00    +0.000 C 
ATOM     17  C   UNL     1       2.164   3.009  21.656  0.00  0.00    +0.000 C 
ENDBRANCH  12  14
ENDBRANCH   5  12
TORSDOF 4
ENDMDL
MODEL 8
REMARK VINA RESULT:      -6.8      1.628      5.845
REMARK  Name = 
REMARK  7 active torsions:
REMARK  status: ('A' for Active; 'I' for Inactive)
REMARK    1  A    between atoms: C_1  and  C_2
REMARK    2  A    between atoms: C_2  and  C_4
REMARK    3  A    between atoms: C_7  and  O_8
REMARK    4  A    between atoms: C_9  and  C_10
REMARK    5  A    between atoms: C_10  and  C_12
REMARK    6  A    between atoms: C_13  and  C_14
REMARK    7  A    between atoms: C_13  and  C_15
REMARK                            x       y       z     vdW  Elec       q    Type
REMARK                         _______ _______ _______ _____ _____    ______ ____
ROOT
ATOM      1  C   UNL     1       3.643   4.246  17.639  0.00  0.00    +0.000 A 
ATOM      2  C   UNL     1       3.578   5.542  18.164  0.00  0.00    +0.000 A 
ATOM      3  C   UNL     1       4.450   6.535  17.708  0.00  0.00    +0.000 A 
ATOM      4  C   UNL     1       5.396   6.239  16.721  0.00  0.00    +0.000 A 
ATOM      5  C   UNL     1       5.474   4.947  16.186  0.00  0.00    +0.000 A 
ATOM      6  C   UNL     1       4.592   3.958  16.656  0.00  0.00    +0.000 A 
ENDROOT
BRANCH   1   8
ATOM      7  C   UNL     1       3.103   1.755  18.050  0.00  0.00    +0.000 C 
ATOM      8  C   UNL     1       2.699   3.206  18.141  0.00  0.00    +0.000 C 
ATOM      9  O   UNL     1       1.613   3.542  18.607  0.00  0.00    +0.000 OA
ENDBRANCH   1   8
BRANCH   4  10
ATOM     10  O   UNL     1       6.258   7.219  16.319  0.00  0.00    +0.000 OA
ATOM     11  H   UNL     1       6.114   7.411  15.375  0.00  0.00    +0.000 HD
ENDBRANCH   4  10
BRANCH   5  12
ATOM     12  C   UNL     1       6.470   4.490  15.179  0.00  0.00    +0.000 C 
ATOM     13  O   UNL     1       7.646   4.793  15.356  0.00  0.00    +0.000 OA
BRANCH  12  14
ATOM     14  C   UNL     1       6.035   3.587  14.075  0.00  0.00    +0.000 C 
ATOM     15  C   UNL     1       6.403   3.682  12.782  0.00  0.00    +0.000 C 
ATOM     16  C   UNL     1       7.278   4.744  12.168  0.00  0.00    +0.000 C 
ATOM     17  C   UNL     1       5.918   2.661  11.785  0.00  0.00    +0.000 C 
ENDBRANCH  12  14
ENDBRANCH   5  12
TORSDOF 4
ENDMDL
MODEL 9
REMARK VINA RESULT:      -6.8      2.171      3.961
REMARK  Name = 
REMARK  7 active torsions:
REMARK  status: ('A' for Active; 'I' for Inactive)
REMARK    1  A    between atoms: C_1  and  C_2
REMARK    2  A    between atoms: C_2  and  C_4
REMARK    3  A    between atoms: C_7  and  O_8
REMARK    4  A    between atoms: C_9  and  C_10
REMARK    5  A    between atoms: C_10  and  C_12
REMARK    6  A    between atoms: C_13  and  C_14
REMARK    7  A    between atoms: C_13  and  C_15
REMARK                            x       y       z     vdW  Elec       q    Type
REMARK                         _______ _______ _______ _____ _____    ______ ____
ROOT
ATOM      1  C   UNL     1       5.756   3.602  12.809  0.00  0.00    +0.000 A 
ATOM      2  C   UNL     1       6.990   4.220  12.575  0.00  0.00    +0.000 A 
ATOM      3  C   UNL     1       7.593   4.995  13.571  0.00  0.00    +0.000 A 
ATOM      4  C   UNL     1       6.965   5.159  14.809  0.00  0.00    +0.000 A 
ATOM      5  C   UNL     1       5.730   4.547  15.059  0.00  0.00    +0.000 A 
ATOM      6  C   UNL     1       5.134   3.772  14.048  0.00  0.00    +0.000 A 
ENDROOT
BRANCH   1   8
ATOM      7  C   UNL     1       3.872   3.275  11.074  0.00  0.00    +0.000 C 
ATOM      8  C   UNL     1       5.135   2.777  11.732  0.00  0.00    +0.000 C 
ATOM      9  O   UNL     1       5.653   1.712  11.405  0.00  0.00    +0.000 OA
ENDBRANCH   1   8
BRANCH   4  10
ATOM     10  O   UNL     1       7.560   5.949  15.751  0.00  0.00    +0.000 OA
ATOM     11  H   UNL     1       8.484   6.119  15.496  0.00  0.00    +0.000 HD
ENDBRANCH   4  10
BRANCH   5  12
ATOM     12  C   UNL     1       4.934   4.689  16.309  0.00  0.00    +0.000 C 
ATOM     13  O   UNL     1       4.633   5.823  16.671  0.00  0.00    +0.000 OA
BRANCH  12  14
ATOM     14  C   UNL     1       4.428   3.469  16.999  0.00  0.00    +0.000 C 
ATOM     15  C   UNL     1       3.186   3.296  17.492  0.00  0.00    +0.000 C 
ATOM     16  C   UNL     1       2.070   4.308  17.505  0.00  0.00    +0.000 C 
ATOM     17  C   UNL     1       2.804   1.982  18.124  0.00  0.00    +0.000 C 
ENDBRANCH  12  14
ENDBRANCH   5  12
TORSDOF 4
ENDMDL
