MODEL 1
REMARK VINA RESULT:      -8.5      0.000      0.000
REMARK  Name = 
REMARK  6 active torsions:
REMARK  status: ('A' for Active; 'I' for Inactive)
REMARK    1  A    between atoms: C_1  and  C_2
REMARK    2  A    between atoms: C_2  and  C_3
REMARK    3  A    between atoms: C_6  and  C_7
REMARK    4  A    between atoms: C_7  and  O_8
REMARK    5  A    between atoms: O_8  and  C_9
REMARK    6  A    between atoms: C_15  and  C_16
REMARK                            x       y       z     vdW  Elec       q    Type
REMARK                         _______ _______ _______ _____ _____    ______ ____
ROOT
ATOM      1  C   UNL     1       2.131   6.533  19.989  0.00  0.00    +0.000 A 
ATOM      2  C   UNL     1       1.624   5.469  20.903  0.00  0.00    +0.000 A 
ATOM      3  N   UNL     1       1.908   4.209  20.885  0.00  0.00    +0.000 NA
ATOM      4  N   UNL     1       2.785   3.898  19.914  0.00  0.00    +0.000 N 
ATOM      5  N   UNL     1       3.175   2.625  19.767  0.00  0.00    +0.000 NA
ATOM      6  C   UNL     1       4.034   2.672  18.750  0.00  0.00    +0.000 A 
ATOM      7  C   UNL     1       4.202   3.973  18.220  0.00  0.00    +0.000 A 
ATOM      8  C   UNL     1       3.362   4.753  18.993  0.00  0.00    +0.000 A 
ATOM      9  C   UNL     1       2.986   6.118  19.039  0.00  0.00    +0.000 A 
ENDROOT
BRANCH   7  10
ATOM     10  C   UNL     1       5.034   4.442  17.134  0.00  0.00    +0.000 A 
ATOM     11  C   UNL     1       4.828   4.052  15.806  0.00  0.00    +0.000 A 
ATOM     12  C   UNL     1       5.653   4.552  14.816  0.00  0.00    +0.000 A 
ATOM     13  N   UNL     1       6.664   5.424  15.005  0.00  0.00    +0.000 NA
ATOM     14  C   UNL     1       6.819   5.779  16.294  0.00  0.00    +0.000 A 
ATOM     15  N   UNL     1       7.768   6.657  16.737  0.00  0.00    +0.000 N 
ATOM     16  C   UNL     1       7.675   6.801  18.096  0.00  0.00    +0.000 A 
ATOM     17  C   UNL     1       6.650   5.990  18.531  0.00  0.00    +0.000 A 
ATOM     18  C   UNL     1       6.081   5.349  17.391  0.00  0.00    +0.000 A 
ATOM     19  H   UNL     1       8.430   7.117  16.129  0.00  0.00    +0.000 HD
ENDBRANCH   7  10
BRANCH   1  20
ATOM     20  O   UNL     1       1.764   7.861  20.069  0.00  0.00    +0.000 OA
BRANCH  20  21
ATOM     21  C   UNL     1       1.325   8.255  21.366  0.00  0.00    +0.000 C 
BRANCH  21  27
ATOM     22  C   UNL     1       0.859  11.826  20.454  0.00  0.00    +0.000 C 
ATOM     23  C   UNL     1      -0.435  11.019  20.548  0.00  0.00    +0.000 C 
ATOM     24  C   UNL     1      -1.516  11.633  19.672  0.00  0.00    +0.000 C 
ATOM     25  O   UNL     1      -0.896  10.984  21.899  0.00  0.00    +0.000 OA
ATOM     26  C   UNL     1      -0.313   9.816  22.467  0.00  0.00    +0.000 C 
ATOM     27  C   UNL     1      -0.053   8.890  21.296  0.00  0.00    +0.000 C 
ATOM     28  O   UNL     1      -0.160   9.686  20.112  0.00  0.00    +0.000 OA
ENDBRANCH  21  27
ENDBRANCH  20  21
ENDBRANCH   1  20
TORSDOF 4
ENDMDL
MODEL 2
REMARK VINA RESULT:      -8.5      1.074      1.992
REMARK  Name = 
REMARK  6 active torsions:
REMARK  status: ('A' for Active; 'I' for Inactive)
REMARK    1  A    between atoms: C_1  and  C_2
REMARK    2  A    between atoms: C_2  and  C_3
REMARK    3  A    between atoms: C_6  and  C_7
REMARK    4  A    between atoms: C_7  and  O_8
REMARK    5  A    between atoms: O_8  and  C_9
REMARK    6  A    between atoms: C_15  and  C_16
REMARK                            x       y       z     vdW  Elec       q    Type
REMARK                         _______ _______ _______ _____ _____    ______ ____
ROOT
ATOM      1  C   UNL     1       1.732   5.374  20.515  0.00  0.00    +0.000 A 
ATOM      2  C   UNL     1       0.867   4.166  20.390  0.00  0.00    +0.000 A 
ATOM      3  N   UNL     1       1.077   3.113  19.672  0.00  0.00    +0.000 NA
ATOM      4  N   UNL     1       2.240   3.178  19.000  0.00  0.00    +0.000 N 
ATOM      5  N   UNL     1       2.596   2.159  18.207  0.00  0.00    +0.000 NA
ATOM      6  C   UNL     1       3.777   2.535  17.718  0.00  0.00    +0.000 A 
ATOM      7  C   UNL     1       4.193   3.805  18.181  0.00  0.00    +0.000 A 
ATOM      8  C   UNL     1       3.162   4.209  19.008  0.00  0.00    +0.000 A 
ATOM      9  C   UNL     1       2.862   5.352  19.787  0.00  0.00    +0.000 A 
ENDROOT
BRANCH   7  10
ATOM     10  C   UNL     1       5.396   4.558  17.896  0.00  0.00    +0.000 A 
ATOM     11  C   UNL     1       6.144   5.186  18.899  0.00  0.00    +0.000 A 
ATOM     12  C   UNL     1       7.292   5.877  18.557  0.00  0.00    +0.000 A 
ATOM     13  N   UNL     1       7.792   5.996  17.311  0.00  0.00    +0.000 NA
ATOM     14  C   UNL     1       7.047   5.370  16.382  0.00  0.00    +0.000 A 
ATOM     15  N   UNL     1       7.351   5.339  15.049  0.00  0.00    +0.000 N 
ATOM     16  C   UNL     1       6.396   4.634  14.367  0.00  0.00    +0.000 A 
ATOM     17  C   UNL     1       5.457   4.212  15.282  0.00  0.00    +0.000 A 
ATOM     18  C   UNL     1       5.869   4.655  16.573  0.00  0.00    +0.000 A 
ATOM     19  H   UNL     1       8.167   5.782  14.653  0.00  0.00    +0.000 HD
ENDBRANCH   7  10
BRANCH   1  20
ATOM     20  O   UNL     1       1.425   6.468  21.299  0.00  0.00    +0.000 OA
BRANCH  20  21
ATOM     21  C   UNL     1       1.386   7.696  20.577  0.00  0.00    +0.000 C 
BRANCH  21  27
ATOM     22  C   UNL     1       1.171  11.241  19.488  0.00  0.00    +0.000 C 
ATOM     23  C   UNL     1       0.108  10.822  20.503  0.00  0.00    +0.000 C 
ATOM     24  C   UNL     1      -1.132  11.692  20.374  0.00  0.00    +0.000 C 
ATOM     25  O   UNL     1       0.623  10.937  21.829  0.00  0.00    +0.000 OA
ATOM     26  C   UNL     1       1.186   9.665  22.130  0.00  0.00    +0.000 C 
ATOM     27  C   UNL     1       0.445   8.682  21.245  0.00  0.00    +0.000 C 
ATOM     28  O   UNL     1      -0.232   9.456  20.250  0.00  0.00    +0.000 OA
ENDBRANCH  21  27
ENDBRANCH  20  21
ENDBRANCH   1  20
TORSDOF 4
ENDMDL
MODEL 3
REMARK VINA RESULT:      -8.5      0.917      1.303
REMARK  Name = 
REMARK  6 active torsions:
REMARK  status: ('A' for Active; 'I' for Inactive)
REMARK    1  A    between atoms: C_1  and  C_2
REMARK    2  A    between atoms: C_2  and  C_3
REMARK    3  A    between atoms: C_6  and  C_7
REMARK    4  A    between atoms: C_7  and  O_8
REMARK    5  A    between atoms: O_8  and  C_9
REMARK    6  A    between atoms: C_15  and  C_16
REMARK                            x       y       z     vdW  Elec       q    Type
REMARK                         _______ _______ _______ _____ _____    ______ ____
ROOT
ATOM      1  C   UNL     1       2.120   7.002  19.675  0.00  0.00    +0.000 A 
ATOM      2  C   UNL     1       1.645   6.095  20.760  0.00  0.00    +0.000 A 
ATOM      3  N   UNL     1       1.973   4.861  20.960  0.00  0.00    +0.000 NA
ATOM      4  N   UNL     1       2.864   4.418  20.055  0.00  0.00    +0.000 N 
ATOM      5  N   UNL     1       3.298   3.153  20.130  0.00  0.00    +0.000 NA
ATOM      6  C   UNL     1       4.159   3.052  19.119  0.00  0.00    +0.000 A 
ATOM      7  C   UNL     1       4.284   4.247  18.372  0.00  0.00    +0.000 A 
ATOM      8  C   UNL     1       3.415   5.120  19.000  0.00  0.00    +0.000 A 
ATOM      9  C   UNL     1       2.992   6.458  18.809  0.00  0.00    +0.000 A 
ENDROOT
BRANCH   7  10
ATOM     10  C   UNL     1       5.104   4.550  17.219  0.00  0.00    +0.000 A 
ATOM     11  C   UNL     1       4.906   3.942  15.974  0.00  0.00    +0.000 A 
ATOM     12  C   UNL     1       5.718   4.291  14.911  0.00  0.00    +0.000 A 
ATOM     13  N   UNL     1       6.708   5.205  14.950  0.00  0.00    +0.000 NA
ATOM     14  C   UNL     1       6.857   5.770  16.162  0.00  0.00    +0.000 A 
ATOM     15  N   UNL     1       7.786   6.730  16.450  0.00  0.00    +0.000 N 
ATOM     16  C   UNL     1       7.691   7.094  17.767  0.00  0.00    +0.000 A 
ATOM     17  C   UNL     1       6.685   6.343  18.334  0.00  0.00    +0.000 A 
ATOM     18  C   UNL     1       6.130   5.511  17.319  0.00  0.00    +0.000 A 
ATOM     19  H   UNL     1       8.436   7.099  15.772  0.00  0.00    +0.000 HD
ENDBRANCH   7  10
BRANCH   1  20
ATOM     20  O   UNL     1       1.707   8.310  19.524  0.00  0.00    +0.000 OA
BRANCH  20  21
ATOM     21  C   UNL     1       1.229   8.900  20.731  0.00  0.00    +0.000 C 
BRANCH  21  27
ATOM     22  C   UNL     1      -1.092  10.608  23.076  0.00  0.00    +0.000 C 
ATOM     23  C   UNL     1      -0.535  11.501  21.969  0.00  0.00    +0.000 C 
ATOM     24  C   UNL     1      -0.527  12.958  22.406  0.00  0.00    +0.000 C 
ATOM     25  O   UNL     1      -1.329  11.373  20.789  0.00  0.00    +0.000 OA
ATOM     26  C   UNL     1      -0.721  10.330  20.034  0.00  0.00    +0.000 C 
ATOM     27  C   UNL     1       0.729  10.311  20.476  0.00  0.00    +0.000 C 
ATOM     28  O   UNL     1       0.800  11.076  21.684  0.00  0.00    +0.000 OA
ENDBRANCH  21  27
ENDBRANCH  20  21
ENDBRANCH   1  20
TORSDOF 4
ENDMDL
MODEL 4
REMARK VINA RESULT:      -8.4      0.536      1.815
REMARK  Name = 
REMARK  6 active torsions:
REMARK  status: ('A' for Active; 'I' for Inactive)
REMARK    1  A    between atoms: C_1  and  C_2
REMARK    2  A    between atoms: C_2  and  C_3
REMARK    3  A    between atoms: C_6  and  C_7
REMARK    4  A    between atoms: C_7  and  O_8
REMARK    5  A    between atoms: O_8  and  C_9
REMARK    6  A    between atoms: C_15  and  C_16
REMARK                            x       y       z     vdW  Elec       q    Type
REMARK                         _______ _______ _______ _____ _____    ______ ____
ROOT
ATOM      1  C   UNL     1       2.034   6.704  20.178  0.00  0.00    +0.000 A 
ATOM      2  C   UNL     1       1.469   5.512  20.876  0.00  0.00    +0.000 A 
ATOM      3  N   UNL     1       1.908   4.298  20.849  0.00  0.00    +0.000 NA
ATOM      4  N   UNL     1       3.018   4.173  20.099  0.00  0.00    +0.000 N 
ATOM      5  N   UNL     1       3.590   2.969  19.971  0.00  0.00    +0.000 NA
ATOM      6  C   UNL     1       4.647   3.201  19.195  0.00  0.00    +0.000 A 
ATOM      7  C   UNL     1       4.764   4.555  18.801  0.00  0.00    +0.000 A 
ATOM      8  C   UNL     1       3.677   5.166  19.398  0.00  0.00    +0.000 A 
ATOM      9  C   UNL     1       3.130   6.471  19.436  0.00  0.00    +0.000 A 
ENDROOT
BRANCH   7  10
ATOM     10  C   UNL     1       5.758   5.208  17.978  0.00  0.00    +0.000 A 
ATOM     11  C   UNL     1       6.690   6.113  18.499  0.00  0.00    +0.000 A 
ATOM     12  C   UNL     1       7.621   6.690  17.655  0.00  0.00    +0.000 A 
ATOM     13  N   UNL     1       7.738   6.446  16.334  0.00  0.00    +0.000 NA
ATOM     14  C   UNL     1       6.829   5.565  15.879  0.00  0.00    +0.000 A 
ATOM     15  N   UNL     1       6.749   5.150  14.579  0.00  0.00    +0.000 N 
ATOM     16  C   UNL     1       5.717   4.262  14.433  0.00  0.00    +0.000 A 
ATOM     17  C   UNL     1       5.119   4.113  15.665  0.00  0.00    +0.000 A 
ATOM     18  C   UNL     1       5.830   4.921  16.600  0.00  0.00    +0.000 A 
ATOM     19  H   UNL     1       7.373   5.469  13.852  0.00  0.00    +0.000 HD
ENDBRANCH   7  10
BRANCH   1  20
ATOM     20  O   UNL     1       1.492   7.971  20.249  0.00  0.00    +0.000 OA
BRANCH  20  21
ATOM     21  C   UNL     1       1.180   8.385  21.577  0.00  0.00    +0.000 C 
BRANCH  21  27
ATOM     22  C   UNL     1       0.781  11.997  20.804  0.00  0.00    +0.000 C 
ATOM     23  C   UNL     1      -0.532  11.231  20.965  0.00  0.00    +0.000 C 
ATOM     24  C   UNL     1      -1.648  11.908  20.185  0.00  0.00    +0.000 C 
ATOM     25  O   UNL     1      -0.898  11.169  22.343  0.00  0.00    +0.000 OA
ATOM     26  C   UNL     1      -0.320   9.964  22.835  0.00  0.00    +0.000 C 
ATOM     27  C   UNL     1      -0.175   9.068  21.623  0.00  0.00    +0.000 C 
ATOM     28  O   UNL     1      -0.335   9.903  20.472  0.00  0.00    +0.000 OA
ENDBRANCH  21  27
ENDBRANCH  20  21
ENDBRANCH   1  20
TORSDOF 4
ENDMDL
MODEL 5
REMARK VINA RESULT:      -8.4      1.242      1.585
REMARK  Name = 
REMARK  6 active torsions:
REMARK  status: ('A' for Active; 'I' for Inactive)
REMARK    1  A    between atoms: C_1  and  C_2
REMARK    2  A    between atoms: C_2  and  C_3
REMARK    3  A    between atoms: C_6  and  C_7
REMARK    4  A    between atoms: C_7  and  O_8
REMARK    5  A    between atoms: O_8  and  C_9
REMARK    6  A    between atoms: C_15  and  C_16
REMARK                            x       y       z     vdW  Elec       q    Type
REMARK                         _______ _______ _______ _____ _____    ______ ____
ROOT
ATOM      1  C   UNL     1       2.003   6.125  19.996  0.00  0.00    +0.000 A 
ATOM      2  C   UNL     1       1.281   4.955  20.575  0.00  0.00    +0.000 A 
ATOM      3  N   UNL     1       1.449   3.705  20.297  0.00  0.00    +0.000 NA
ATOM      4  N   UNL     1       2.418   3.512  19.384  0.00  0.00    +0.000 N 
ATOM      5  N   UNL     1       2.706   2.264  18.990  0.00  0.00    +0.000 NA
ATOM      6  C   UNL     1       3.696   2.429  18.114  0.00  0.00    +0.000 A 
ATOM      7  C   UNL     1       4.052   3.785  17.923  0.00  0.00    +0.000 A 
ATOM      8  C   UNL     1       3.190   4.472  18.757  0.00  0.00    +0.000 A 
ATOM      9  C   UNL     1       2.937   5.828  19.076  0.00  0.00    +0.000 A 
ENDROOT
BRANCH   7  10
ATOM     10  C   UNL     1       5.063   4.378  17.075  0.00  0.00    +0.000 A 
ATOM     11  C   UNL     1       5.024   4.284  15.679  0.00  0.00    +0.000 A 
ATOM     12  C   UNL     1       6.017   4.888  14.930  0.00  0.00    +0.000 A 
ATOM     13  N   UNL     1       7.048   5.600  15.426  0.00  0.00    +0.000 NA
ATOM     14  C   UNL     1       7.041   5.672  16.770  0.00  0.00    +0.000 A 
ATOM     15  N   UNL     1       7.976   6.345  17.505  0.00  0.00    +0.000 N 
ATOM     16  C   UNL     1       7.698   6.223  18.841  0.00  0.00    +0.000 A 
ATOM     17  C   UNL     1       6.566   5.447  18.961  0.00  0.00    +0.000 A 
ATOM     18  C   UNL     1       6.123   5.107  17.649  0.00  0.00    +0.000 A 
ATOM     19  H   UNL     1       8.749   6.850  17.097  0.00  0.00    +0.000 HD
ENDBRANCH   7  10
BRANCH   1  20
ATOM     20  O   UNL     1       1.752   7.438  20.341  0.00  0.00    +0.000 OA
BRANCH  20  21
ATOM     21  C   UNL     1       1.671   8.317  19.221  0.00  0.00    +0.000 C 
BRANCH  21  27
ATOM     22  C   UNL     1      -1.274  10.038  17.750  0.00  0.00    +0.000 C 
ATOM     23  C   UNL     1      -0.657  10.750  18.952  0.00  0.00    +0.000 C 
ATOM     24  C   UNL     1      -1.692  11.611  19.658  0.00  0.00    +0.000 C 
ATOM     25  O   UNL     1       0.427  11.578  18.530  0.00  0.00    +0.000 OA
ATOM     26  C   UNL     1       1.588  10.758  18.620  0.00  0.00    +0.000 C 
ATOM     27  C   UNL     1       1.255   9.709  19.662  0.00  0.00    +0.000 C 
ATOM     28  O   UNL     1      -0.162   9.754  19.852  0.00  0.00    +0.000 OA
ENDBRANCH  21  27
ENDBRANCH  20  21
ENDBRANCH   1  20
TORSDOF 4
ENDMDL
MODEL 6
REMARK VINA RESULT:      -8.3      1.168      1.209
REMARK  Name = 
REMARK  6 active torsions:
REMARK  status: ('A' for Active; 'I' for Inactive)
REMARK    1  A    between atoms: C_1  and  C_2
REMARK    2  A    between atoms: C_2  and  C_3
REMARK    3  A    between atoms: C_6  and  C_7
REMARK    4  A    between atoms: C_7  and  O_8
REMARK    5  A    between atoms: O_8  and  C_9
REMARK    6  A    between atoms: C_15  and  C_16
REMARK                            x       y       z     vdW  Elec       q    Type
REMARK                         _______ _______ _______ _____ _____    ______ ____
ROOT
ATOM      1  C   UNL     1       1.998   6.031  20.137  0.00  0.00    +0.000 A 
ATOM      2  C   UNL     1       1.193   4.849  20.562  0.00  0.00    +0.000 A 
ATOM      3  N   UNL     1       1.296   3.630  20.144  0.00  0.00    +0.000 NA
ATOM      4  N   UNL     1       2.276   3.484  19.236  0.00  0.00    +0.000 N 
ATOM      5  N   UNL     1       2.502   2.274  18.706  0.00  0.00    +0.000 NA
ATOM      6  C   UNL     1       3.524   2.478  17.876  0.00  0.00    +0.000 A 
ATOM      7  C   UNL     1       3.964   3.822  17.851  0.00  0.00    +0.000 A 
ATOM      8  C   UNL     1       3.120   4.461  18.741  0.00  0.00    +0.000 A 
ATOM      9  C   UNL     1       2.938   5.784  19.209  0.00  0.00    +0.000 A 
ENDROOT
BRANCH   7  10
ATOM     10  C   UNL     1       5.031   4.445  17.099  0.00  0.00    +0.000 A 
ATOM     11  C   UNL     1       5.043   4.483  15.700  0.00  0.00    +0.000 A 
ATOM     12  C   UNL     1       6.089   5.108  15.046  0.00  0.00    +0.000 A 
ATOM     13  N   UNL     1       7.128   5.725  15.643  0.00  0.00    +0.000 NA
ATOM     14  C   UNL     1       7.071   5.672  16.986  0.00  0.00    +0.000 A 
ATOM     15  N   UNL     1       8.003   6.232  17.815  0.00  0.00    +0.000 N 
ATOM     16  C   UNL     1       7.669   5.998  19.123  0.00  0.00    +0.000 A 
ATOM     17  C   UNL     1       6.501   5.267  19.129  0.00  0.00    +0.000 A 
ATOM     18  C   UNL     1       6.097   5.069  17.776  0.00  0.00    +0.000 A 
ATOM     19  H   UNL     1       8.812   6.736  17.484  0.00  0.00    +0.000 HD
ENDBRANCH   7  10
BRANCH   1  20
ATOM     20  O   UNL     1       1.813   7.308  20.626  0.00  0.00    +0.000 OA
BRANCH  20  21
ATOM     21  C   UNL     1       1.725   8.302  19.608  0.00  0.00    +0.000 C 
BRANCH  21  27
ATOM     22  C   UNL     1       1.880  11.870  18.586  0.00  0.00    +0.000 C 
ATOM     23  C   UNL     1       0.522  11.421  19.125  0.00  0.00    +0.000 C 
ATOM     24  C   UNL     1      -0.593  12.287  18.562  0.00  0.00    +0.000 C 
ATOM     25  O   UNL     1       0.505  11.509  20.550  0.00  0.00    +0.000 OA
ATOM     26  C   UNL     1       0.934  10.233  21.013  0.00  0.00    +0.000 C 
ATOM     27  C   UNL     1       0.589   9.267  19.898  0.00  0.00    +0.000 C 
ATOM     28  O   UNL     1       0.319  10.060  18.737  0.00  0.00    +0.000 OA
ENDBRANCH  21  27
ENDBRANCH  20  21
ENDBRANCH   1  20
TORSDOF 4
ENDMDL
MODEL 7
REMARK VINA RESULT:      -8.3      3.822      8.539
REMARK  Name = 
REMARK  6 active torsions:
REMARK  status: ('A' for Active; 'I' for Inactive)
REMARK    1  A    between atoms: C_1  and  C_2
REMARK    2  A    between atoms: C_2  and  C_3
REMARK    3  A    between atoms: C_6  and  C_7
REMARK    4  A    between atoms: C_7  and  O_8
REMARK    5  A    between atoms: O_8  and  C_9
REMARK    6  A    between atoms: C_15  and  C_16
REMARK                            x       y       z     vdW  Elec       q    Type
REMARK                         _______ _______ _______ _____ _____    ______ ____
ROOT
ATOM      1  C   UNL     1       2.981   7.419  18.219  0.00  0.00    +0.000 A 
ATOM      2  C   UNL     1       2.838   6.388  19.288  0.00  0.00    +0.000 A 
ATOM      3  N   UNL     1       2.132   6.461  20.368  0.00  0.00    +0.000 NA
ATOM      4  N   UNL     1       1.463   7.624  20.462  0.00  0.00    +0.000 N 
ATOM      5  N   UNL     1       0.689   7.849  21.532  0.00  0.00    +0.000 NA
ATOM      6  C   UNL     1       0.175   9.056  21.303  0.00  0.00    +0.000 A 
ATOM      7  C   UNL     1       0.619   9.631  20.089  0.00  0.00    +0.000 A 
ATOM      8  C   UNL     1       1.471   8.677  19.565  0.00  0.00    +0.000 A 
ATOM      9  C   UNL     1       2.289   8.554  18.416  0.00  0.00    +0.000 A 
ENDROOT
BRANCH   7  10
ATOM     10  C   UNL     1       0.297  10.904  19.483  0.00  0.00    +0.000 A 
ATOM     11  C   UNL     1       0.980  12.084  19.803  0.00  0.00    +0.000 A 
ATOM     12  C   UNL     1       0.629  13.263  19.173  0.00  0.00    +0.000 A 
ATOM     13  N   UNL     1      -0.328  13.395  18.232  0.00  0.00    +0.000 NA
ATOM     14  C   UNL     1      -0.950  12.236  17.950  0.00  0.00    +0.000 A 
ATOM     15  N   UNL     1      -1.950  12.109  17.025  0.00  0.00    +0.000 N 
ATOM     16  C   UNL     1      -2.382  10.811  16.977  0.00  0.00    +0.000 A 
ATOM     17  C   UNL     1      -1.649  10.094  17.897  0.00  0.00    +0.000 A 
ATOM     18  C   UNL     1      -0.718  10.984  18.509  0.00  0.00    +0.000 A 
ATOM     19  H   UNL     1      -2.299  12.879  16.473  0.00  0.00    +0.000 HD
ENDBRANCH   7  10
BRANCH   1  20
ATOM     20  O   UNL     1       3.770   7.266  17.097  0.00  0.00    +0.000 OA
BRANCH  20  21
ATOM     21  C   UNL     1       4.487   6.034  17.067  0.00  0.00    +0.000 C 
BRANCH  21  27
ATOM     22  C   UNL     1       5.945   3.672  14.598  0.00  0.00    +0.000 C 
ATOM     23  C   UNL     1       6.762   4.944  14.821  0.00  0.00    +0.000 C 
ATOM     24  C   UNL     1       7.602   5.265  13.595  0.00  0.00    +0.000 C 
ATOM     25  O   UNL     1       7.624   4.783  15.948  0.00  0.00    +0.000 OA
ATOM     26  C   UNL     1       6.879   5.256  17.066  0.00  0.00    +0.000 C 
ATOM     27  C   UNL     1       5.877   6.236  16.491  0.00  0.00    +0.000 C 
ATOM     28  O   UNL     1       5.852   6.017  15.077  0.00  0.00    +0.000 OA
ENDBRANCH  21  27
ENDBRANCH  20  21
ENDBRANCH   1  20
TORSDOF 4
ENDMDL
MODEL 8
REMARK VINA RESULT:      -8.3      1.155      2.297
REMARK  Name = 
REMARK  6 active torsions:
REMARK  status: ('A' for Active; 'I' for Inactive)
REMARK    1  A    between atoms: C_1  and  C_2
REMARK    2  A    between atoms: C_2  and  C_3
REMARK    3  A    between atoms: C_6  and  C_7
REMARK    4  A    between atoms: C_7  and  O_8
REMARK    5  A    between atoms: O_8  and  C_9
REMARK    6  A    between atoms: C_15  and  C_16
REMARK                            x       y       z     vdW  Elec       q    Type
REMARK                         _______ _______ _______ _____ _____    ______ ____
ROOT
ATOM      1  C   UNL     1       1.805   6.226  20.341  0.00  0.00    +0.000 A 
ATOM      2  C   UNL     1       1.083   4.979  20.729  0.00  0.00    +0.000 A 
ATOM      3  N   UNL     1       1.444   3.757  20.515  0.00  0.00    +0.000 NA
ATOM      4  N   UNL     1       2.627   3.679  19.880  0.00  0.00    +0.000 N 
ATOM      5  N   UNL     1       3.132   2.474  19.584  0.00  0.00    +0.000 NA
ATOM      6  C   UNL     1       4.290   2.753  18.987  0.00  0.00    +0.000 A 
ATOM      7  C   UNL     1       4.542   4.141  18.880  0.00  0.00    +0.000 A 
ATOM      8  C   UNL     1       3.431   4.723  19.461  0.00  0.00    +0.000 A 
ATOM      9  C   UNL     1       2.968   6.041  19.693  0.00  0.00    +0.000 A 
ENDROOT
BRANCH   7  10
ATOM     10  C   UNL     1       5.669   4.848  18.313  0.00  0.00    +0.000 A 
ATOM     11  C   UNL     1       6.593   5.547  19.099  0.00  0.00    +0.000 A 
ATOM     12  C   UNL     1       7.656   6.188  18.490  0.00  0.00    +0.000 A 
ATOM     13  N   UNL     1       7.913   6.193  17.167  0.00  0.00    +0.000 NA
ATOM     14  C   UNL     1       7.007   5.502  16.452  0.00  0.00    +0.000 A 
ATOM     15  N   UNL     1       7.055   5.354  15.093  0.00  0.00    +0.000 N 
ATOM     16  C   UNL     1       5.989   4.608  14.665  0.00  0.00    +0.000 A 
ATOM     17  C   UNL     1       5.239   4.281  15.773  0.00  0.00    +0.000 A 
ATOM     18  C   UNL     1       5.886   4.825  16.921  0.00  0.00    +0.000 A 
ATOM     19  H   UNL     1       7.782   5.749  14.515  0.00  0.00    +0.000 HD
ENDBRANCH   7  10
BRANCH   1  20
ATOM     20  O   UNL     1       1.341   7.500  20.598  0.00  0.00    +0.000 OA
BRANCH  20  21
ATOM     21  C   UNL     1       1.472   8.390  19.492  0.00  0.00    +0.000 C 
BRANCH  21  27
ATOM     22  C   UNL     1      -1.284  10.050  17.635  0.00  0.00    +0.000 C 
ATOM     23  C   UNL     1      -0.837  10.783  18.899  0.00  0.00    +0.000 C 
ATOM     24  C   UNL     1      -1.967  11.633  19.456  0.00  0.00    +0.000 C 
ATOM     25  O   UNL     1       0.280  11.624  18.611  0.00  0.00    +0.000 OA
ATOM     26  C   UNL     1       1.431  10.824  18.859  0.00  0.00    +0.000 C 
ATOM     27  C   UNL     1       0.983   9.779  19.860  0.00  0.00    +0.000 C 
ATOM     28  O   UNL     1      -0.448   9.803  19.866  0.00  0.00    +0.000 OA
ENDBRANCH  21  27
ENDBRANCH  20  21
ENDBRANCH   1  20
TORSDOF 4
ENDMDL
MODEL 9
REMARK VINA RESULT:      -8.2      1.353      1.701
REMARK  Name = 
REMARK  6 active torsions:
REMARK  status: ('A' for Active; 'I' for Inactive)
REMARK    1  A    between atoms: C_1  and  C_2
REMARK    2  A    between atoms: C_2  and  C_3
REMARK    3  A    between atoms: C_6  and  C_7
REMARK    4  A    between atoms: C_7  and  O_8
REMARK    5  A    between atoms: O_8  and  C_9
REMARK    6  A    between atoms: C_15  and  C_16
REMARK                            x       y       z     vdW  Elec       q    Type
REMARK                         _______ _______ _______ _____ _____    ______ ____
ROOT
ATOM      1  C   UNL     1       2.160   6.881  19.657  0.00  0.00    +0.000 A 
ATOM      2  C   UNL     1       1.701   5.982  20.756  0.00  0.00    +0.000 A 
ATOM      3  N   UNL     1       2.056   4.760  20.979  0.00  0.00    +0.000 NA
ATOM      4  N   UNL     1       2.961   4.321  20.086  0.00  0.00    +0.000 N 
ATOM      5  N   UNL     1       3.423   3.068  20.184  0.00  0.00    +0.000 NA
ATOM      6  C   UNL     1       4.291   2.970  19.179  0.00  0.00    +0.000 A 
ATOM      7  C   UNL     1       4.393   4.154  18.412  0.00  0.00    +0.000 A 
ATOM      8  C   UNL     1       3.501   5.018  19.020  0.00  0.00    +0.000 A 
ATOM      9  C   UNL     1       3.049   6.342  18.805  0.00  0.00    +0.000 A 
ENDROOT
BRANCH   7  10
ATOM     10  C   UNL     1       5.211   4.456  17.258  0.00  0.00    +0.000 A 
ATOM     11  C   UNL     1       5.054   3.799  16.032  0.00  0.00    +0.000 A 
ATOM     12  C   UNL     1       5.863   4.149  14.966  0.00  0.00    +0.000 A 
ATOM     13  N   UNL     1       6.810   5.108  14.984  0.00  0.00    +0.000 NA
ATOM     14  C   UNL     1       6.920   5.718  16.178  0.00  0.00    +0.000 A 
ATOM     15  N   UNL     1       7.802   6.728  16.443  0.00  0.00    +0.000 N 
ATOM     16  C   UNL     1       7.676   7.130  17.746  0.00  0.00    +0.000 A 
ATOM     17  C   UNL     1       6.698   6.354  18.328  0.00  0.00    +0.000 A 
ATOM     18  C   UNL     1       6.192   5.464  17.335  0.00  0.00    +0.000 A 
ATOM     19  H   UNL     1       8.443   7.103  15.759  0.00  0.00    +0.000 HD
ENDBRANCH   7  10
BRANCH   1  20
ATOM     20  O   UNL     1       1.719   8.177  19.483  0.00  0.00    +0.000 OA
BRANCH  20  21
ATOM     21  C   UNL     1       2.311   8.837  18.367  0.00  0.00    +0.000 C 
BRANCH  21  27
ATOM     22  C   UNL     1       1.144  11.563  20.604  0.00  0.00    +0.000 C 
ATOM     23  C   UNL     1       0.821  11.771  19.125  0.00  0.00    +0.000 C 
ATOM     24  C   UNL     1       0.679  13.252  18.809  0.00  0.00    +0.000 C 
ATOM     25  O   UNL     1      -0.397  11.105  18.790  0.00  0.00    +0.000 OA
ATOM     26  C   UNL     1      -0.011   9.804  18.359  0.00  0.00    +0.000 C 
ATOM     27  C   UNL     1       1.414   9.954  17.865  0.00  0.00    +0.000 C 
ATOM     28  O   UNL     1       1.888  11.212  18.355  0.00  0.00    +0.000 OA
ENDBRANCH  21  27
ENDBRANCH  20  21
ENDBRANCH   1  20
TORSDOF 4
ENDMDL
