MODEL 1
REMARK VINA RESULT:      -8.7      0.000      0.000
REMARK  Name = 
REMARK  3 active torsions:
REMARK  status: ('A' for Active; 'I' for Inactive)
REMARK    1  A    between atoms: C_2  and  C_3
REMARK    2  A    between atoms: C_3  and  S_4
REMARK    3  A    between atoms: S_4  and  C_6
REMARK                            x       y       z     vdW  Elec       q    Type
REMARK                         _______ _______ _______ _____ _____    ______ ____
ROOT
ATOM      1  C   UNL     1       3.255   5.998  18.844  0.00  0.00    +0.000 C 
ATOM      2  C   UNL     1       2.411   4.724  18.956  0.00  0.00    +0.000 A 
ATOM      3  C   UNL     1       1.433   4.390  19.886  0.00  0.00    +0.000 A 
ATOM      4  C   UNL     1       0.832   3.130  19.809  0.00  0.00    +0.000 A 
ATOM      5  C   UNL     1       1.235   2.200  18.841  0.00  0.00    +0.000 A 
ATOM      6  C   UNL     1       2.246   2.515  17.932  0.00  0.00    +0.000 A 
ATOM      7  C   UNL     1       2.826   3.774  17.993  0.00  0.00    +0.000 A 
ATOM      8  C   UNL     1       3.925   4.317  17.232  0.00  0.00    +0.000 A 
ATOM      9  C   UNL     1       4.651   3.767  16.185  0.00  0.00    +0.000 A 
ATOM     10  C   UNL     1       5.708   4.507  15.645  0.00  0.00    +0.000 A 
ATOM     11  C   UNL     1       6.037   5.767  16.163  0.00  0.00    +0.000 A 
ATOM     12  C   UNL     1       5.306   6.322  17.216  0.00  0.00    +0.000 A 
ATOM     13  C   UNL     1       4.238   5.597  17.731  0.00  0.00    +0.000 A 
ENDROOT
BRANCH   1  14
ATOM     14  S   UNL     1       2.326   7.479  18.306  0.00  0.00    +0.000 S 
ATOM     15  O   UNL     1       3.303   8.532  17.667  0.00  0.00    +0.000 OA
BRANCH  14  16
ATOM     16  C   UNL     1       1.707   8.146  19.866  0.00  0.00    +0.000 C 
BRANCH  16  18
ATOM     17  O   UNL     1       1.154  10.293  18.915  0.00  0.00    +0.000 OA
ATOM     18  C   UNL     1       0.967   9.464  19.806  0.00  0.00    +0.000 C 
ATOM     19  N   UNL     1       0.088   9.738  20.852  0.00  0.00    +0.000 N 
ATOM     20  C   UNL     1      -0.209   8.868  21.998  0.00  0.00    +0.000 C 
ATOM     21  C   UNL     1      -0.173   9.668  23.319  0.00  0.00    +0.000 C 
ATOM     22  N   UNL     1      -1.025  10.866  23.292  0.00  0.00    +0.000 NA
ATOM     23  C   UNL     1      -0.678  11.714  22.136  0.00  0.00    +0.000 C 
ATOM     24  C   UNL     1      -0.736  10.951  20.803  0.00  0.00    +0.000 C 
ATOM     25  H   UNL     1      -0.890  11.401  24.150  0.00  0.00    +0.000 HD
ENDBRANCH  16  18
ENDBRANCH  14  16
ENDBRANCH   1  14
TORSDOF 3
ENDMDL
MODEL 2
REMARK VINA RESULT:      -8.2      1.721      3.642
REMARK  Name = 
REMARK  3 active torsions:
REMARK  status: ('A' for Active; 'I' for Inactive)
REMARK    1  A    between atoms: C_2  and  C_3
REMARK    2  A    between atoms: C_3  and  S_4
REMARK    3  A    between atoms: S_4  and  C_6
REMARK                            x       y       z     vdW  Elec       q    Type
REMARK                         _______ _______ _______ _____ _____    ______ ____
ROOT
ATOM      1  C   UNL     1       3.357   6.284  17.575  0.00  0.00    +0.000 C 
ATOM      2  C   UNL     1       4.876   6.083  17.572  0.00  0.00    +0.000 A 
ATOM      3  C   UNL     1       5.886   6.979  17.240  0.00  0.00    +0.000 A 
ATOM      4  C   UNL     1       7.213   6.540  17.267  0.00  0.00    +0.000 A 
ATOM      5  C   UNL     1       7.522   5.208  17.579  0.00  0.00    +0.000 A 
ATOM      6  C   UNL     1       6.509   4.295  17.872  0.00  0.00    +0.000 A 
ATOM      7  C   UNL     1       5.194   4.737  17.869  0.00  0.00    +0.000 A 
ATOM      8  C   UNL     1       3.973   3.992  18.060  0.00  0.00    +0.000 A 
ATOM      9  C   UNL     1       3.778   2.654  18.373  0.00  0.00    +0.000 A 
ATOM     10  C   UNL     1       2.467   2.174  18.463  0.00  0.00    +0.000 A 
ATOM     11  C   UNL     1       1.377   3.022  18.222  0.00  0.00    +0.000 A 
ATOM     12  C   UNL     1       1.573   4.369  17.908  0.00  0.00    +0.000 A 
ATOM     13  C   UNL     1       2.876   4.849  17.849  0.00  0.00    +0.000 A 
ENDROOT
BRANCH   1  14
ATOM     14  S   UNL     1       2.739   7.378  18.905  0.00  0.00    +0.000 S 
ATOM     15  O   UNL     1       1.999   6.533  20.005  0.00  0.00    +0.000 OA
BRANCH  14  16
ATOM     16  C   UNL     1       1.516   8.393  18.046  0.00  0.00    +0.000 C 
BRANCH  16  18
ATOM     17  O   UNL     1       2.389  10.564  17.460  0.00  0.00    +0.000 OA
ATOM     18  C   UNL     1       1.649   9.894  18.181  0.00  0.00    +0.000 C 
ATOM     19  N   UNL     1       0.934  10.497  19.213  0.00  0.00    +0.000 N 
ATOM     20  C   UNL     1       0.046   9.827  20.172  0.00  0.00    +0.000 C 
ATOM     21  C   UNL     1       0.333  10.303  21.613  0.00  0.00    +0.000 C 
ATOM     22  N   UNL     1       0.304  11.767  21.753  0.00  0.00    +0.000 NA
ATOM     23  C   UNL     1       1.222  12.393  20.783  0.00  0.00    +0.000 C 
ATOM     24  C   UNL     1       0.939  11.959  19.336  0.00  0.00    +0.000 C 
ATOM     25  H   UNL     1       0.590  12.026  22.698  0.00  0.00    +0.000 HD
ENDBRANCH  16  18
ENDBRANCH  14  16
ENDBRANCH   1  14
TORSDOF 3
ENDMDL
MODEL 3
REMARK VINA RESULT:      -8.1      1.790      2.313
REMARK  Name = 
REMARK  3 active torsions:
REMARK  status: ('A' for Active; 'I' for Inactive)
REMARK    1  A    between atoms: C_2  and  C_3
REMARK    2  A    between atoms: C_3  and  S_4
REMARK    3  A    between atoms: S_4  and  C_6
REMARK                            x       y       z     vdW  Elec       q    Type
REMARK                         _______ _______ _______ _____ _____    ______ ____
ROOT
ATOM      1  C   UNL     1       3.034   6.753  18.870  0.00  0.00    +0.000 C 
ATOM      2  C   UNL     1       2.335   5.471  19.334  0.00  0.00    +0.000 A 
ATOM      3  C   UNL     1       1.499   5.265  20.426  0.00  0.00    +0.000 A 
ATOM      4  C   UNL     1       1.018   3.976  20.673  0.00  0.00    +0.000 A 
ATOM      5  C   UNL     1       1.405   2.898  19.864  0.00  0.00    +0.000 A 
ATOM      6  C   UNL     1       2.277   3.092  18.792  0.00  0.00    +0.000 A 
ATOM      7  C   UNL     1       2.735   4.376  18.533  0.00  0.00    +0.000 A 
ATOM      8  C   UNL     1       3.689   4.830  17.549  0.00  0.00    +0.000 A 
ATOM      9  C   UNL     1       4.348   4.131  16.549  0.00  0.00    +0.000 A 
ATOM     10  C   UNL     1       5.265   4.819  15.747  0.00  0.00    +0.000 A 
ATOM     11  C   UNL     1       5.523   6.180  15.963  0.00  0.00    +0.000 A 
ATOM     12  C   UNL     1       4.858   6.885  16.968  0.00  0.00    +0.000 A 
ATOM     13  C   UNL     1       3.927   6.205  17.744  0.00  0.00    +0.000 A 
ENDROOT
BRANCH   1  14
ATOM     14  S   UNL     1       1.913   8.018  18.172  0.00  0.00    +0.000 S 
ATOM     15  O   UNL     1       2.745   9.180  17.515  0.00  0.00    +0.000 OA
BRANCH  14  16
ATOM     16  C   UNL     1       1.085   8.668  19.639  0.00  0.00    +0.000 C 
BRANCH  16  18
ATOM     17  O   UNL     1       1.454  10.867  20.559  0.00  0.00    +0.000 OA
ATOM     18  C   UNL     1       0.892  10.166  19.716  0.00  0.00    +0.000 C 
ATOM     19  N   UNL     1      -0.009  10.730  18.816  0.00  0.00    +0.000 N 
ATOM     20  C   UNL     1      -0.778  10.020  17.784  0.00  0.00    +0.000 C 
ATOM     21  C   UNL     1      -2.258  10.461  17.800  0.00  0.00    +0.000 C 
ATOM     22  N   UNL     1      -2.426  11.920  17.717  0.00  0.00    +0.000 NA
ATOM     23  C   UNL     1      -1.651  12.586  18.781  0.00  0.00    +0.000 C 
ATOM     24  C   UNL     1      -0.166  12.187  18.769  0.00  0.00    +0.000 C 
ATOM     25  H   UNL     1      -3.412  12.158  17.825  0.00  0.00    +0.000 HD
ENDBRANCH  16  18
ENDBRANCH  14  16
ENDBRANCH   1  14
TORSDOF 3
ENDMDL
MODEL 4
REMARK VINA RESULT:      -8.0      1.394      1.908
REMARK  Name = 
REMARK  3 active torsions:
REMARK  status: ('A' for Active; 'I' for Inactive)
REMARK    1  A    between atoms: C_2  and  C_3
REMARK    2  A    between atoms: C_3  and  S_4
REMARK    3  A    between atoms: S_4  and  C_6
REMARK                            x       y       z     vdW  Elec       q    Type
REMARK                         _______ _______ _______ _____ _____    ______ ____
ROOT
ATOM      1  C   UNL     1       2.966   6.242  19.260  0.00  0.00    +0.000 C 
ATOM      2  C   UNL     1       2.207   4.911  19.310  0.00  0.00    +0.000 A 
ATOM      3  C   UNL     1       1.318   4.436  20.268  0.00  0.00    +0.000 A 
ATOM      4  C   UNL     1       0.786   3.153  20.115  0.00  0.00    +0.000 A 
ATOM      5  C   UNL     1       1.173   2.338  19.042  0.00  0.00    +0.000 A 
ATOM      6  C   UNL     1       2.096   2.795  18.102  0.00  0.00    +0.000 A 
ATOM      7  C   UNL     1       2.606   4.078  18.240  0.00  0.00    +0.000 A 
ATOM      8  C   UNL     1       3.616   4.754  17.461  0.00  0.00    +0.000 A 
ATOM      9  C   UNL     1       4.296   4.345  16.323  0.00  0.00    +0.000 A 
ATOM     10  C   UNL     1       5.268   5.194  15.784  0.00  0.00    +0.000 A 
ATOM     11  C   UNL     1       5.560   6.423  16.393  0.00  0.00    +0.000 A 
ATOM     12  C   UNL     1       4.875   6.837  17.538  0.00  0.00    +0.000 A 
ATOM     13  C   UNL     1       3.889   6.003  18.053  0.00  0.00    +0.000 A 
ENDROOT
BRANCH   1  14
ATOM     14  S   UNL     1       1.918   7.702  18.921  0.00  0.00    +0.000 S 
ATOM     15  O   UNL     1       2.664   8.696  17.958  0.00  0.00    +0.000 OA
BRANCH  14  16
ATOM     16  C   UNL     1       1.781   8.476  20.547  0.00  0.00    +0.000 C 
BRANCH  16  18
ATOM     17  O   UNL     1      -0.459   8.425  21.442  0.00  0.00    +0.000 OA
ATOM     18  C   UNL     1       0.441   9.078  20.913  0.00  0.00    +0.000 C 
ATOM     19  N   UNL     1       0.238  10.412  20.568  0.00  0.00    +0.000 N 
ATOM     20  C   UNL     1       1.198  11.303  19.903  0.00  0.00    +0.000 C 
ATOM     21  C   UNL     1       0.523  12.077  18.750  0.00  0.00    +0.000 C 
ATOM     22  N   UNL     1      -0.697  12.784  19.167  0.00  0.00    +0.000 NA
ATOM     23  C   UNL     1      -1.636  11.847  19.812  0.00  0.00    +0.000 C 
ATOM     24  C   UNL     1      -0.998  11.084  20.984  0.00  0.00    +0.000 C 
ATOM     25  H   UNL     1      -1.148  13.198  18.351  0.00  0.00    +0.000 HD
ENDBRANCH  16  18
ENDBRANCH  14  16
ENDBRANCH   1  14
TORSDOF 3
ENDMDL
MODEL 5
REMARK VINA RESULT:      -7.8      1.872      2.414
REMARK  Name = 
REMARK  3 active torsions:
REMARK  status: ('A' for Active; 'I' for Inactive)
REMARK    1  A    between atoms: C_2  and  C_3
REMARK    2  A    between atoms: C_3  and  S_4
REMARK    3  A    between atoms: S_4  and  C_6
REMARK                            x       y       z     vdW  Elec       q    Type
REMARK                         _______ _______ _______ _____ _____    ______ ____
ROOT
ATOM      1  C   UNL     1       2.961   6.818  18.899  0.00  0.00    +0.000 C 
ATOM      2  C   UNL     1       2.290   5.521  19.363  0.00  0.00    +0.000 A 
ATOM      3  C   UNL     1       1.469   5.294  20.462  0.00  0.00    +0.000 A 
ATOM      4  C   UNL     1       1.014   3.995  20.707  0.00  0.00    +0.000 A 
ATOM      5  C   UNL     1       1.412   2.928  19.888  0.00  0.00    +0.000 A 
ATOM      6  C   UNL     1       2.269   3.145  18.809  0.00  0.00    +0.000 A 
ATOM      7  C   UNL     1       2.702   4.438  18.552  0.00  0.00    +0.000 A 
ATOM      8  C   UNL     1       3.637   4.915  17.561  0.00  0.00    +0.000 A 
ATOM      9  C   UNL     1       4.299   4.233  16.550  0.00  0.00    +0.000 A 
ATOM     10  C   UNL     1       5.194   4.942  15.743  0.00  0.00    +0.000 A 
ATOM     11  C   UNL     1       5.430   6.306  15.963  0.00  0.00    +0.000 A 
ATOM     12  C   UNL     1       4.762   6.994  16.980  0.00  0.00    +0.000 A 
ATOM     13  C   UNL     1       3.851   6.292  17.761  0.00  0.00    +0.000 A 
ENDROOT
BRANCH   1  14
ATOM     14  S   UNL     1       1.810   8.067  18.219  0.00  0.00    +0.000 S 
ATOM     15  O   UNL     1       2.570   9.029  17.235  0.00  0.00    +0.000 OA
BRANCH  14  16
ATOM     16  C   UNL     1       1.335   9.008  19.685  0.00  0.00    +0.000 C 
BRANCH  16  18
ATOM     17  O   UNL     1      -0.985   9.603  19.395  0.00  0.00    +0.000 OA
ATOM     18  C   UNL     1       0.180   9.975  19.539  0.00  0.00    +0.000 C 
ATOM     19  N   UNL     1       0.497  11.331  19.514  0.00  0.00    +0.000 N 
ATOM     20  C   UNL     1       1.837  11.921  19.636  0.00  0.00    +0.000 C 
ATOM     21  C   UNL     1       2.061  13.005  18.559  0.00  0.00    +0.000 C 
ATOM     22  N   UNL     1       1.002  14.025  18.539  0.00  0.00    +0.000 NA
ATOM     23  C   UNL     1      -0.321  13.387  18.399  0.00  0.00    +0.000 C 
ATOM     24  C   UNL     1      -0.582  12.323  19.477  0.00  0.00    +0.000 C 
ATOM     25  H   UNL     1       1.151  14.658  17.753  0.00  0.00    +0.000 HD
ENDBRANCH  16  18
ENDBRANCH  14  16
ENDBRANCH   1  14
TORSDOF 3
ENDMDL
MODEL 6
REMARK VINA RESULT:      -7.8      1.130      1.448
REMARK  Name = 
REMARK  3 active torsions:
REMARK  status: ('A' for Active; 'I' for Inactive)
REMARK    1  A    between atoms: C_2  and  C_3
REMARK    2  A    between atoms: C_3  and  S_4
REMARK    3  A    between atoms: S_4  and  C_6
REMARK                            x       y       z     vdW  Elec       q    Type
REMARK                         _______ _______ _______ _____ _____    ______ ____
ROOT
ATOM      1  C   UNL     1       2.939   6.373  19.017  0.00  0.00    +0.000 C 
ATOM      2  C   UNL     1       2.264   5.017  19.252  0.00  0.00    +0.000 A 
ATOM      3  C   UNL     1       1.372   4.634  20.247  0.00  0.00    +0.000 A 
ATOM      4  C   UNL     1       0.928   3.309  20.282  0.00  0.00    +0.000 A 
ATOM      5  C   UNL     1       1.405   2.368  19.359  0.00  0.00    +0.000 A 
ATOM      6  C   UNL     1       2.332   2.738  18.383  0.00  0.00    +0.000 A 
ATOM      7  C   UNL     1       2.754   4.059  18.335  0.00  0.00    +0.000 A 
ATOM      8  C   UNL     1       3.747   4.676  17.488  0.00  0.00    +0.000 A 
ATOM      9  C   UNL     1       4.493   4.144  16.445  0.00  0.00    +0.000 A 
ATOM     10  C   UNL     1       5.428   4.966  15.808  0.00  0.00    +0.000 A 
ATOM     11  C   UNL     1       5.619   6.290  16.226  0.00  0.00    +0.000 A 
ATOM     12  C   UNL     1       4.867   6.826  17.275  0.00  0.00    +0.000 A 
ATOM     13  C   UNL     1       3.918   6.015  17.886  0.00  0.00    +0.000 A 
ENDROOT
BRANCH   1  14
ATOM     14  S   UNL     1       1.813   7.689  18.428  0.00  0.00    +0.000 S 
ATOM     15  O   UNL     1       2.368   8.328  17.104  0.00  0.00    +0.000 OA
BRANCH  14  16
ATOM     16  C   UNL     1       1.920   8.920  19.745  0.00  0.00    +0.000 C 
BRANCH  16  18
ATOM     17  O   UNL     1       0.690   7.552  21.305  0.00  0.00    +0.000 OA
ATOM     18  C   UNL     1       1.098   8.670  20.991  0.00  0.00    +0.000 C 
ATOM     19  N   UNL     1       0.761   9.785  21.755  0.00  0.00    +0.000 N 
ATOM     20  C   UNL     1       1.141  11.179  21.487  0.00  0.00    +0.000 C 
ATOM     21  C   UNL     1      -0.076  12.118  21.632  0.00  0.00    +0.000 C 
ATOM     22  N   UNL     1      -0.770  11.966  22.920  0.00  0.00    +0.000 NA
ATOM     23  C   UNL     1      -1.146  10.556  23.137  0.00  0.00    +0.000 C 
ATOM     24  C   UNL     1       0.054   9.601  23.026  0.00  0.00    +0.000 C 
ATOM     25  H   UNL     1      -1.614  12.540  22.923  0.00  0.00    +0.000 HD
ENDBRANCH  16  18
ENDBRANCH  14  16
ENDBRANCH   1  14
TORSDOF 3
ENDMDL
MODEL 7
REMARK VINA RESULT:      -7.8      1.743      3.732
REMARK  Name = 
REMARK  3 active torsions:
REMARK  status: ('A' for Active; 'I' for Inactive)
REMARK    1  A    between atoms: C_2  and  C_3
REMARK    2  A    between atoms: C_3  and  S_4
REMARK    3  A    between atoms: S_4  and  C_6
REMARK                            x       y       z     vdW  Elec       q    Type
REMARK                         _______ _______ _______ _____ _____    ______ ____
ROOT
ATOM      1  C   UNL     1       2.544   6.006  18.244  0.00  0.00    +0.000 C 
ATOM      2  C   UNL     1       3.938   5.719  17.674  0.00  0.00    +0.000 A 
ATOM      3  C   UNL     1       4.619   6.356  16.643  0.00  0.00    +0.000 A 
ATOM      4  C   UNL     1       5.876   5.873  16.266  0.00  0.00    +0.000 A 
ATOM      5  C   UNL     1       6.424   4.740  16.883  0.00  0.00    +0.000 A 
ATOM      6  C   UNL     1       5.725   4.073  17.890  0.00  0.00    +0.000 A 
ATOM      7  C   UNL     1       4.488   4.566  18.280  0.00  0.00    +0.000 A 
ATOM      8  C   UNL     1       3.542   4.029  19.228  0.00  0.00    +0.000 A 
ATOM      9  C   UNL     1       3.635   2.924  20.062  0.00  0.00    +0.000 A 
ATOM     10  C   UNL     1       2.538   2.600  20.866  0.00  0.00    +0.000 A 
ATOM     11  C   UNL     1       1.364   3.365  20.815  0.00  0.00    +0.000 A 
ATOM     12  C   UNL     1       1.270   4.479  19.977  0.00  0.00    +0.000 A 
ATOM     13  C   UNL     1       2.373   4.815  19.202  0.00  0.00    +0.000 A 
ENDROOT
BRANCH   1  14
ATOM     14  S   UNL     1       2.422   7.558  19.205  0.00  0.00    +0.000 S 
ATOM     15  O   UNL     1       1.619   7.313  20.534  0.00  0.00    +0.000 OA
BRANCH  14  16
ATOM     16  C   UNL     1       1.433   8.615  18.125  0.00  0.00    +0.000 C 
BRANCH  16  18
ATOM     17  O   UNL     1       2.486  10.699  17.520  0.00  0.00    +0.000 OA
ATOM     18  C   UNL     1       1.665  10.107  18.221  0.00  0.00    +0.000 C 
ATOM     19  N   UNL     1       0.942  10.793  19.195  0.00  0.00    +0.000 N 
ATOM     20  C   UNL     1      -0.039  10.220  20.125  0.00  0.00    +0.000 C 
ATOM     21  C   UNL     1       0.207  10.724  21.564  0.00  0.00    +0.000 C 
ATOM     22  N   UNL     1       0.275  12.190  21.658  0.00  0.00    +0.000 NA
ATOM     23  C   UNL     1       1.283  12.717  20.719  0.00  0.00    +0.000 C 
ATOM     24  C   UNL     1       1.044  12.254  19.273  0.00  0.00    +0.000 C 
ATOM     25  H   UNL     1       0.530  12.461  22.608  0.00  0.00    +0.000 HD
ENDBRANCH  16  18
ENDBRANCH  14  16
ENDBRANCH   1  14
TORSDOF 3
ENDMDL
MODEL 8
REMARK VINA RESULT:      -7.7      1.776      3.808
REMARK  Name = 
REMARK  3 active torsions:
REMARK  status: ('A' for Active; 'I' for Inactive)
REMARK    1  A    between atoms: C_2  and  C_3
REMARK    2  A    between atoms: C_3  and  S_4
REMARK    3  A    between atoms: S_4  and  C_6
REMARK                            x       y       z     vdW  Elec       q    Type
REMARK                         _______ _______ _______ _____ _____    ______ ____
ROOT
ATOM      1  C   UNL     1       2.902   6.022  18.051  0.00  0.00    +0.000 C 
ATOM      2  C   UNL     1       4.378   5.977  17.640  0.00  0.00    +0.000 A 
ATOM      3  C   UNL     1       5.226   7.017  17.278  0.00  0.00    +0.000 A 
ATOM      4  C   UNL     1       6.535   6.715  16.890  0.00  0.00    +0.000 A 
ATOM      5  C   UNL     1       6.975   5.385  16.822  0.00  0.00    +0.000 A 
ATOM      6  C   UNL     1       6.114   4.336  17.145  0.00  0.00    +0.000 A 
ATOM      7  C   UNL     1       4.823   4.637  17.553  0.00  0.00    +0.000 A 
ATOM      8  C   UNL     1       3.727   3.751  17.865  0.00  0.00    +0.000 A 
ATOM      9  C   UNL     1       3.680   2.365  17.918  0.00  0.00    +0.000 A 
ATOM     10  C   UNL     1       2.460   1.749  18.213  0.00  0.00    +0.000 A 
ATOM     11  C   UNL     1       1.307   2.516  18.431  0.00  0.00    +0.000 A 
ATOM     12  C   UNL     1       1.353   3.911  18.379  0.00  0.00    +0.000 A 
ATOM     13  C   UNL     1       2.574   4.520  18.115  0.00  0.00    +0.000 A 
ENDROOT
BRANCH   1  14
ATOM     14  S   UNL     1       2.594   6.763  19.695  0.00  0.00    +0.000 S 
ATOM     15  O   UNL     1       1.675   5.820  20.554  0.00  0.00    +0.000 OA
BRANCH  14  16
ATOM     16  C   UNL     1       1.660   8.254  19.287  0.00  0.00    +0.000 C 
BRANCH  16  18
ATOM     17  O   UNL     1       1.334   8.780  21.618  0.00  0.00    +0.000 OA
ATOM     18  C   UNL     1       1.205   9.120  20.442  0.00  0.00    +0.000 C 
ATOM     19  N   UNL     1       0.567  10.314  20.117  0.00  0.00    +0.000 N 
ATOM     20  C   UNL     1       0.309  10.832  18.767  0.00  0.00    +0.000 C 
ATOM     21  C   UNL     1      -1.147  11.333  18.639  0.00  0.00    +0.000 C 
ATOM     22  N   UNL     1      -1.520  12.295  19.686  0.00  0.00    +0.000 NA
ATOM     23  C   UNL     1      -1.259  11.726  21.021  0.00  0.00    +0.000 C 
ATOM     24  C   UNL     1       0.192  11.246  21.187  0.00  0.00    +0.000 C 
ATOM     25  H   UNL     1      -2.512  12.519  19.608  0.00  0.00    +0.000 HD
ENDBRANCH  16  18
ENDBRANCH  14  16
ENDBRANCH   1  14
TORSDOF 3
ENDMDL
MODEL 9
REMARK VINA RESULT:      -7.7      1.329      3.558
REMARK  Name = 
REMARK  3 active torsions:
REMARK  status: ('A' for Active; 'I' for Inactive)
REMARK    1  A    between atoms: C_2  and  C_3
REMARK    2  A    between atoms: C_3  and  S_4
REMARK    3  A    between atoms: S_4  and  C_6
REMARK                            x       y       z     vdW  Elec       q    Type
REMARK                         _______ _______ _______ _____ _____    ______ ____
ROOT
ATOM      1  C   UNL     1       3.277   5.736  17.545  0.00  0.00    +0.000 C 
ATOM      2  C   UNL     1       4.457   5.308  16.665  0.00  0.00    +0.000 A 
ATOM      3  C   UNL     1       5.332   6.088  15.918  0.00  0.00    +0.000 A 
ATOM      4  C   UNL     1       6.310   5.454  15.147  0.00  0.00    +0.000 A 
ATOM      5  C   UNL     1       6.384   4.055  15.089  0.00  0.00    +0.000 A 
ATOM      6  C   UNL     1       5.482   3.267  15.805  0.00  0.00    +0.000 A 
ATOM      7  C   UNL     1       4.526   3.897  16.589  0.00  0.00    +0.000 A 
ATOM      8  C   UNL     1       3.444   3.327  17.356  0.00  0.00    +0.000 A 
ATOM      9  C   UNL     1       3.108   2.000  17.583  0.00  0.00    +0.000 A 
ATOM     10  C   UNL     1       1.968   1.722  18.344  0.00  0.00    +0.000 A 
ATOM     11  C   UNL     1       1.175   2.761  18.850  0.00  0.00    +0.000 A 
ATOM     12  C   UNL     1       1.514   4.097  18.623  0.00  0.00    +0.000 A 
ATOM     13  C   UNL     1       2.663   4.370  17.891  0.00  0.00    +0.000 A 
ENDROOT
BRANCH   1  14
ATOM     14  S   UNL     1       3.755   6.579  19.097  0.00  0.00    +0.000 S 
ATOM     15  O   UNL     1       4.375   5.547  20.108  0.00  0.00    +0.000 OA
BRANCH  14  16
ATOM     16  C   UNL     1       2.165   7.134  19.750  0.00  0.00    +0.000 C 
BRANCH  16  18
ATOM     17  O   UNL     1       2.116   9.109  18.366  0.00  0.00    +0.000 OA
ATOM     18  C   UNL     1       1.715   8.529  19.376  0.00  0.00    +0.000 C 
ATOM     19  N   UNL     1       0.858   9.172  20.266  0.00  0.00    +0.000 N 
ATOM     20  C   UNL     1       0.328   8.626  21.523  0.00  0.00    +0.000 C 
ATOM     21  C   UNL     1       0.459   9.655  22.668  0.00  0.00    +0.000 C 
ATOM     22  N   UNL     1      -0.126  10.963  22.337  0.00  0.00    +0.000 NA
ATOM     23  C   UNL     1       0.448  11.477  21.079  0.00  0.00    +0.000 C 
ATOM     24  C   UNL     1       0.305  10.484  19.914  0.00  0.00    +0.000 C 
ATOM     25  H   UNL     1       0.070  11.625  23.088  0.00  0.00    +0.000 HD
ENDBRANCH  16  18
ENDBRANCH  14  16
ENDBRANCH   1  14
TORSDOF 3
ENDMDL
