MODEL 1
REMARK VINA RESULT:      -7.6      0.000      0.000
REMARK  Name = 
REMARK  10 active torsions:
REMARK  status: ('A' for Active; 'I' for Inactive)
REMARK    1  A    between atoms: C_1  and  O_2
REMARK    2  A    between atoms: O_2  and  C_3
REMARK    3  A    between atoms: C_6  and  N_7
REMARK    4  A    between atoms: C_8  and  C_10
REMARK    5  A    between atoms: C_10  and  S_11
REMARK    6  A    between atoms: S_11  and  C_12
REMARK    7  A    between atoms: N_22  and  C_23
REMARK    8  A    between atoms: C_23  and  C_24
REMARK    9  A    between atoms: C_24  and  C_25
REMARK   10  A    between atoms: C_25  and  O_26
REMARK                            x       y       z     vdW  Elec       q    Type
REMARK                         _______ _______ _______ _____ _____    ______ ____
ROOT
ATOM      1  C   UNL     1       3.132   6.487  18.498  0.00  0.00    +0.000 A 
ATOM      2  N   UNL     1       3.734   6.813  17.401  0.00  0.00    +0.000 NA
ATOM      3  C   UNL     1       4.530   5.859  16.759  0.00  0.00    +0.000 A 
ATOM      4  C   UNL     1       5.199   6.213  15.583  0.00  0.00    +0.000 A 
ATOM      5  C   UNL     1       5.998   5.282  14.911  0.00  0.00    +0.000 A 
ATOM      6  C   UNL     1       6.132   3.986  15.411  0.00  0.00    +0.000 A 
ATOM      7  C   UNL     1       5.477   3.628  16.587  0.00  0.00    +0.000 A 
ATOM      8  C   UNL     1       4.685   4.572  17.251  0.00  0.00    +0.000 A 
ATOM      9  C   UNL     1       4.003   4.241  18.510  0.00  0.00    +0.000 A 
ATOM     10  O   UNL     1       4.153   3.118  18.986  0.00  0.00    +0.000 OA
ATOM     11  N   UNL     1       3.226   5.242  19.103  0.00  0.00    +0.000 N 
ENDROOT
BRANCH   1  12
ATOM     12  S   UNL     1       2.168   7.737  19.278  0.00  0.00    +0.000 S 
BRANCH  12  13
ATOM     13  C   UNL     1       2.272   9.066  18.036  0.00  0.00    +0.000 C 
BRANCH  13  15
ATOM     14  N   UNL     1      -0.109   9.479  17.715  0.00  0.00    +0.000 N 
ATOM     15  C   UNL     1       1.087  10.012  18.177  0.00  0.00    +0.000 C 
ATOM     16  O   UNL     1       1.222  11.111  18.709  0.00  0.00    +0.000 OA
ATOM     17  H   UNL     1      -0.091   8.511  17.413  0.00  0.00    +0.000 HD
BRANCH  14  21
ATOM     18  C   UNL     1      -3.769  11.473  17.767  0.00  0.00    +0.000 A 
ATOM     19  C   UNL     1      -3.500  10.667  16.674  0.00  0.00    +0.000 A 
ATOM     20  C   UNL     1      -2.277   9.992  16.622  0.00  0.00    +0.000 A 
ATOM     21  C   UNL     1      -1.360  10.135  17.661  0.00  0.00    +0.000 A 
ATOM     22  C   UNL     1      -1.742  10.960  18.720  0.00  0.00    +0.000 A 
ATOM     23  N   UNL     1      -2.916  11.636  18.800  0.00  0.00    +0.000 NA
BRANCH  18  25
ATOM     24  C   UNL     1      -5.805  11.779  18.879  0.00  0.00    +0.000 C 
ATOM     25  O   UNL     1      -4.989  12.120  17.764  0.00  0.00    +0.000 OA
ENDBRANCH  18  25
ENDBRANCH  14  21
ENDBRANCH  13  15
ENDBRANCH  12  13
ENDBRANCH   1  12
BRANCH  11  26
ATOM     26  C   UNL     1       2.624   4.886  20.395  0.00  0.00    +0.000 C 
BRANCH  26  27
ATOM     27  C   UNL     1       1.251   4.209  20.311  0.00  0.00    +0.000 C 
BRANCH  27  28
ATOM     28  C   UNL     1       1.202   2.773  20.819  0.00  0.00    +0.000 C 
BRANCH  28  29
ATOM     29  O   UNL     1       1.616   2.741  22.184  0.00  0.00    +0.000 OA
ATOM     30  H   UNL     1       0.824   2.611  22.732  0.00  0.00    +0.000 HD
ENDBRANCH  28  29
ENDBRANCH  27  28
ENDBRANCH  26  27
ENDBRANCH  11  26
TORSDOF 9
ENDMDL
MODEL 2
REMARK VINA RESULT:      -7.5      1.564      3.976
REMARK  Name = 
REMARK  10 active torsions:
REMARK  status: ('A' for Active; 'I' for Inactive)
REMARK    1  A    between atoms: C_1  and  O_2
REMARK    2  A    between atoms: O_2  and  C_3
REMARK    3  A    between atoms: C_6  and  N_7
REMARK    4  A    between atoms: C_8  and  C_10
REMARK    5  A    between atoms: C_10  and  S_11
REMARK    6  A    between atoms: S_11  and  C_12
REMARK    7  A    between atoms: N_22  and  C_23
REMARK    8  A    between atoms: C_23  and  C_24
REMARK    9  A    between atoms: C_24  and  C_25
REMARK   10  A    between atoms: C_25  and  O_26
REMARK                            x       y       z     vdW  Elec       q    Type
REMARK                         _______ _______ _______ _____ _____    ______ ____
ROOT
ATOM      1  C   UNL     1       2.958   6.441  18.382  0.00  0.00    +0.000 A 
ATOM      2  N   UNL     1       1.972   5.939  19.052  0.00  0.00    +0.000 NA
ATOM      3  C   UNL     1       2.182   4.770  19.789  0.00  0.00    +0.000 A 
ATOM      4  C   UNL     1       1.115   4.212  20.498  0.00  0.00    +0.000 A 
ATOM      5  C   UNL     1       1.292   3.047  21.252  0.00  0.00    +0.000 A 
ATOM      6  C   UNL     1       2.542   2.431  21.303  0.00  0.00    +0.000 A 
ATOM      7  C   UNL     1       3.610   2.975  20.592  0.00  0.00    +0.000 A 
ATOM      8  C   UNL     1       3.417   4.138  19.838  0.00  0.00    +0.000 A 
ATOM      9  C   UNL     1       4.510   4.724  19.050  0.00  0.00    +0.000 A 
ATOM     10  O   UNL     1       5.603   4.163  19.048  0.00  0.00    +0.000 OA
ATOM     11  N   UNL     1       4.230   5.892  18.332  0.00  0.00    +0.000 N 
ENDROOT
BRANCH   1  12
ATOM     12  S   UNL     1       2.626   7.897  17.449  0.00  0.00    +0.000 S 
BRANCH  12  13
ATOM     13  C   UNL     1       2.445   9.120  18.786  0.00  0.00    +0.000 C 
BRANCH  13  15
ATOM     14  N   UNL     1       0.325   9.966  17.930  0.00  0.00    +0.000 N 
ATOM     15  C   UNL     1       0.971   9.419  19.030  0.00  0.00    +0.000 C 
ATOM     16  O   UNL     1       0.442   9.133  20.100  0.00  0.00    +0.000 OA
ATOM     17  H   UNL     1       0.862  10.034  17.073  0.00  0.00    +0.000 HD
BRANCH  14  21
ATOM     18  C   UNL     1      -3.598  11.374  17.928  0.00  0.00    +0.000 A 
ATOM     19  C   UNL     1      -3.310  10.294  17.112  0.00  0.00    +0.000 A 
ATOM     20  C   UNL     1      -2.002   9.803  17.083  0.00  0.00    +0.000 A 
ATOM     21  C   UNL     1      -1.019  10.399  17.870  0.00  0.00    +0.000 A 
ATOM     22  C   UNL     1      -1.424  11.473  18.665  0.00  0.00    +0.000 A 
ATOM     23  N   UNL     1      -2.682  11.980  18.713  0.00  0.00    +0.000 NA
BRANCH  18  25
ATOM     24  C   UNL     1      -5.828  10.862  18.420  0.00  0.00    +0.000 C 
ATOM     25  O   UNL     1      -4.905  11.820  17.914  0.00  0.00    +0.000 OA
ENDBRANCH  18  25
ENDBRANCH  14  21
ENDBRANCH  13  15
ENDBRANCH  12  13
ENDBRANCH   1  12
BRANCH  11  26
ATOM     26  C   UNL     1       5.334   6.397  17.503  0.00  0.00    +0.000 C 
BRANCH  26  27
ATOM     27  C   UNL     1       5.400   5.823  16.084  0.00  0.00    +0.000 C 
BRANCH  27  28
ATOM     28  C   UNL     1       6.572   4.887  15.815  0.00  0.00    +0.000 C 
BRANCH  28  29
ATOM     29  O   UNL     1       7.523   5.549  14.984  0.00  0.00    +0.000 OA
ATOM     30  H   UNL     1       7.114   6.368  14.657  0.00  0.00    +0.000 HD
ENDBRANCH  28  29
ENDBRANCH  27  28
ENDBRANCH  26  27
ENDBRANCH  11  26
TORSDOF 9
ENDMDL
MODEL 3
REMARK VINA RESULT:      -7.5      1.427      1.855
REMARK  Name = 
REMARK  10 active torsions:
REMARK  status: ('A' for Active; 'I' for Inactive)
REMARK    1  A    between atoms: C_1  and  O_2
REMARK    2  A    between atoms: O_2  and  C_3
REMARK    3  A    between atoms: C_6  and  N_7
REMARK    4  A    between atoms: C_8  and  C_10
REMARK    5  A    between atoms: C_10  and  S_11
REMARK    6  A    between atoms: S_11  and  C_12
REMARK    7  A    between atoms: N_22  and  C_23
REMARK    8  A    between atoms: C_23  and  C_24
REMARK    9  A    between atoms: C_24  and  C_25
REMARK   10  A    between atoms: C_25  and  O_26
REMARK                            x       y       z     vdW  Elec       q    Type
REMARK                         _______ _______ _______ _____ _____    ______ ____
ROOT
ATOM      1  C   UNL     1       3.101   6.479  18.690  0.00  0.00    +0.000 A 
ATOM      2  N   UNL     1       3.679   6.786  17.575  0.00  0.00    +0.000 NA
ATOM      3  C   UNL     1       4.475   5.827  16.940  0.00  0.00    +0.000 A 
ATOM      4  C   UNL     1       5.119   6.160  15.745  0.00  0.00    +0.000 A 
ATOM      5  C   UNL     1       5.916   5.223  15.079  0.00  0.00    +0.000 A 
ATOM      6  C   UNL     1       6.073   3.941  15.606  0.00  0.00    +0.000 A 
ATOM      7  C   UNL     1       5.443   3.602  16.802  0.00  0.00    +0.000 A 
ATOM      8  C   UNL     1       4.652   4.552  17.459  0.00  0.00    +0.000 A 
ATOM      9  C   UNL     1       3.997   4.243  18.737  0.00  0.00    +0.000 A 
ATOM     10  O   UNL     1       4.168   3.133  19.235  0.00  0.00    +0.000 OA
ATOM     11  N   UNL     1       3.219   5.249  19.321  0.00  0.00    +0.000 N 
ENDROOT
BRANCH   1  12
ATOM     12  S   UNL     1       2.137   7.736  19.458  0.00  0.00    +0.000 S 
BRANCH  12  13
ATOM     13  C   UNL     1       2.043   8.959  18.111  0.00  0.00    +0.000 C 
BRANCH  13  15
ATOM     14  N   UNL     1       0.044   9.887  19.152  0.00  0.00    +0.000 N 
ATOM     15  C   UNL     1       1.267  10.187  18.568  0.00  0.00    +0.000 C 
ATOM     16  O   UNL     1       1.750  11.310  18.457  0.00  0.00    +0.000 OA
ATOM     17  H   UNL     1      -0.170   8.905  19.285  0.00  0.00    +0.000 HD
BRANCH  14  21
ATOM     18  C   UNL     1      -2.870  12.630  20.316  0.00  0.00    +0.000 A 
ATOM     19  C   UNL     1      -1.896  12.306  21.244  0.00  0.00    +0.000 A 
ATOM     20  C   UNL     1      -0.910  11.381  20.888  0.00  0.00    +0.000 A 
ATOM     21  C   UNL     1      -0.919  10.811  19.617  0.00  0.00    +0.000 A 
ATOM     22  C   UNL     1      -1.939  11.222  18.757  0.00  0.00    +0.000 A 
ATOM     23  N   UNL     1      -2.916  12.110  19.072  0.00  0.00    +0.000 NA
BRANCH  18  25
ATOM     24  C   UNL     1      -3.928  13.649  22.139  0.00  0.00    +0.000 C 
ATOM     25  O   UNL     1      -3.822  13.545  20.723  0.00  0.00    +0.000 OA
ENDBRANCH  18  25
ENDBRANCH  14  21
ENDBRANCH  13  15
ENDBRANCH  12  13
ENDBRANCH   1  12
BRANCH  11  26
ATOM     26  C   UNL     1       2.645   4.916  20.631  0.00  0.00    +0.000 C 
BRANCH  26  27
ATOM     27  C   UNL     1       1.338   4.116  20.587  0.00  0.00    +0.000 C 
BRANCH  27  28
ATOM     28  C   UNL     1       1.377   2.768  21.297  0.00  0.00    +0.000 C 
BRANCH  28  29
ATOM     29  O   UNL     1       2.625   2.626  21.972  0.00  0.00    +0.000 OA
ATOM     30  H   UNL     1       3.076   3.487  21.948  0.00  0.00    +0.000 HD
ENDBRANCH  28  29
ENDBRANCH  27  28
ENDBRANCH  26  27
ENDBRANCH  11  26
TORSDOF 9
ENDMDL
MODEL 4
REMARK VINA RESULT:      -7.4      2.326      2.661
REMARK  Name = 
REMARK  10 active torsions:
REMARK  status: ('A' for Active; 'I' for Inactive)
REMARK    1  A    between atoms: C_1  and  O_2
REMARK    2  A    between atoms: O_2  and  C_3
REMARK    3  A    between atoms: C_6  and  N_7
REMARK    4  A    between atoms: C_8  and  C_10
REMARK    5  A    between atoms: C_10  and  S_11
REMARK    6  A    between atoms: S_11  and  C_12
REMARK    7  A    between atoms: N_22  and  C_23
REMARK    8  A    between atoms: C_23  and  C_24
REMARK    9  A    between atoms: C_24  and  C_25
REMARK   10  A    between atoms: C_25  and  O_26
REMARK                            x       y       z     vdW  Elec       q    Type
REMARK                         _______ _______ _______ _____ _____    ______ ____
ROOT
ATOM      1  C   UNL     1       2.931   6.570  18.964  0.00  0.00    +0.000 A 
ATOM      2  N   UNL     1       3.495   6.964  17.870  0.00  0.00    +0.000 NA
ATOM      3  C   UNL     1       4.295   6.063  17.160  0.00  0.00    +0.000 A 
ATOM      4  C   UNL     1       4.924   6.490  15.987  0.00  0.00    +0.000 A 
ATOM      5  C   UNL     1       5.725   5.613  15.248  0.00  0.00    +0.000 A 
ATOM      6  C   UNL     1       5.902   4.298  15.678  0.00  0.00    +0.000 A 
ATOM      7  C   UNL     1       5.286   3.866  16.852  0.00  0.00    +0.000 A 
ATOM      8  C   UNL     1       4.492   4.756  17.583  0.00  0.00    +0.000 A 
ATOM      9  C   UNL     1       3.852   4.347  18.841  0.00  0.00    +0.000 A 
ATOM     10  O   UNL     1       4.040   3.206  19.255  0.00  0.00    +0.000 OA
ATOM     11  N   UNL     1       3.068   5.299  19.503  0.00  0.00    +0.000 N 
ENDROOT
BRANCH   1  12
ATOM     12  S   UNL     1       1.960   7.756  19.831  0.00  0.00    +0.000 S 
BRANCH  12  13
ATOM     13  C   UNL     1       1.719   9.008  18.530  0.00  0.00    +0.000 C 
BRANCH  13  15
ATOM     14  N   UNL     1       0.216   9.998  20.174  0.00  0.00    +0.000 N 
ATOM     15  C   UNL     1       1.076  10.258  19.115  0.00  0.00    +0.000 C 
ATOM     16  O   UNL     1       1.369  11.372  18.690  0.00  0.00    +0.000 OA
ATOM     17  H   UNL     1       0.165   9.038  20.495  0.00  0.00    +0.000 HD
BRANCH  14  21
ATOM     18  C   UNL     1      -2.017  12.692  22.439  0.00  0.00    +0.000 A 
ATOM     19  C   UNL     1      -2.267  12.646  21.078  0.00  0.00    +0.000 A 
ATOM     20  C   UNL     1      -1.528  11.759  20.289  0.00  0.00    +0.000 A 
ATOM     21  C   UNL     1      -0.566  10.942  20.878  0.00  0.00    +0.000 A 
ATOM     22  C   UNL     1      -0.408  11.061  22.260  0.00  0.00    +0.000 A 
ATOM     23  N   UNL     1      -1.101  11.915  23.055  0.00  0.00    +0.000 NA
BRANCH  18  25
ATOM     24  C   UNL     1      -2.718  14.915  22.654  0.00  0.00    +0.000 C 
ATOM     25  O   UNL     1      -2.772  13.589  23.169  0.00  0.00    +0.000 OA
ENDBRANCH  18  25
ENDBRANCH  14  21
ENDBRANCH  13  15
ENDBRANCH  12  13
ENDBRANCH   1  12
BRANCH  11  26
ATOM     26  C   UNL     1       2.510   4.864  20.791  0.00  0.00    +0.000 C 
BRANCH  26  27
ATOM     27  C   UNL     1       1.255   3.989  20.696  0.00  0.00    +0.000 C 
BRANCH  27  28
ATOM     28  C   UNL     1       1.363   2.623  21.361  0.00  0.00    +0.000 C 
BRANCH  28  29
ATOM     29  O   UNL     1       2.641   2.501  21.984  0.00  0.00    +0.000 OA
ATOM     30  H   UNL     1       3.277   2.222  21.305  0.00  0.00    +0.000 HD
ENDBRANCH  28  29
ENDBRANCH  27  28
ENDBRANCH  26  27
ENDBRANCH  11  26
TORSDOF 9
ENDMDL
MODEL 5
REMARK VINA RESULT:      -7.4      3.022      5.184
REMARK  Name = 
REMARK  10 active torsions:
REMARK  status: ('A' for Active; 'I' for Inactive)
REMARK    1  A    between atoms: C_1  and  O_2
REMARK    2  A    between atoms: O_2  and  C_3
REMARK    3  A    between atoms: C_6  and  N_7
REMARK    4  A    between atoms: C_8  and  C_10
REMARK    5  A    between atoms: C_10  and  S_11
REMARK    6  A    between atoms: S_11  and  C_12
REMARK    7  A    between atoms: N_22  and  C_23
REMARK    8  A    between atoms: C_23  and  C_24
REMARK    9  A    between atoms: C_24  and  C_25
REMARK   10  A    between atoms: C_25  and  O_26
REMARK                            x       y       z     vdW  Elec       q    Type
REMARK                         _______ _______ _______ _____ _____    ______ ____
ROOT
ATOM      1  C   UNL     1       3.350   6.564  18.451  0.00  0.00    +0.000 A 
ATOM      2  N   UNL     1       2.319   6.164  19.120  0.00  0.00    +0.000 NA
ATOM      3  C   UNL     1       2.379   4.935  19.784  0.00  0.00    +0.000 A 
ATOM      4  C   UNL     1       1.259   4.488  20.491  0.00  0.00    +0.000 A 
ATOM      5  C   UNL     1       1.287   3.267  21.173  0.00  0.00    +0.000 A 
ATOM      6  C   UNL     1       2.439   2.482  21.152  0.00  0.00    +0.000 A 
ATOM      7  C   UNL     1       3.557   2.914  20.441  0.00  0.00    +0.000 A 
ATOM      8  C   UNL     1       3.513   4.136  19.760  0.00  0.00    +0.000 A 
ATOM      9  C   UNL     1       4.660   4.611  18.975  0.00  0.00    +0.000 A 
ATOM     10  O   UNL     1       5.664   3.905  18.909  0.00  0.00    +0.000 OA
ATOM     11  N   UNL     1       4.532   5.847  18.332  0.00  0.00    +0.000 N 
ENDROOT
BRANCH   1  12
ATOM     12  S   UNL     1       3.206   8.105  17.612  0.00  0.00    +0.000 S 
BRANCH  12  13
ATOM     13  C   UNL     1       1.461   8.506  17.943  0.00  0.00    +0.000 C 
BRANCH  13  15
ATOM     14  N   UNL     1       1.612  10.938  17.885  0.00  0.00    +0.000 N 
ATOM     15  C   UNL     1       1.357   9.832  18.685  0.00  0.00    +0.000 C 
ATOM     16  O   UNL     1       1.021   9.866  19.865  0.00  0.00    +0.000 OA
ATOM     17  H   UNL     1       1.758  10.764  16.897  0.00  0.00    +0.000 HD
BRANCH  14  21
ATOM     18  C   UNL     1       1.941  14.908  19.113  0.00  0.00    +0.000 A 
ATOM     19  C   UNL     1       0.677  14.342  19.123  0.00  0.00    +0.000 A 
ATOM     20  C   UNL     1       0.532  13.015  18.708  0.00  0.00    +0.000 A 
ATOM     21  C   UNL     1       1.648  12.290  18.300  0.00  0.00    +0.000 A 
ATOM     22  C   UNL     1       2.875  12.955  18.344  0.00  0.00    +0.000 A 
ATOM     23  N   UNL     1       3.051  14.243  18.733  0.00  0.00    +0.000 NA
BRANCH  18  25
ATOM     24  C   UNL     1       1.505  17.144  18.576  0.00  0.00    +0.000 C 
ATOM     25  O   UNL     1       2.025  16.223  19.528  0.00  0.00    +0.000 OA
ENDBRANCH  18  25
ENDBRANCH  14  21
ENDBRANCH  13  15
ENDBRANCH  12  13
ENDBRANCH   1  12
BRANCH  11  26
ATOM     26  C   UNL     1       5.678   6.244  17.502  0.00  0.00    +0.000 C 
BRANCH  26  27
ATOM     27  C   UNL     1       5.661   5.705  16.067  0.00  0.00    +0.000 C 
BRANCH  27  28
ATOM     28  C   UNL     1       6.881   4.886  15.666  0.00  0.00    +0.000 C 
BRANCH  28  29
ATOM     29  O   UNL     1       7.652   4.587  16.828  0.00  0.00    +0.000 OA
ATOM     30  H   UNL     1       8.502   5.053  16.750  0.00  0.00    +0.000 HD
ENDBRANCH  28  29
ENDBRANCH  27  28
ENDBRANCH  26  27
ENDBRANCH  11  26
TORSDOF 9
ENDMDL
MODEL 6
REMARK VINA RESULT:      -7.4      2.718      3.371
REMARK  Name = 
REMARK  10 active torsions:
REMARK  status: ('A' for Active; 'I' for Inactive)
REMARK    1  A    between atoms: C_1  and  O_2
REMARK    2  A    between atoms: O_2  and  C_3
REMARK    3  A    between atoms: C_6  and  N_7
REMARK    4  A    between atoms: C_8  and  C_10
REMARK    5  A    between atoms: C_10  and  S_11
REMARK    6  A    between atoms: S_11  and  C_12
REMARK    7  A    between atoms: N_22  and  C_23
REMARK    8  A    between atoms: C_23  and  C_24
REMARK    9  A    between atoms: C_24  and  C_25
REMARK   10  A    between atoms: C_25  and  O_26
REMARK                            x       y       z     vdW  Elec       q    Type
REMARK                         _______ _______ _______ _____ _____    ______ ____
ROOT
ATOM      1  C   UNL     1       2.942   6.563  18.828  0.00  0.00    +0.000 A 
ATOM      2  N   UNL     1       3.533   6.919  17.735  0.00  0.00    +0.000 NA
ATOM      3  C   UNL     1       4.356   5.997  17.080  0.00  0.00    +0.000 A 
ATOM      4  C   UNL     1       5.014   6.384  15.909  0.00  0.00    +0.000 A 
ATOM      5  C   UNL     1       5.838   5.485  15.224  0.00  0.00    +0.000 A 
ATOM      6  C   UNL     1       6.010   4.188  15.708  0.00  0.00    +0.000 A 
ATOM      7  C   UNL     1       5.367   3.796  16.880  0.00  0.00    +0.000 A 
ATOM      8  C   UNL     1       4.548   4.709  17.557  0.00  0.00    +0.000 A 
ATOM      9  C   UNL     1       3.878   4.343  18.812  0.00  0.00    +0.000 A 
ATOM     10  O   UNL     1       4.061   3.219  19.274  0.00  0.00    +0.000 OA
ATOM     11  N   UNL     1       3.072   5.314  19.417  0.00  0.00    +0.000 N 
ENDROOT
BRANCH   1  12
ATOM     12  S   UNL     1       1.943   7.775  19.623  0.00  0.00    +0.000 S 
BRANCH  12  13
ATOM     13  C   UNL     1       1.735   8.978  18.273  0.00  0.00    +0.000 C 
BRANCH  13  15
ATOM     14  N   UNL     1       1.731  11.412  18.129  0.00  0.00    +0.000 N 
ATOM     15  C   UNL     1       1.248  10.312  18.826  0.00  0.00    +0.000 C 
ATOM     16  O   UNL     1       0.460  10.350  19.766  0.00  0.00    +0.000 OA
ATOM     17  H   UNL     1       2.278  11.221  17.297  0.00  0.00    +0.000 HD
BRANCH  14  21
ATOM     18  C   UNL     1       1.272  15.438  19.106  0.00  0.00    +0.000 A 
ATOM     19  C   UNL     1       0.124  14.719  18.817  0.00  0.00    +0.000 A 
ATOM     20  C   UNL     1       0.246  13.369  18.477  0.00  0.00    +0.000 A 
ATOM     21  C   UNL     1       1.503  12.772  18.439  0.00  0.00    +0.000 A 
ATOM     22  C   UNL     1       2.590  13.587  18.762  0.00  0.00    +0.000 A 
ATOM     23  N   UNL     1       2.510  14.902  19.089  0.00  0.00    +0.000 NA
BRANCH  18  25
ATOM     24  C   UNL     1      -0.035  16.993  20.268  0.00  0.00    +0.000 C 
ATOM     25  O   UNL     1       1.094  16.768  19.431  0.00  0.00    +0.000 OA
ENDBRANCH  18  25
ENDBRANCH  14  21
ENDBRANCH  13  15
ENDBRANCH  12  13
ENDBRANCH   1  12
BRANCH  11  26
ATOM     26  C   UNL     1       2.483   4.924  20.705  0.00  0.00    +0.000 C 
BRANCH  26  27
ATOM     27  C   UNL     1       1.309   3.942  20.615  0.00  0.00    +0.000 C 
BRANCH  27  28
ATOM     28  C   UNL     1       1.371   2.765  21.581  0.00  0.00    +0.000 C 
BRANCH  28  29
ATOM     29  O   UNL     1       2.731   2.514  21.932  0.00  0.00    +0.000 OA
ATOM     30  H   UNL     1       3.293   3.055  21.352  0.00  0.00    +0.000 HD
ENDBRANCH  28  29
ENDBRANCH  27  28
ENDBRANCH  26  27
ENDBRANCH  11  26
TORSDOF 9
ENDMDL
MODEL 7
REMARK VINA RESULT:      -7.3      2.594      3.144
REMARK  Name = 
REMARK  10 active torsions:
REMARK  status: ('A' for Active; 'I' for Inactive)
REMARK    1  A    between atoms: C_1  and  O_2
REMARK    2  A    between atoms: O_2  and  C_3
REMARK    3  A    between atoms: C_6  and  N_7
REMARK    4  A    between atoms: C_8  and  C_10
REMARK    5  A    between atoms: C_10  and  S_11
REMARK    6  A    between atoms: S_11  and  C_12
REMARK    7  A    between atoms: N_22  and  C_23
REMARK    8  A    between atoms: C_23  and  C_24
REMARK    9  A    between atoms: C_24  and  C_25
REMARK   10  A    between atoms: C_25  and  O_26
REMARK                            x       y       z     vdW  Elec       q    Type
REMARK                         _______ _______ _______ _____ _____    ______ ____
ROOT
ATOM      1  C   UNL     1       3.129   6.328  18.815  0.00  0.00    +0.000 A 
ATOM      2  N   UNL     1       3.684   6.783  17.739  0.00  0.00    +0.000 NA
ATOM      3  C   UNL     1       4.443   5.913  16.951  0.00  0.00    +0.000 A 
ATOM      4  C   UNL     1       5.061   6.405  15.797  0.00  0.00    +0.000 A 
ATOM      5  C   UNL     1       5.822   5.560  14.982  0.00  0.00    +0.000 A 
ATOM      6  C   UNL     1       5.968   4.214  15.315  0.00  0.00    +0.000 A 
ATOM      7  C   UNL     1       5.364   3.717  16.468  0.00  0.00    +0.000 A 
ATOM      8  C   UNL     1       4.610   4.575  17.277  0.00  0.00    +0.000 A 
ATOM      9  C   UNL     1       3.983   4.096  18.516  0.00  0.00    +0.000 A 
ATOM     10  O   UNL     1       4.146   2.923  18.846  0.00  0.00    +0.000 OA
ATOM     11  N   UNL     1       3.241   5.019  19.260  0.00  0.00    +0.000 N 
ENDROOT
BRANCH   1  12
ATOM     12  S   UNL     1       2.211   7.477  19.783  0.00  0.00    +0.000 S 
BRANCH  12  13
ATOM     13  C   UNL     1       1.780   8.715  18.518  0.00  0.00    +0.000 C 
BRANCH  13  15
ATOM     14  N   UNL     1       1.139  10.121  20.403  0.00  0.00    +0.000 N 
ATOM     15  C   UNL     1       0.831   9.754  19.100  0.00  0.00    +0.000 C 
ATOM     16  O   UNL     1      -0.072  10.230  18.418  0.00  0.00    +0.000 OA
ATOM     17  H   UNL     1       1.988   9.733  20.798  0.00  0.00    +0.000 HD
BRANCH  14  21
ATOM     18  C   UNL     1      -0.860  12.915  22.764  0.00  0.00    +0.000 A 
ATOM     19  C   UNL     1      -1.232  11.588  22.896  0.00  0.00    +0.000 A 
ATOM     20  C   UNL     1      -0.587  10.628  22.112  0.00  0.00    +0.000 A 
ATOM     21  C   UNL     1       0.412  11.015  21.223  0.00  0.00    +0.000 A 
ATOM     22  C   UNL     1       0.717  12.376  21.182  0.00  0.00    +0.000 A 
ATOM     23  N   UNL     1       0.107  13.336  21.922  0.00  0.00    +0.000 NA
BRANCH  18  25
ATOM     24  C   UNL     1      -1.490  15.150  23.052  0.00  0.00    +0.000 C 
ATOM     25  O   UNL     1      -1.532  13.821  23.560  0.00  0.00    +0.000 OA
ENDBRANCH  18  25
ENDBRANCH  14  21
ENDBRANCH  13  15
ENDBRANCH  12  13
ENDBRANCH   1  12
BRANCH  11  26
ATOM     26  C   UNL     1       2.695   4.510  20.526  0.00  0.00    +0.000 C 
BRANCH  26  27
ATOM     27  C   UNL     1       1.286   3.914  20.437  0.00  0.00    +0.000 C 
BRANCH  27  28
ATOM     28  C   UNL     1       1.138   2.508  21.003  0.00  0.00    +0.000 C 
BRANCH  28  29
ATOM     29  O   UNL     1       1.712   2.462  22.308  0.00  0.00    +0.000 OA
ATOM     30  H   UNL     1       1.799   3.376  22.627  0.00  0.00    +0.000 HD
ENDBRANCH  28  29
ENDBRANCH  27  28
ENDBRANCH  26  27
ENDBRANCH  11  26
TORSDOF 9
ENDMDL
MODEL 8
REMARK VINA RESULT:      -7.3      2.663      3.420
REMARK  Name = 
REMARK  10 active torsions:
REMARK  status: ('A' for Active; 'I' for Inactive)
REMARK    1  A    between atoms: C_1  and  O_2
REMARK    2  A    between atoms: O_2  and  C_3
REMARK    3  A    between atoms: C_6  and  N_7
REMARK    4  A    between atoms: C_8  and  C_10
REMARK    5  A    between atoms: C_10  and  S_11
REMARK    6  A    between atoms: S_11  and  C_12
REMARK    7  A    between atoms: N_22  and  C_23
REMARK    8  A    between atoms: C_23  and  C_24
REMARK    9  A    between atoms: C_24  and  C_25
REMARK   10  A    between atoms: C_25  and  O_26
REMARK                            x       y       z     vdW  Elec       q    Type
REMARK                         _______ _______ _______ _____ _____    ______ ____
ROOT
ATOM      1  C   UNL     1       3.014   6.523  18.793  0.00  0.00    +0.000 A 
ATOM      2  N   UNL     1       3.594   6.909  17.704  0.00  0.00    +0.000 NA
ATOM      3  C   UNL     1       4.376   5.993  16.994  0.00  0.00    +0.000 A 
ATOM      4  C   UNL     1       5.022   6.411  15.827  0.00  0.00    +0.000 A 
ATOM      5  C   UNL     1       5.805   5.518  15.087  0.00  0.00    +0.000 A 
ATOM      6  C   UNL     1       5.947   4.197  15.511  0.00  0.00    +0.000 A 
ATOM      7  C   UNL     1       5.315   3.774  16.679  0.00  0.00    +0.000 A 
ATOM      8  C   UNL     1       4.538   4.679  17.410  0.00  0.00    +0.000 A 
ATOM      9  C   UNL     1       3.881   4.279  18.662  0.00  0.00    +0.000 A 
ATOM     10  O   UNL     1       4.039   3.131  19.071  0.00  0.00    +0.000 OA
ATOM     11  N   UNL     1       3.117   5.246  19.325  0.00  0.00    +0.000 N 
ENDROOT
BRANCH   1  12
ATOM     12  S   UNL     1       2.067   7.728  19.660  0.00  0.00    +0.000 S 
BRANCH  12  13
ATOM     13  C   UNL     1       1.780   8.946  18.337  0.00  0.00    +0.000 C 
BRANCH  13  15
ATOM     14  N   UNL     1       1.665  11.368  18.084  0.00  0.00    +0.000 N 
ATOM     15  C   UNL     1       1.420  10.299  18.936  0.00  0.00    +0.000 C 
ATOM     16  O   UNL     1       0.913  10.376  20.051  0.00  0.00    +0.000 OA
ATOM     17  H   UNL     1       1.974  11.141  17.145  0.00  0.00    +0.000 HD
BRANCH  14  21
ATOM     18  C   UNL     1       0.930  15.389  18.898  0.00  0.00    +0.000 A 
ATOM     19  C   UNL     1       2.252  14.982  18.849  0.00  0.00    +0.000 A 
ATOM     20  C   UNL     1       2.532  13.638  18.587  0.00  0.00    +0.000 A 
ATOM     21  C   UNL     1       1.489  12.739  18.378  0.00  0.00    +0.000 A 
ATOM     22  C   UNL     1       0.195  13.261  18.436  0.00  0.00    +0.000 A 
ATOM     23  N   UNL     1      -0.113  14.557  18.695  0.00  0.00    +0.000 NA
BRANCH  18  25
ATOM     24  C   UNL     1       1.224  17.588  18.156  0.00  0.00    +0.000 C 
ATOM     25  O   UNL     1       0.711  16.726  19.165  0.00  0.00    +0.000 OA
ENDBRANCH  18  25
ENDBRANCH  14  21
ENDBRANCH  13  15
ENDBRANCH  12  13
ENDBRANCH   1  12
BRANCH  11  26
ATOM     26  C   UNL     1       2.541   4.818  20.607  0.00  0.00    +0.000 C 
BRANCH  26  27
ATOM     27  C   UNL     1       1.175   4.130  20.511  0.00  0.00    +0.000 C 
BRANCH  27  28
ATOM     28  C   UNL     1       1.137   2.688  21.000  0.00  0.00    +0.000 C 
BRANCH  28  29
ATOM     29  O   UNL     1       1.890   2.579  22.208  0.00  0.00    +0.000 OA
ATOM     30  H   UNL     1       1.652   1.738  22.632  0.00  0.00    +0.000 HD
ENDBRANCH  28  29
ENDBRANCH  27  28
ENDBRANCH  26  27
ENDBRANCH  11  26
TORSDOF 9
ENDMDL
MODEL 9
REMARK VINA RESULT:      -7.3      2.524      4.497
REMARK  Name = 
REMARK  10 active torsions:
REMARK  status: ('A' for Active; 'I' for Inactive)
REMARK    1  A    between atoms: C_1  and  O_2
REMARK    2  A    between atoms: O_2  and  C_3
REMARK    3  A    between atoms: C_6  and  N_7
REMARK    4  A    between atoms: C_8  and  C_10
REMARK    5  A    between atoms: C_10  and  S_11
REMARK    6  A    between atoms: S_11  and  C_12
REMARK    7  A    between atoms: N_22  and  C_23
REMARK    8  A    between atoms: C_23  and  C_24
REMARK    9  A    between atoms: C_24  and  C_25
REMARK   10  A    between atoms: C_25  and  O_26
REMARK                            x       y       z     vdW  Elec       q    Type
REMARK                         _______ _______ _______ _____ _____    ______ ____
ROOT
ATOM      1  C   UNL     1       3.423   6.457  18.481  0.00  0.00    +0.000 A 
ATOM      2  N   UNL     1       2.355   6.074  19.102  0.00  0.00    +0.000 NA
ATOM      3  C   UNL     1       2.368   4.848  19.774  0.00  0.00    +0.000 A 
ATOM      4  C   UNL     1       1.210   4.420  20.430  0.00  0.00    +0.000 A 
ATOM      5  C   UNL     1       1.190   3.203  21.119  0.00  0.00    +0.000 A 
ATOM      6  C   UNL     1       2.332   2.403  21.158  0.00  0.00    +0.000 A 
ATOM      7  C   UNL     1       3.489   2.817  20.499  0.00  0.00    +0.000 A 
ATOM      8  C   UNL     1       3.492   4.035  19.810  0.00  0.00    +0.000 A 
ATOM      9  C   UNL     1       4.682   4.491  19.078  0.00  0.00    +0.000 A 
ATOM     10  O   UNL     1       5.678   3.772  19.064  0.00  0.00    +0.000 OA
ATOM     11  N   UNL     1       4.600   5.725  18.423  0.00  0.00    +0.000 N 
ENDROOT
BRANCH   1  12
ATOM     12  S   UNL     1       3.338   7.994  17.627  0.00  0.00    +0.000 S 
BRANCH  12  13
ATOM     13  C   UNL     1       1.564   8.372  17.789  0.00  0.00    +0.000 C 
BRANCH  13  15
ATOM     14  N   UNL     1       0.377   9.846  19.325  0.00  0.00    +0.000 N 
ATOM     15  C   UNL     1       1.373   9.770  18.360  0.00  0.00    +0.000 C 
ATOM     16  O   UNL     1       2.096  10.697  18.006  0.00  0.00    +0.000 OA
ATOM     17  H   UNL     1      -0.056   8.972  19.604  0.00  0.00    +0.000 HD
BRANCH  14  21
ATOM     18  C   UNL     1      -0.767  13.255  21.432  0.00  0.00    +0.000 A 
ATOM     19  C   UNL     1      -1.635  12.788  20.460  0.00  0.00    +0.000 A 
ATOM     20  C   UNL     1      -1.276  11.651  19.729  0.00  0.00    +0.000 A 
ATOM     21  C   UNL     1      -0.067  11.011  19.990  0.00  0.00    +0.000 A 
ATOM     22  C   UNL     1       0.723  11.560  21.002  0.00  0.00    +0.000 A 
ATOM     23  N   UNL     1       0.410  12.665  21.725  0.00  0.00    +0.000 NA
BRANCH  18  25
ATOM     24  C   UNL     1      -2.565  14.396  22.403  0.00  0.00    +0.000 C 
ATOM     25  O   UNL     1      -1.170  14.383  22.120  0.00  0.00    +0.000 OA
ENDBRANCH  18  25
ENDBRANCH  14  21
ENDBRANCH  13  15
ENDBRANCH  12  13
ENDBRANCH   1  12
BRANCH  11  26
ATOM     26  C   UNL     1       5.789   6.102  17.646  0.00  0.00    +0.000 C 
BRANCH  26  27
ATOM     27  C   UNL     1       5.754   5.704  16.166  0.00  0.00    +0.000 C 
BRANCH  27  28
ATOM     28  C   UNL     1       6.644   4.527  15.788  0.00  0.00    +0.000 C 
BRANCH  28  29
ATOM     29  O   UNL     1       5.957   3.308  16.067  0.00  0.00    +0.000 OA
ATOM     30  H   UNL     1       5.011   3.512  16.151  0.00  0.00    +0.000 HD
ENDBRANCH  28  29
ENDBRANCH  27  28
ENDBRANCH  26  27
ENDBRANCH  11  26
TORSDOF 9
ENDMDL
