MODEL 1
REMARK VINA RESULT:      -7.6      0.000      0.000
REMARK  Name = 
REMARK  6 active torsions:
REMARK  status: ('A' for Active; 'I' for Inactive)
REMARK    1  A    between atoms: C_1  and  C_2
REMARK    2  A    between atoms: N_4  and  C_5
REMARK    3  A    between atoms: C_5  and  C_6
REMARK    4  A    between atoms: C_6  and  C_7
REMARK    5  A    between atoms: N_11  and  C_12
REMARK    6  A    between atoms: C_12  and  C_13
REMARK                            x       y       z     vdW  Elec       q    Type
REMARK                         _______ _______ _______ _____ _____    ______ ____
ROOT
ATOM      1  C   UNL     1       6.577   4.816  15.672  0.00  0.00    +0.000 C 
ATOM      2  C   UNL     1       7.642   4.606  16.468  0.00  0.00    +0.000 C 
ATOM      3  C   UNL     1       7.541   4.693  17.956  0.00  0.00    +0.000 C 
ATOM      4  C   UNL     1       6.296   5.465  18.405  0.00  0.00    +0.000 C 
ATOM      5  N   UNL     1       5.084   4.964  17.737  0.00  0.00    +0.000 NA
ATOM      6  C   UNL     1       5.204   5.101  16.262  0.00  0.00    +0.000 C 
ENDROOT
BRANCH   1   7
ATOM      7  C   UNL     1       6.667   4.843  14.151  0.00  0.00    +0.000 C 
BRANCH   7   8
ATOM      8  C   UNL     1       5.651   3.952  13.413  0.00  0.00    +0.000 C 
BRANCH   8  12
ATOM      9  C   UNL     1       6.513   1.221  10.948  0.00  0.00    +0.000 C 
ATOM     10  C   UNL     1       5.662   2.262  11.621  0.00  0.00    +0.000 C 
ATOM     11  O   UNL     1       4.554   2.577  11.206  0.00  0.00    +0.000 OA
ATOM     12  N   UNL     1       6.257   2.824  12.732  0.00  0.00    +0.000 N 
ATOM     13  H   UNL     1       7.213   2.580  12.955  0.00  0.00    +0.000 HD
ENDBRANCH   8  12
ENDBRANCH   7   8
ENDBRANCH   1   7
BRANCH   5  14
ATOM     14  C   UNL     1       3.882   5.697  18.189  0.00  0.00    +0.000 C 
BRANCH  14  15
ATOM     15  C   UNL     1       2.884   4.876  18.987  0.00  0.00    +0.000 A 
ATOM     16  C   UNL     1       2.813   3.488  18.765  0.00  0.00    +0.000 A 
ATOM     17  C   UNL     1       1.861   2.714  19.422  0.00  0.00    +0.000 A 
ATOM     18  F   UNL     1       1.801   1.397  19.186  0.00  0.00    +0.000 F 
ATOM     19  C   UNL     1       0.964   3.285  20.314  0.00  0.00    +0.000 A 
ATOM     20  C   UNL     1       1.032   4.654  20.566  0.00  0.00    +0.000 A 
ATOM     21  C   UNL     1       1.987   5.444  19.912  0.00  0.00    +0.000 A 
ATOM     22 CL   UNL     1       2.004   7.127  20.305  0.00  0.00    +0.000 Cl
ENDBRANCH  14  15
ENDBRANCH   5  14
TORSDOF 5
ENDMDL
MODEL 2
REMARK VINA RESULT:      -7.5      1.939      2.450
REMARK  Name = 
REMARK  6 active torsions:
REMARK  status: ('A' for Active; 'I' for Inactive)
REMARK    1  A    between atoms: C_1  and  C_2
REMARK    2  A    between atoms: N_4  and  C_5
REMARK    3  A    between atoms: C_5  and  C_6
REMARK    4  A    between atoms: C_6  and  C_7
REMARK    5  A    between atoms: N_11  and  C_12
REMARK    6  A    between atoms: C_12  and  C_13
REMARK                            x       y       z     vdW  Elec       q    Type
REMARK                         _______ _______ _______ _____ _____    ______ ____
ROOT
ATOM      1  C   UNL     1       5.954   5.200  15.740  0.00  0.00    +0.000 C 
ATOM      2  C   UNL     1       5.323   6.388  15.681  0.00  0.00    +0.000 C 
ATOM      3  C   UNL     1       4.559   6.931  16.843  0.00  0.00    +0.000 C 
ATOM      4  C   UNL     1       4.202   5.841  17.859  0.00  0.00    +0.000 C 
ATOM      5  N   UNL     1       5.382   5.040  18.222  0.00  0.00    +0.000 NA
ATOM      6  C   UNL     1       5.957   4.380  17.021  0.00  0.00    +0.000 C 
ENDROOT
BRANCH   1   7
ATOM      7  C   UNL     1       6.649   4.566  14.541  0.00  0.00    +0.000 C 
BRANCH   7   8
ATOM      8  C   UNL     1       5.715   3.976  13.470  0.00  0.00    +0.000 C 
BRANCH   8  12
ATOM      9  C   UNL     1       6.478   1.276  10.939  0.00  0.00    +0.000 C 
ATOM     10  C   UNL     1       5.657   2.314  11.653  0.00  0.00    +0.000 C 
ATOM     11  O   UNL     1       4.541   2.647  11.274  0.00  0.00    +0.000 OA
ATOM     12  N   UNL     1       6.289   2.853  12.754  0.00  0.00    +0.000 N 
ATOM     13  H   UNL     1       7.248   2.595  12.946  0.00  0.00    +0.000 HD
ENDBRANCH   8  12
ENDBRANCH   7   8
ENDBRANCH   1   7
BRANCH   5  14
ATOM     14  C   UNL     1       5.037   4.003  19.218  0.00  0.00    +0.000 C 
BRANCH  14  15
ATOM     15  C   UNL     1       3.551   3.742  19.395  0.00  0.00    +0.000 A 
ATOM     16  C   UNL     1       2.765   4.705  20.055  0.00  0.00    +0.000 A 
ATOM     17  C   UNL     1       1.416   4.468  20.301  0.00  0.00    +0.000 A 
ATOM     18  F   UNL     1       0.688   5.391  20.942  0.00  0.00    +0.000 F 
ATOM     19  C   UNL     1       0.810   3.285  19.899  0.00  0.00    +0.000 A 
ATOM     20  C   UNL     1       1.565   2.328  19.224  0.00  0.00    +0.000 A 
ATOM     21  C   UNL     1       2.923   2.555  18.968  0.00  0.00    +0.000 A 
ATOM     22 CL   UNL     1       3.769   1.318  18.108  0.00  0.00    +0.000 Cl
ENDBRANCH  14  15
ENDBRANCH   5  14
TORSDOF 5
ENDMDL
MODEL 3
REMARK VINA RESULT:      -7.5      1.153      1.253
REMARK  Name = 
REMARK  6 active torsions:
REMARK  status: ('A' for Active; 'I' for Inactive)
REMARK    1  A    between atoms: C_1  and  C_2
REMARK    2  A    between atoms: N_4  and  C_5
REMARK    3  A    between atoms: C_5  and  C_6
REMARK    4  A    between atoms: C_6  and  C_7
REMARK    5  A    between atoms: N_11  and  C_12
REMARK    6  A    between atoms: C_12  and  C_13
REMARK                            x       y       z     vdW  Elec       q    Type
REMARK                         _______ _______ _______ _____ _____    ______ ____
ROOT
ATOM      1  C   UNL     1       6.662   4.470  15.602  0.00  0.00    +0.000 C 
ATOM      2  C   UNL     1       7.487   4.787  16.617  0.00  0.00    +0.000 C 
ATOM      3  C   UNL     1       7.040   4.731  18.041  0.00  0.00    +0.000 C 
ATOM      4  C   UNL     1       5.513   4.740  18.167  0.00  0.00    +0.000 C 
ATOM      5  N   UNL     1       4.897   3.731  17.291  0.00  0.00    +0.000 NA
ATOM      6  C   UNL     1       5.244   3.988  15.869  0.00  0.00    +0.000 C 
ENDROOT
BRANCH   1   7
ATOM      7  C   UNL     1       7.049   4.620  14.136  0.00  0.00    +0.000 C 
BRANCH   7   8
ATOM      8  C   UNL     1       6.027   4.072  13.123  0.00  0.00    +0.000 C 
BRANCH   8  12
ATOM      9  C   UNL     1       6.265   0.967  10.983  0.00  0.00    +0.000 C 
ATOM     10  C   UNL     1       5.634   2.195  11.578  0.00  0.00    +0.000 C 
ATOM     11  O   UNL     1       4.542   2.617  11.214  0.00  0.00    +0.000 OA
ATOM     12  N   UNL     1       6.405   2.794  12.552  0.00  0.00    +0.000 N 
ATOM     13  H   UNL     1       7.336   2.441  12.728  0.00  0.00    +0.000 HD
ENDBRANCH   8  12
ENDBRANCH   7   8
ENDBRANCH   1   7
BRANCH   5  14
ATOM     14  C   UNL     1       3.425   3.729  17.431  0.00  0.00    +0.000 C 
BRANCH  14  15
ATOM     15  C   UNL     1       2.907   3.985  18.836  0.00  0.00    +0.000 A 
ATOM     16  C   UNL     1       2.897   2.923  19.761  0.00  0.00    +0.000 A 
ATOM     17  C   UNL     1       2.361   3.100  21.033  0.00  0.00    +0.000 A 
ATOM     18  F   UNL     1       2.349   2.074  21.894  0.00  0.00    +0.000 F 
ATOM     19  C   UNL     1       1.832   4.322  21.426  0.00  0.00    +0.000 A 
ATOM     20  C   UNL     1       1.853   5.392  20.533  0.00  0.00    +0.000 A 
ATOM     21  C   UNL     1       2.390   5.228  19.250  0.00  0.00    +0.000 A 
ATOM     22 CL   UNL     1       2.389   6.618  18.223  0.00  0.00    +0.000 Cl
ENDBRANCH  14  15
ENDBRANCH   5  14
TORSDOF 5
ENDMDL
MODEL 4
REMARK VINA RESULT:      -7.4      2.197      2.726
REMARK  Name = 
REMARK  6 active torsions:
REMARK  status: ('A' for Active; 'I' for Inactive)
REMARK    1  A    between atoms: C_1  and  C_2
REMARK    2  A    between atoms: N_4  and  C_5
REMARK    3  A    between atoms: C_5  and  C_6
REMARK    4  A    between atoms: C_6  and  C_7
REMARK    5  A    between atoms: N_11  and  C_12
REMARK    6  A    between atoms: C_12  and  C_13
REMARK                            x       y       z     vdW  Elec       q    Type
REMARK                         _______ _______ _______ _____ _____    ______ ____
ROOT
ATOM      1  C   UNL     1       6.562   4.669  16.485  0.00  0.00    +0.000 C 
ATOM      2  C   UNL     1       7.354   5.063  17.500  0.00  0.00    +0.000 C 
ATOM      3  C   UNL     1       6.832   5.215  18.891  0.00  0.00    +0.000 C 
ATOM      4  C   UNL     1       5.305   5.330  18.925  0.00  0.00    +0.000 C 
ATOM      5  N   UNL     1       4.669   4.255  18.146  0.00  0.00    +0.000 NA
ATOM      6  C   UNL     1       5.104   4.309  16.726  0.00  0.00    +0.000 C 
ENDROOT
BRANCH   1   7
ATOM      7  C   UNL     1       7.032   4.609  15.037  0.00  0.00    +0.000 C 
BRANCH   7   8
ATOM      8  C   UNL     1       5.949   4.242  14.005  0.00  0.00    +0.000 C 
BRANCH   8  12
ATOM      9  C   UNL     1       6.183   1.713  11.208  0.00  0.00    +0.000 C 
ATOM     10  C   UNL     1       5.571   2.805  12.041  0.00  0.00    +0.000 C 
ATOM     11  O   UNL     1       4.528   3.366  11.730  0.00  0.00    +0.000 OA
ATOM     12  N   UNL     1       6.304   3.112  13.169  0.00  0.00    +0.000 N 
ATOM     13  H   UNL     1       7.204   2.671  13.307  0.00  0.00    +0.000 HD
ENDBRANCH   8  12
ENDBRANCH   7   8
ENDBRANCH   1   7
BRANCH   5  14
ATOM     14  C   UNL     1       3.195   4.357  18.199  0.00  0.00    +0.000 C 
BRANCH  14  15
ATOM     15  C   UNL     1       2.655   5.670  18.740  0.00  0.00    +0.000 A 
ATOM     16  C   UNL     1       2.647   6.799  17.900  0.00  0.00    +0.000 A 
ATOM     17  C   UNL     1       2.230   8.036  18.383  0.00  0.00    +0.000 A 
ATOM     18  F   UNL     1       2.243   9.102  17.572  0.00  0.00    +0.000 F 
ATOM     19  C   UNL     1       1.806   8.188  19.696  0.00  0.00    +0.000 A 
ATOM     20  C   UNL     1       1.784   7.078  20.538  0.00  0.00    +0.000 A 
ATOM     21  C   UNL     1       2.200   5.827  20.063  0.00  0.00    +0.000 A 
ATOM     22 CL   UNL     1       2.118   4.507  21.177  0.00  0.00    +0.000 Cl
ENDBRANCH  14  15
ENDBRANCH   5  14
TORSDOF 5
ENDMDL
MODEL 5
REMARK VINA RESULT:      -7.4      4.276      7.650
REMARK  Name = 
REMARK  6 active torsions:
REMARK  status: ('A' for Active; 'I' for Inactive)
REMARK    1  A    between atoms: C_1  and  C_2
REMARK    2  A    between atoms: N_4  and  C_5
REMARK    3  A    between atoms: C_5  and  C_6
REMARK    4  A    between atoms: C_6  and  C_7
REMARK    5  A    between atoms: N_11  and  C_12
REMARK    6  A    between atoms: C_12  and  C_13
REMARK                            x       y       z     vdW  Elec       q    Type
REMARK                         _______ _______ _______ _____ _____    ______ ____
ROOT
ATOM      1  C   UNL     1       2.210   4.349  19.828  0.00  0.00    +0.000 C 
ATOM      2  C   UNL     1       1.676   3.113  19.839  0.00  0.00    +0.000 C 
ATOM      3  C   UNL     1       2.176   2.032  18.938  0.00  0.00    +0.000 C 
ATOM      4  C   UNL     1       2.975   2.589  17.756  0.00  0.00    +0.000 C 
ATOM      5  N   UNL     1       4.007   3.537  18.206  0.00  0.00    +0.000 NA
ATOM      6  C   UNL     1       3.389   4.682  18.925  0.00  0.00    +0.000 C 
ENDROOT
BRANCH   1   7
ATOM      7  C   UNL     1       1.655   5.504  20.652  0.00  0.00    +0.000 C 
BRANCH   7   8
ATOM      8  C   UNL     1       2.078   6.910  20.188  0.00  0.00    +0.000 C 
BRANCH   8  12
ATOM      9  C   UNL     1       0.548  10.002  21.730  0.00  0.00    +0.000 C 
ATOM     10  C   UNL     1       1.043   9.100  20.634  0.00  0.00    +0.000 C 
ATOM     11  O   UNL     1       0.883   9.357  19.446  0.00  0.00    +0.000 OA
ATOM     12  N   UNL     1       1.676   7.965  21.097  0.00  0.00    +0.000 N 
ATOM     13  H   UNL     1       1.684   7.778  22.091  0.00  0.00    +0.000 HD
ENDBRANCH   8  12
ENDBRANCH   7   8
ENDBRANCH   1   7
BRANCH   5  14
ATOM     14  C   UNL     1       4.789   4.057  17.064  0.00  0.00    +0.000 C 
BRANCH  14  15
ATOM     15  C   UNL     1       5.871   5.061  17.423  0.00  0.00    +0.000 A 
ATOM     16  C   UNL     1       6.792   4.735  18.436  0.00  0.00    +0.000 A 
ATOM     17  C   UNL     1       7.751   5.659  18.843  0.00  0.00    +0.000 A 
ATOM     18  F   UNL     1       8.610   5.334  19.818  0.00  0.00    +0.000 F 
ATOM     19  C   UNL     1       7.828   6.917  18.261  0.00  0.00    +0.000 A 
ATOM     20  C   UNL     1       6.940   7.251  17.241  0.00  0.00    +0.000 A 
ATOM     21  C   UNL     1       5.972   6.330  16.820  0.00  0.00    +0.000 A 
ATOM     22 CL   UNL     1       4.930   6.830  15.536  0.00  0.00    +0.000 Cl
ENDBRANCH  14  15
ENDBRANCH   5  14
TORSDOF 5
ENDMDL
MODEL 6
REMARK VINA RESULT:      -7.3      0.887      1.041
REMARK  Name = 
REMARK  6 active torsions:
REMARK  status: ('A' for Active; 'I' for Inactive)
REMARK    1  A    between atoms: C_1  and  C_2
REMARK    2  A    between atoms: N_4  and  C_5
REMARK    3  A    between atoms: C_5  and  C_6
REMARK    4  A    between atoms: C_6  and  C_7
REMARK    5  A    between atoms: N_11  and  C_12
REMARK    6  A    between atoms: C_12  and  C_13
REMARK                            x       y       z     vdW  Elec       q    Type
REMARK                         _______ _______ _______ _____ _____    ______ ____
ROOT
ATOM      1  C   UNL     1       6.522   5.160  15.634  0.00  0.00    +0.000 C 
ATOM      2  C   UNL     1       7.477   5.532  16.507  0.00  0.00    +0.000 C 
ATOM      3  C   UNL     1       7.150   5.939  17.906  0.00  0.00    +0.000 C 
ATOM      4  C   UNL     1       5.674   6.317  18.066  0.00  0.00    +0.000 C 
ATOM      5  N   UNL     1       4.791   5.281  17.506  0.00  0.00    +0.000 NA
ATOM      6  C   UNL     1       5.062   5.088  16.058  0.00  0.00    +0.000 C 
ENDROOT
BRANCH   1   7
ATOM      7  C   UNL     1       6.806   4.845  14.171  0.00  0.00    +0.000 C 
BRANCH   7   8
ATOM      8  C   UNL     1       6.162   3.553  13.635  0.00  0.00    +0.000 C 
BRANCH   8  12
ATOM      9  C   UNL     1       3.673   3.227  10.812  0.00  0.00    +0.000 C 
ATOM     10  C   UNL     1       4.907   2.920  11.613  0.00  0.00    +0.000 C 
ATOM     11  O   UNL     1       5.646   1.978  11.351  0.00  0.00    +0.000 OA
ATOM     12  N   UNL     1       5.111   3.789  12.664  0.00  0.00    +0.000 N 
ATOM     13  H   UNL     1       4.406   4.483  12.873  0.00  0.00    +0.000 HD
ENDBRANCH   8  12
ENDBRANCH   7   8
ENDBRANCH   1   7
BRANCH   5  14
ATOM     14  C   UNL     1       3.367   5.641  17.682  0.00  0.00    +0.000 C 
BRANCH  14  15
ATOM     15  C   UNL     1       2.607   4.800  18.693  0.00  0.00    +0.000 A 
ATOM     16  C   UNL     1       2.493   3.414  18.477  0.00  0.00    +0.000 A 
ATOM     17  C   UNL     1       1.741   2.623  19.340  0.00  0.00    +0.000 A 
ATOM     18  F   UNL     1       1.635   1.308  19.110  0.00  0.00    +0.000 F 
ATOM     19  C   UNL     1       1.092   3.174  20.436  0.00  0.00    +0.000 A 
ATOM     20  C   UNL     1       1.210   4.541  20.681  0.00  0.00    +0.000 A 
ATOM     21  C   UNL     1       1.965   5.348  19.820  0.00  0.00    +0.000 A 
ATOM     22 CL   UNL     1       2.067   7.027  20.219  0.00  0.00    +0.000 Cl
ENDBRANCH  14  15
ENDBRANCH   5  14
TORSDOF 5
ENDMDL
MODEL 7
REMARK VINA RESULT:      -7.3      1.649      1.928
REMARK  Name = 
REMARK  6 active torsions:
REMARK  status: ('A' for Active; 'I' for Inactive)
REMARK    1  A    between atoms: C_1  and  C_2
REMARK    2  A    between atoms: N_4  and  C_5
REMARK    3  A    between atoms: C_5  and  C_6
REMARK    4  A    between atoms: C_6  and  C_7
REMARK    5  A    between atoms: N_11  and  C_12
REMARK    6  A    between atoms: C_12  and  C_13
REMARK                            x       y       z     vdW  Elec       q    Type
REMARK                         _______ _______ _______ _____ _____    ______ ____
ROOT
ATOM      1  C   UNL     1       6.381   4.941  15.612  0.00  0.00    +0.000 C 
ATOM      2  C   UNL     1       6.661   5.936  16.474  0.00  0.00    +0.000 C 
ATOM      3  C   UNL     1       6.011   6.020  17.816  0.00  0.00    +0.000 C 
ATOM      4  C   UNL     1       4.731   5.181  17.890  0.00  0.00    +0.000 C 
ATOM      5  N   UNL     1       4.960   3.810  17.406  0.00  0.00    +0.000 NA
ATOM      6  C   UNL     1       5.421   3.824  15.993  0.00  0.00    +0.000 C 
ENDROOT
BRANCH   1   7
ATOM      7  C   UNL     1       6.942   4.883  14.196  0.00  0.00    +0.000 C 
BRANCH   7   8
ATOM      8  C   UNL     1       6.547   3.639  13.379  0.00  0.00    +0.000 C 
BRANCH   8  12
ATOM      9  C   UNL     1       3.697   3.207  10.936  0.00  0.00    +0.000 C 
ATOM     10  C   UNL     1       4.982   2.869  11.640  0.00  0.00    +0.000 C 
ATOM     11  O   UNL     1       5.572   1.810  11.464  0.00  0.00    +0.000 OA
ATOM     12  N   UNL     1       5.414   3.857  12.502  0.00  0.00    +0.000 N 
ATOM     13  H   UNL     1       4.822   4.661  12.665  0.00  0.00    +0.000 HD
ENDBRANCH   8  12
ENDBRANCH   7   8
ENDBRANCH   1   7
BRANCH   5  14
ATOM     14  C   UNL     1       3.728   2.998  17.499  0.00  0.00    +0.000 C 
BRANCH  14  15
ATOM     15  C   UNL     1       2.925   3.183  18.775  0.00  0.00    +0.000 A 
ATOM     16  C   UNL     1       3.374   2.563  19.957  0.00  0.00    +0.000 A 
ATOM     17  C   UNL     1       2.625   2.648  21.127  0.00  0.00    +0.000 A 
ATOM     18  F   UNL     1       3.062   2.040  22.237  0.00  0.00    +0.000 F 
ATOM     19  C   UNL     1       1.427   3.347  21.164  0.00  0.00    +0.000 A 
ATOM     20  C   UNL     1       0.976   3.987  20.011  0.00  0.00    +0.000 A 
ATOM     21  C   UNL     1       1.721   3.911  18.826  0.00  0.00    +0.000 A 
ATOM     22 CL   UNL     1       1.090   4.754  17.456  0.00  0.00    +0.000 Cl
ENDBRANCH  14  15
ENDBRANCH   5  14
TORSDOF 5
ENDMDL
MODEL 8
REMARK VINA RESULT:      -7.2      1.598      1.803
REMARK  Name = 
REMARK  6 active torsions:
REMARK  status: ('A' for Active; 'I' for Inactive)
REMARK    1  A    between atoms: C_1  and  C_2
REMARK    2  A    between atoms: N_4  and  C_5
REMARK    3  A    between atoms: C_5  and  C_6
REMARK    4  A    between atoms: C_6  and  C_7
REMARK    5  A    between atoms: N_11  and  C_12
REMARK    6  A    between atoms: C_12  and  C_13
REMARK                            x       y       z     vdW  Elec       q    Type
REMARK                         _______ _______ _______ _____ _____    ______ ____
ROOT
ATOM      1  C   UNL     1       6.745   4.826  16.397  0.00  0.00    +0.000 C 
ATOM      2  C   UNL     1       7.783   4.793  17.253  0.00  0.00    +0.000 C 
ATOM      3  C   UNL     1       7.589   4.904  18.730  0.00  0.00    +0.000 C 
ATOM      4  C   UNL     1       6.224   5.499  19.089  0.00  0.00    +0.000 C 
ATOM      5  N   UNL     1       5.135   4.811  18.377  0.00  0.00    +0.000 NA
ATOM      6  C   UNL     1       5.315   4.926  16.906  0.00  0.00    +0.000 C 
ENDROOT
BRANCH   1   7
ATOM      7  C   UNL     1       6.913   4.826  14.882  0.00  0.00    +0.000 C 
BRANCH   7   8
ATOM      8  C   UNL     1       5.771   4.162  14.090  0.00  0.00    +0.000 C 
BRANCH   8  12
ATOM      9  C   UNL     1       6.263   1.785  11.195  0.00  0.00    +0.000 C 
ATOM     10  C   UNL     1       5.565   2.814  12.039  0.00  0.00    +0.000 C 
ATOM     11  O   UNL     1       4.524   3.358  11.689  0.00  0.00    +0.000 OA
ATOM     12  N   UNL     1       6.215   3.087  13.225  0.00  0.00    +0.000 N 
ATOM     13  H   UNL     1       7.119   2.667  13.397  0.00  0.00    +0.000 HD
ENDBRANCH   8  12
ENDBRANCH   7   8
ENDBRANCH   1   7
BRANCH   5  14
ATOM     14  C   UNL     1       3.818   5.375  18.743  0.00  0.00    +0.000 C 
BRANCH  14  15
ATOM     15  C   UNL     1       2.788   4.364  19.216  0.00  0.00    +0.000 A 
ATOM     16  C   UNL     1       2.545   4.235  20.596  0.00  0.00    +0.000 A 
ATOM     17  C   UNL     1       1.664   3.268  21.071  0.00  0.00    +0.000 A 
ATOM     18  F   UNL     1       1.456   3.154  22.390  0.00  0.00    +0.000 F 
ATOM     19  C   UNL     1       1.000   2.413  20.203  0.00  0.00    +0.000 A 
ATOM     20  C   UNL     1       1.210   2.538  18.831  0.00  0.00    +0.000 A 
ATOM     21  C   UNL     1       2.093   3.508  18.339  0.00  0.00    +0.000 A 
ATOM     22 CL   UNL     1       2.271   3.598  16.623  0.00  0.00    +0.000 Cl
ENDBRANCH  14  15
ENDBRANCH   5  14
TORSDOF 5
ENDMDL
MODEL 9
REMARK VINA RESULT:      -7.2      2.008      2.397
REMARK  Name = 
REMARK  6 active torsions:
REMARK  status: ('A' for Active; 'I' for Inactive)
REMARK    1  A    between atoms: C_1  and  C_2
REMARK    2  A    between atoms: N_4  and  C_5
REMARK    3  A    between atoms: C_5  and  C_6
REMARK    4  A    between atoms: C_6  and  C_7
REMARK    5  A    between atoms: N_11  and  C_12
REMARK    6  A    between atoms: C_12  and  C_13
REMARK                            x       y       z     vdW  Elec       q    Type
REMARK                         _______ _______ _______ _____ _____    ______ ____
ROOT
ATOM      1  C   UNL     1       5.984   4.941  15.516  0.00  0.00    +0.000 C 
ATOM      2  C   UNL     1       5.767   6.196  15.955  0.00  0.00    +0.000 C 
ATOM      3  C   UNL     1       4.860   6.481  17.106  0.00  0.00    +0.000 C 
ATOM      4  C   UNL     1       3.906   5.317  17.391  0.00  0.00    +0.000 C 
ATOM      5  N   UNL     1       4.632   4.040  17.484  0.00  0.00    +0.000 NA
ATOM      6  C   UNL     1       5.347   3.749  16.215  0.00  0.00    +0.000 C 
ENDROOT
BRANCH   1   7
ATOM      7  C   UNL     1       6.815   4.623  14.279  0.00  0.00    +0.000 C 
BRANCH   7   8
ATOM      8  C   UNL     1       6.016   4.168  13.045  0.00  0.00    +0.000 C 
BRANCH   8  12
ATOM      9  C   UNL     1       6.325   0.969  11.058  0.00  0.00    +0.000 C 
ATOM     10  C   UNL     1       5.662   2.205  11.599  0.00  0.00    +0.000 C 
ATOM     11  O   UNL     1       4.554   2.575  11.230  0.00  0.00    +0.000 OA
ATOM     12  N   UNL     1       6.426   2.875  12.532  0.00  0.00    +0.000 N 
ATOM     13  H   UNL     1       7.370   2.559  12.713  0.00  0.00    +0.000 HD
ENDBRANCH   8  12
ENDBRANCH   7   8
ENDBRANCH   1   7
BRANCH   5  14
ATOM     14  C   UNL     1       3.710   2.922  17.780  0.00  0.00    +0.000 C 
BRANCH  14  15
ATOM     15  C   UNL     1       2.991   3.011  19.115  0.00  0.00    +0.000 A 
ATOM     16  C   UNL     1       1.776   3.718  19.188  0.00  0.00    +0.000 A 
ATOM     17  C   UNL     1       1.128   3.884  20.408  0.00  0.00    +0.000 A 
ATOM     18  F   UNL     1      -0.020   4.573  20.458  0.00  0.00    +0.000 F 
ATOM     19  C   UNL     1       1.653   3.355  21.579  0.00  0.00    +0.000 A 
ATOM     20  C   UNL     1       2.842   2.631  21.525  0.00  0.00    +0.000 A 
ATOM     21  C   UNL     1       3.505   2.455  20.303  0.00  0.00    +0.000 A 
ATOM     22 CL   UNL     1       4.962   1.526  20.336  0.00  0.00    +0.000 Cl
ENDBRANCH  14  15
ENDBRANCH   5  14
TORSDOF 5
ENDMDL
