MODEL 1
REMARK VINA RESULT:      -8.2      0.000      0.000
REMARK  Name = 
REMARK  8 active torsions:
REMARK  status: ('A' for Active; 'I' for Inactive)
REMARK    1  A    between atoms: C_2  and  C_4
REMARK    2  A    between atoms: N_6  and  C1*_7
REMARK    3  A    between atoms: C4*_9  and  C5*_10
REMARK    4  A    between atoms: C5*_10  and  O5*_11
REMARK    5  A    between atoms: C3*_12  and  O3*_13
REMARK    6  A    between atoms: C2*_14  and  O2*_15
REMARK    7  A    between atoms: C_19  and  O_20
REMARK    8  A    between atoms: O_20  and  C_21
REMARK                            x       y       z     vdW  Elec       q    Type
REMARK                         _______ _______ _______ _____ _____    ______ ____
ROOT
ATOM      1  C   UNL     1       1.900   4.074  19.112  0.00  0.00    +0.000 A 
ATOM      2  C   UNL     1       1.793   5.369  19.449  0.00  0.00    +0.000 A 
ATOM      3  N   UNL     1       2.614   6.411  19.035  0.00  0.00    +0.000 N 
ATOM      4  C   UNL     1       3.699   6.118  18.173  0.00  0.00    +0.000 A 
ATOM      5  C   UNL     1       4.596   7.084  17.694  0.00  0.00    +0.000 A 
ATOM      6  C   UNL     1       5.691   6.739  16.895  0.00  0.00    +0.000 A 
ATOM      7  C   UNL     1       5.957   5.405  16.598  0.00  0.00    +0.000 A 
ATOM      8  C   UNL     1       5.045   4.431  16.985  0.00  0.00    +0.000 A 
ATOM      9  C   UNL     1       3.932   4.785  17.766  0.00  0.00    +0.000 A 
ATOM     10  C   UNL     1       2.997   3.712  18.184  0.00  0.00    +0.000 A 
ATOM     11  O   UNL     1       3.139   2.563  17.771  0.00  0.00    +0.000 OA
ENDROOT
BRANCH   1  13
ATOM     12  N   UNL     1       0.946   2.987  21.045  0.00  0.00    +0.000 N 
ATOM     13  C   UNL     1       0.934   3.107  19.693  0.00  0.00    +0.000 C 
ATOM     14  O   UNL     1       0.164   2.440  19.006  0.00  0.00    +0.000 OA
ATOM     15  H   UNL     1       0.308   2.343  21.490  0.00  0.00    +0.000 HD
ATOM     16  H   UNL     1       1.597   3.521  21.619  0.00  0.00    +0.000 HD
ENDBRANCH   1  13
BRANCH   3  17
ATOM     17  C1* UNL     1       2.355   7.816  19.406  0.00  0.00    +0.000 C 
ATOM     18  O4* UNL     1       1.890   7.931  20.771  0.00  0.00    +0.000 OA
ATOM     19  C4* UNL     1       0.855   8.943  20.825  0.00  0.00    +0.000 C 
ATOM     20  C3* UNL     1       0.776   9.571  19.437  0.00  0.00    +0.000 C 
ATOM     21  C2* UNL     1       1.268   8.458  18.528  0.00  0.00    +0.000 C 
BRANCH  20  22
ATOM     22  O3* UNL     1       1.684  10.682  19.288  0.00  0.00    +0.000 OA
ATOM     23  H3* UNL     1       2.324  10.678  20.024  0.00  0.00    +0.000 HD
ENDBRANCH  20  22
BRANCH  21  24
ATOM     24  O2* UNL     1       1.746   8.986  17.290  0.00  0.00    +0.000 OA
ATOM     25  H2* UNL     1       0.989   8.947  16.668  0.00  0.00    +0.000 HD
ENDBRANCH  21  24
BRANCH  19  26
ATOM     26  C5* UNL     1      -0.450   8.272  21.253  0.00  0.00    +0.000 C 
BRANCH  26  27
ATOM     27  O5* UNL     1      -0.742   8.612  22.606  0.00  0.00    +0.000 OA
ATOM     28  H5* UNL     1      -1.369   7.940  22.936  0.00  0.00    +0.000 HD
ENDBRANCH  26  27
ENDBRANCH  19  26
ENDBRANCH   3  17
BRANCH   7  29
ATOM     29  O   UNL     1       7.073   4.978  15.914  0.00  0.00    +0.000 OA
BRANCH  29  30
ATOM     30  C   UNL     1       6.954   4.711  14.566  0.00  0.00    +0.000 A 
ATOM     31  C   UNL     1       6.061   3.772  14.037  0.00  0.00    +0.000 A 
ATOM     32  C   UNL     1       6.079   3.479  12.674  0.00  0.00    +0.000 A 
ATOM     33  C   UNL     1       6.939   4.175  11.826  0.00  0.00    +0.000 A 
ATOM     34  C   UNL     1       7.766   5.177  12.338  0.00  0.00    +0.000 A 
ATOM     35  C   UNL     1       7.774   5.446  13.708  0.00  0.00    +0.000 A 
ENDBRANCH  29  30
ENDBRANCH   7  29
TORSDOF 8
ENDMDL
MODEL 2
REMARK VINA RESULT:      -8.1      2.633      7.164
REMARK  Name = 
REMARK  8 active torsions:
REMARK  status: ('A' for Active; 'I' for Inactive)
REMARK    1  A    between atoms: C_2  and  C_4
REMARK    2  A    between atoms: N_6  and  C1*_7
REMARK    3  A    between atoms: C4*_9  and  C5*_10
REMARK    4  A    between atoms: C5*_10  and  O5*_11
REMARK    5  A    between atoms: C3*_12  and  O3*_13
REMARK    6  A    between atoms: C2*_14  and  O2*_15
REMARK    7  A    between atoms: C_19  and  O_20
REMARK    8  A    between atoms: O_20  and  C_21
REMARK                            x       y       z     vdW  Elec       q    Type
REMARK                         _______ _______ _______ _____ _____    ______ ____
ROOT
ATOM      1  C   UNL     1       6.125   5.033  17.464  0.00  0.00    +0.000 A 
ATOM      2  C   UNL     1       5.456   4.285  18.355  0.00  0.00    +0.000 A 
ATOM      3  N   UNL     1       4.216   4.565  18.916  0.00  0.00    +0.000 N 
ATOM      4  C   UNL     1       3.556   5.762  18.544  0.00  0.00    +0.000 A 
ATOM      5  C   UNL     1       2.306   6.152  19.046  0.00  0.00    +0.000 A 
ATOM      6  C   UNL     1       1.722   7.374  18.697  0.00  0.00    +0.000 A 
ATOM      7  C   UNL     1       2.400   8.273  17.878  0.00  0.00    +0.000 A 
ATOM      8  C   UNL     1       3.600   7.886  17.297  0.00  0.00    +0.000 A 
ATOM      9  C   UNL     1       4.172   6.646  17.630  0.00  0.00    +0.000 A 
ATOM     10  C   UNL     1       5.469   6.282  17.010  0.00  0.00    +0.000 A 
ATOM     11  O   UNL     1       5.976   7.001  16.152  0.00  0.00    +0.000 OA
ENDROOT
BRANCH   1  13
ATOM     12  N   UNL     1       7.715   4.682  15.681  0.00  0.00    +0.000 N 
ATOM     13  C   UNL     1       7.462   4.570  17.010  0.00  0.00    +0.000 C 
ATOM     14  O   UNL     1       8.301   4.102  17.776  0.00  0.00    +0.000 OA
ATOM     15  H   UNL     1       8.609   4.382  15.320  0.00  0.00    +0.000 HD
ATOM     16  H   UNL     1       7.014   5.048  15.037  0.00  0.00    +0.000 HD
ENDBRANCH   1  13
BRANCH   3  17
ATOM     17  C1* UNL     1       3.533   3.628  19.831  0.00  0.00    +0.000 C 
ATOM     18  O4* UNL     1       2.962   2.506  19.119  0.00  0.00    +0.000 OA
ATOM     19  C4* UNL     1       1.676   2.191  19.706  0.00  0.00    +0.000 C 
ATOM     20  C3* UNL     1       1.513   3.089  20.927  0.00  0.00    +0.000 C 
ATOM     21  C2* UNL     1       2.369   4.296  20.583  0.00  0.00    +0.000 C 
BRANCH  20  22
ATOM     22  O3* UNL     1       2.066   2.494  22.120  0.00  0.00    +0.000 OA
ATOM     23  H3* UNL     1       2.267   3.195  22.767  0.00  0.00    +0.000 HD
ENDBRANCH  20  22
BRANCH  21  24
ATOM     24  O2* UNL     1       2.756   4.999  21.765  0.00  0.00    +0.000 OA
ATOM     25  H2* UNL     1       3.318   4.379  22.278  0.00  0.00    +0.000 HD
ENDBRANCH  21  24
BRANCH  19  26
ATOM     26  C5* UNL     1       0.597   2.419  18.647  0.00  0.00    +0.000 C 
BRANCH  26  27
ATOM     27  O5* UNL     1       1.111   3.254  17.612  0.00  0.00    +0.000 OA
ATOM     28  H5* UNL     1       1.157   4.158  17.978  0.00  0.00    +0.000 HD
ENDBRANCH  26  27
ENDBRANCH  19  26
ENDBRANCH   3  17
BRANCH   7  29
ATOM     29  O   UNL     1       1.941   9.538  17.582  0.00  0.00    +0.000 OA
BRANCH  29  30
ATOM     30  C   UNL     1       0.843  10.015  18.267  0.00  0.00    +0.000 A 
ATOM     31  C   UNL     1      -0.472   9.893  17.806  0.00  0.00    +0.000 A 
ATOM     32  C   UNL     1      -1.517  10.500  18.502  0.00  0.00    +0.000 A 
ATOM     33  C   UNL     1      -1.258  11.166  19.699  0.00  0.00    +0.000 A 
ATOM     34  C   UNL     1       0.041  11.208  20.208  0.00  0.00    +0.000 A 
ATOM     35  C   UNL     1       1.093  10.632  19.493  0.00  0.00    +0.000 A 
ENDBRANCH  29  30
ENDBRANCH   7  29
TORSDOF 8
ENDMDL
MODEL 3
REMARK VINA RESULT:      -7.9      2.473      7.110
REMARK  Name = 
REMARK  8 active torsions:
REMARK  status: ('A' for Active; 'I' for Inactive)
REMARK    1  A    between atoms: C_2  and  C_4
REMARK    2  A    between atoms: N_6  and  C1*_7
REMARK    3  A    between atoms: C4*_9  and  C5*_10
REMARK    4  A    between atoms: C5*_10  and  O5*_11
REMARK    5  A    between atoms: C3*_12  and  O3*_13
REMARK    6  A    between atoms: C2*_14  and  O2*_15
REMARK    7  A    between atoms: C_19  and  O_20
REMARK    8  A    between atoms: O_20  and  C_21
REMARK                            x       y       z     vdW  Elec       q    Type
REMARK                         _______ _______ _______ _____ _____    ______ ____
ROOT
ATOM      1  C   UNL     1       2.601   4.118  20.432  0.00  0.00    +0.000 A 
ATOM      2  C   UNL     1       3.775   3.925  19.812  0.00  0.00    +0.000 A 
ATOM      3  N   UNL     1       4.399   4.787  18.917  0.00  0.00    +0.000 N 
ATOM      4  C   UNL     1       3.757   6.007  18.589  0.00  0.00    +0.000 A 
ATOM      5  C   UNL     1       4.287   6.951  17.699  0.00  0.00    +0.000 A 
ATOM      6  C   UNL     1       3.587   8.113  17.357  0.00  0.00    +0.000 A 
ATOM      7  C   UNL     1       2.306   8.338  17.852  0.00  0.00    +0.000 A 
ATOM      8  C   UNL     1       1.784   7.467  18.800  0.00  0.00    +0.000 A 
ATOM      9  C   UNL     1       2.502   6.313  19.160  0.00  0.00    +0.000 A 
ATOM     10  C   UNL     1       1.898   5.393  20.154  0.00  0.00    +0.000 A 
ATOM     11  O   UNL     1       0.847   5.686  20.721  0.00  0.00    +0.000 OA
ENDROOT
BRANCH   1  13
ATOM     12  N   UNL     1       0.766   2.766  21.229  0.00  0.00    +0.000 N 
ATOM     13  C   UNL     1       2.089   3.052  21.331  0.00  0.00    +0.000 C 
ATOM     14  O   UNL     1       2.804   2.456  22.132  0.00  0.00    +0.000 OA
ATOM     15  H   UNL     1       0.368   2.049  21.817  0.00  0.00    +0.000 HD
ATOM     16  H   UNL     1       0.163   3.273  20.582  0.00  0.00    +0.000 HD
ENDBRANCH   1  13
BRANCH   3  17
ATOM     17  C1* UNL     1       5.735   4.509  18.353  0.00  0.00    +0.000 C 
ATOM     18  O4* UNL     1       6.780   5.176  19.098  0.00  0.00    +0.000 OA
ATOM     19  C4* UNL     1       7.769   5.674  18.164  0.00  0.00    +0.000 C 
ATOM     20  C3* UNL     1       7.369   5.168  16.783  0.00  0.00    +0.000 C 
ATOM     21  C2* UNL     1       5.865   4.998  16.900  0.00  0.00    +0.000 C 
BRANCH  20  22
ATOM     22  O3* UNL     1       7.928   3.869  16.493  0.00  0.00    +0.000 OA
ATOM     23  H3* UNL     1       8.324   3.500  17.304  0.00  0.00    +0.000 HD
ENDBRANCH  20  22
BRANCH  21  24
ATOM     24  O2* UNL     1       5.378   4.078  15.922  0.00  0.00    +0.000 OA
ATOM     25  H2* UNL     1       6.045   4.068  15.203  0.00  0.00    +0.000 HD
ENDBRANCH  21  24
BRANCH  19  26
ATOM     26  C5* UNL     1       7.793   7.199  18.260  0.00  0.00    +0.000 C 
BRANCH  26  27
ATOM     27  O5* UNL     1       7.773   7.761  16.950  0.00  0.00    +0.000 OA
ATOM     28  H5* UNL     1       6.835   7.822  16.685  0.00  0.00    +0.000 HD
ENDBRANCH  26  27
ENDBRANCH  19  26
ENDBRANCH   3  17
BRANCH   7  29
ATOM     29  O   UNL     1       1.512   9.398  17.475  0.00  0.00    +0.000 OA
BRANCH  29  30
ATOM     30  C   UNL     1       0.783  10.050  18.448  0.00  0.00    +0.000 A 
ATOM     31  C   UNL     1       1.352  10.625  19.589  0.00  0.00    +0.000 A 
ATOM     32  C   UNL     1       0.535  11.168  20.581  0.00  0.00    +0.000 A 
ATOM     33  C   UNL     1      -0.846  11.204  20.400  0.00  0.00    +0.000 A 
ATOM     34  C   UNL     1      -1.409  10.714  19.220  0.00  0.00    +0.000 A 
ATOM     35  C   UNL     1      -0.595  10.137  18.242  0.00  0.00    +0.000 A 
ENDBRANCH  29  30
ENDBRANCH   7  29
TORSDOF 8
ENDMDL
MODEL 4
REMARK VINA RESULT:      -7.8      2.429      6.969
REMARK  Name = 
REMARK  8 active torsions:
REMARK  status: ('A' for Active; 'I' for Inactive)
REMARK    1  A    between atoms: C_2  and  C_4
REMARK    2  A    between atoms: N_6  and  C1*_7
REMARK    3  A    between atoms: C4*_9  and  C5*_10
REMARK    4  A    between atoms: C5*_10  and  O5*_11
REMARK    5  A    between atoms: C3*_12  and  O3*_13
REMARK    6  A    between atoms: C2*_14  and  O2*_15
REMARK    7  A    between atoms: C_19  and  O_20
REMARK    8  A    between atoms: O_20  and  C_21
REMARK                            x       y       z     vdW  Elec       q    Type
REMARK                         _______ _______ _______ _____ _____    ______ ____
ROOT
ATOM      1  C   UNL     1       2.575   4.114  20.438  0.00  0.00    +0.000 A 
ATOM      2  C   UNL     1       3.714   3.914  19.757  0.00  0.00    +0.000 A 
ATOM      3  N   UNL     1       4.316   4.789  18.859  0.00  0.00    +0.000 N 
ATOM      4  C   UNL     1       3.687   6.031  18.599  0.00  0.00    +0.000 A 
ATOM      5  C   UNL     1       4.196   6.991  17.712  0.00  0.00    +0.000 A 
ATOM      6  C   UNL     1       3.508   8.178  17.438  0.00  0.00    +0.000 A 
ATOM      7  C   UNL     1       2.257   8.415  18.001  0.00  0.00    +0.000 A 
ATOM      8  C   UNL     1       1.761   7.528  18.946  0.00  0.00    +0.000 A 
ATOM      9  C   UNL     1       2.467   6.348  19.238  0.00  0.00    +0.000 A 
ATOM     10  C   UNL     1       1.890   5.411  20.232  0.00  0.00    +0.000 A 
ATOM     11  O   UNL     1       0.875   5.710  20.857  0.00  0.00    +0.000 OA
ENDROOT
BRANCH   1  13
ATOM     12  N   UNL     1       0.768   2.714  21.214  0.00  0.00    +0.000 N 
ATOM     13  C   UNL     1       2.082   3.032  21.329  0.00  0.00    +0.000 C 
ATOM     14  O   UNL     1       2.805   2.451  22.135  0.00  0.00    +0.000 OA
ATOM     15  H   UNL     1       0.382   1.985  21.796  0.00  0.00    +0.000 HD
ATOM     16  H   UNL     1       0.158   3.208  20.563  0.00  0.00    +0.000 HD
ENDBRANCH   1  13
BRANCH   3  17
ATOM     17  C1* UNL     1       5.616   4.498  18.223  0.00  0.00    +0.000 C 
ATOM     18  O4* UNL     1       6.715   5.075  18.967  0.00  0.00    +0.000 OA
ATOM     19  C4* UNL     1       7.687   5.596  18.027  0.00  0.00    +0.000 C 
ATOM     20  C3* UNL     1       7.214   5.199  16.633  0.00  0.00    +0.000 C 
ATOM     21  C2* UNL     1       5.709   5.078  16.802  0.00  0.00    +0.000 C 
BRANCH  20  22
ATOM     22  O3* UNL     1       7.709   3.902  16.238  0.00  0.00    +0.000 OA
ATOM     23  H3* UNL     1       8.196   3.985  15.398  0.00  0.00    +0.000 HD
ENDBRANCH  20  22
BRANCH  21  24
ATOM     24  O2* UNL     1       5.148   4.244  15.787  0.00  0.00    +0.000 OA
ATOM     25  H2* UNL     1       4.558   3.613  16.250  0.00  0.00    +0.000 HD
ENDBRANCH  21  24
BRANCH  19  26
ATOM     26  C5* UNL     1       7.776   7.110  18.220  0.00  0.00    +0.000 C 
BRANCH  26  27
ATOM     27  O5* UNL     1       7.760   7.756  16.950  0.00  0.00    +0.000 OA
ATOM     28  H5* UNL     1       7.768   8.717  17.123  0.00  0.00    +0.000 HD
ENDBRANCH  26  27
ENDBRANCH  19  26
ENDBRANCH   3  17
BRANCH   7  29
ATOM     29  O   UNL     1       1.471   9.504  17.694  0.00  0.00    +0.000 OA
BRANCH  29  30
ATOM     30  C   UNL     1       1.542  10.615  18.509  0.00  0.00    +0.000 A 
ATOM     31  C   UNL     1       0.899  10.709  19.748  0.00  0.00    +0.000 A 
ATOM     32  C   UNL     1       0.927  11.907  20.461  0.00  0.00    +0.000 A 
ATOM     33  C   UNL     1       1.658  12.989  19.973  0.00  0.00    +0.000 A 
ATOM     34  C   UNL     1       2.375  12.866  18.781  0.00  0.00    +0.000 A 
ATOM     35  C   UNL     1       2.318  11.679  18.049  0.00  0.00    +0.000 A 
ENDBRANCH  29  30
ENDBRANCH   7  29
TORSDOF 8
ENDMDL
MODEL 5
REMARK VINA RESULT:      -7.6      1.946      7.823
REMARK  Name = 
REMARK  8 active torsions:
REMARK  status: ('A' for Active; 'I' for Inactive)
REMARK    1  A    between atoms: C_2  and  C_4
REMARK    2  A    between atoms: N_6  and  C1*_7
REMARK    3  A    between atoms: C4*_9  and  C5*_10
REMARK    4  A    between atoms: C5*_10  and  O5*_11
REMARK    5  A    between atoms: C3*_12  and  O3*_13
REMARK    6  A    between atoms: C2*_14  and  O2*_15
REMARK    7  A    between atoms: C_19  and  O_20
REMARK    8  A    between atoms: O_20  and  C_21
REMARK                            x       y       z     vdW  Elec       q    Type
REMARK                         _______ _______ _______ _____ _____    ______ ____
ROOT
ATOM      1  C   UNL     1       3.719   4.120  19.629  0.00  0.00    +0.000 A 
ATOM      2  C   UNL     1       4.532   4.395  18.598  0.00  0.00    +0.000 A 
ATOM      3  N   UNL     1       4.566   5.566  17.849  0.00  0.00    +0.000 N 
ATOM      4  C   UNL     1       3.654   6.602  18.168  0.00  0.00    +0.000 A 
ATOM      5  C   UNL     1       3.591   7.823  17.483  0.00  0.00    +0.000 A 
ATOM      6  C   UNL     1       2.632   8.792  17.792  0.00  0.00    +0.000 A 
ATOM      7  C   UNL     1       1.664   8.544  18.763  0.00  0.00    +0.000 A 
ATOM      8  C   UNL     1       1.746   7.382  19.518  0.00  0.00    +0.000 A 
ATOM      9  C   UNL     1       2.728   6.422  19.221  0.00  0.00    +0.000 A 
ATOM     10  C   UNL     1       2.765   5.180  20.031  0.00  0.00    +0.000 A 
ATOM     11  O   UNL     1       2.022   5.044  21.001  0.00  0.00    +0.000 OA
ENDROOT
BRANCH   1  13
ATOM     12  N   UNL     1       2.702   2.336  20.899  0.00  0.00    +0.000 N 
ATOM     13  C   UNL     1       3.821   2.787  20.278  0.00  0.00    +0.000 C 
ATOM     14  O   UNL     1       4.852   2.120  20.271  0.00  0.00    +0.000 OA
ATOM     15  H   UNL     1       2.718   1.435  21.355  0.00  0.00    +0.000 HD
ATOM     16  H   UNL     1       1.849   2.895  20.928  0.00  0.00    +0.000 HD
ENDBRANCH   1  13
BRANCH   3  17
ATOM     17  C1* UNL     1       5.560   5.793  16.782  0.00  0.00    +0.000 C 
ATOM     18  O4* UNL     1       4.971   5.663  15.467  0.00  0.00    +0.000 OA
ATOM     19  C4* UNL     1       5.916   4.987  14.601  0.00  0.00    +0.000 C 
ATOM     20  C3* UNL     1       7.203   4.811  15.400  0.00  0.00    +0.000 C 
ATOM     21  C2* UNL     1       6.714   4.777  16.837  0.00  0.00    +0.000 C 
BRANCH  20  22
ATOM     22  O3* UNL     1       8.084   5.946  15.271  0.00  0.00    +0.000 OA
ATOM     23  H3* UNL     1       8.016   6.309  14.369  0.00  0.00    +0.000 HD
ENDBRANCH  20  22
BRANCH  21  24
ATOM     24  O2* UNL     1       7.764   5.126  17.741  0.00  0.00    +0.000 OA
ATOM     25  H2* UNL     1       7.524   6.002  18.110  0.00  0.00    +0.000 HD
ENDBRANCH  21  24
BRANCH  19  26
ATOM     26  C5* UNL     1       5.298   3.660  14.161  0.00  0.00    +0.000 C 
BRANCH  26  27
ATOM     27  O5* UNL     1       6.058   3.110  13.087  0.00  0.00    +0.000 OA
ATOM     28  H5* UNL     1       6.797   3.726  12.922  0.00  0.00    +0.000 HD
ENDBRANCH  26  27
ENDBRANCH  19  26
ENDBRANCH   3  17
BRANCH   7  29
ATOM     29  O   UNL     1       0.623   9.400  19.045  0.00  0.00    +0.000 OA
BRANCH  29  30
ATOM     30  C   UNL     1       0.308   9.637  20.367  0.00  0.00    +0.000 A 
ATOM     31  C   UNL     1       0.149   8.624  21.320  0.00  0.00    +0.000 A 
ATOM     32  C   UNL     1      -0.280   8.937  22.609  0.00  0.00    +0.000 A 
ATOM     33  C   UNL     1      -0.478  10.268  22.970  0.00  0.00    +0.000 A 
ATOM     34  C   UNL     1      -0.230  11.287  22.048  0.00  0.00    +0.000 A 
ATOM     35  C   UNL     1       0.163  10.972  20.746  0.00  0.00    +0.000 A 
ENDBRANCH  29  30
ENDBRANCH   7  29
TORSDOF 8
ENDMDL
MODEL 6
REMARK VINA RESULT:      -7.6      2.159      7.549
REMARK  Name = 
REMARK  8 active torsions:
REMARK  status: ('A' for Active; 'I' for Inactive)
REMARK    1  A    between atoms: C_2  and  C_4
REMARK    2  A    between atoms: N_6  and  C1*_7
REMARK    3  A    between atoms: C4*_9  and  C5*_10
REMARK    4  A    between atoms: C5*_10  and  O5*_11
REMARK    5  A    between atoms: C3*_12  and  O3*_13
REMARK    6  A    between atoms: C2*_14  and  O2*_15
REMARK    7  A    between atoms: C_19  and  O_20
REMARK    8  A    between atoms: O_20  and  C_21
REMARK                            x       y       z     vdW  Elec       q    Type
REMARK                         _______ _______ _______ _____ _____    ______ ____
ROOT
ATOM      1  C   UNL     1       4.074   3.547  19.054  0.00  0.00    +0.000 A 
ATOM      2  C   UNL     1       4.818   3.912  17.999  0.00  0.00    +0.000 A 
ATOM      3  N   UNL     1       4.819   5.149  17.365  0.00  0.00    +0.000 N 
ATOM      4  C   UNL     1       3.950   6.158  17.846  0.00  0.00    +0.000 A 
ATOM      5  C   UNL     1       3.860   7.441  17.286  0.00  0.00    +0.000 A 
ATOM      6  C   UNL     1       2.941   8.385  17.755  0.00  0.00    +0.000 A 
ATOM      7  C   UNL     1       2.040   8.055  18.764  0.00  0.00    +0.000 A 
ATOM      8  C   UNL     1       2.155   6.824  19.397  0.00  0.00    +0.000 A 
ATOM      9  C   UNL     1       3.097   5.887  18.940  0.00  0.00    +0.000 A 
ATOM     10  C   UNL     1       3.170   4.573  19.623  0.00  0.00    +0.000 A 
ATOM     11  O   UNL     1       2.494   4.352  20.626  0.00  0.00    +0.000 OA
ENDROOT
BRANCH   1  13
ATOM     12  N   UNL     1       3.482   1.211  18.906  0.00  0.00    +0.000 N 
ATOM     13  C   UNL     1       4.199   2.157  19.564  0.00  0.00    +0.000 C 
ATOM     14  O   UNL     1       4.901   1.861  20.528  0.00  0.00    +0.000 OA
ATOM     15  H   UNL     1       3.532   0.250  19.212  0.00  0.00    +0.000 HD
ATOM     16  H   UNL     1       2.880   1.453  18.119  0.00  0.00    +0.000 HD
ENDBRANCH   1  13
BRANCH   3  17
ATOM     17  C1* UNL     1       5.740   5.468  16.256  0.00  0.00    +0.000 C 
ATOM     18  O4* UNL     1       5.048   5.522  14.986  0.00  0.00    +0.000 OA
ATOM     19  C4* UNL     1       5.893   4.923  13.973  0.00  0.00    +0.000 C 
ATOM     20  C3* UNL     1       7.226   4.602  14.639  0.00  0.00    +0.000 C 
ATOM     21  C2* UNL     1       6.846   4.410  16.097  0.00  0.00    +0.000 C 
BRANCH  20  22
ATOM     22  O3* UNL     1       8.148   5.711  14.577  0.00  0.00    +0.000 OA
ATOM     23  H3* UNL     1       9.055   5.371  14.463  0.00  0.00    +0.000 HD
ENDBRANCH  20  22
BRANCH  21  24
ATOM     24  O2* UNL     1       7.976   4.606  16.948  0.00  0.00    +0.000 OA
ATOM     25  H2* UNL     1       8.701   4.069  16.564  0.00  0.00    +0.000 HD
ENDBRANCH  21  24
BRANCH  19  26
ATOM     26  C5* UNL     1       5.182   3.683  13.429  0.00  0.00    +0.000 C 
BRANCH  26  27
ATOM     27  O5* UNL     1       6.089   2.920  12.637  0.00  0.00    +0.000 OA
ATOM     28  H5* UNL     1       5.599   2.641  11.840  0.00  0.00    +0.000 HD
ENDBRANCH  26  27
ENDBRANCH  19  26
ENDBRANCH   3  17
BRANCH   7  29
ATOM     29  O   UNL     1       1.036   8.890  19.200  0.00  0.00    +0.000 OA
BRANCH  29  30
ATOM     30  C   UNL     1       1.295  10.243  19.279  0.00  0.00    +0.000 A 
ATOM     31  C   UNL     1       1.844  10.990  18.230  0.00  0.00    +0.000 A 
ATOM     32  C   UNL     1       2.180  12.329  18.426  0.00  0.00    +0.000 A 
ATOM     33  C   UNL     1       1.901  12.943  19.646  0.00  0.00    +0.000 A 
ATOM     34  C   UNL     1       1.270  12.224  20.662  0.00  0.00    +0.000 A 
ATOM     35  C   UNL     1       0.966  10.873  20.479  0.00  0.00    +0.000 A 
ENDBRANCH  29  30
ENDBRANCH   7  29
TORSDOF 8
ENDMDL
MODEL 7
REMARK VINA RESULT:      -7.6      2.384      7.504
REMARK  Name = 
REMARK  8 active torsions:
REMARK  status: ('A' for Active; 'I' for Inactive)
REMARK    1  A    between atoms: C_2  and  C_4
REMARK    2  A    between atoms: N_6  and  C1*_7
REMARK    3  A    between atoms: C4*_9  and  C5*_10
REMARK    4  A    between atoms: C5*_10  and  O5*_11
REMARK    5  A    between atoms: C3*_12  and  O3*_13
REMARK    6  A    between atoms: C2*_14  and  O2*_15
REMARK    7  A    between atoms: C_19  and  O_20
REMARK    8  A    between atoms: O_20  and  C_21
REMARK                            x       y       z     vdW  Elec       q    Type
REMARK                         _______ _______ _______ _____ _____    ______ ____
ROOT
ATOM      1  C   UNL     1       5.575   5.097  16.695  0.00  0.00    +0.000 A 
ATOM      2  C   UNL     1       5.195   4.457  17.812  0.00  0.00    +0.000 A 
ATOM      3  N   UNL     1       4.245   4.878  18.735  0.00  0.00    +0.000 N 
ATOM      4  C   UNL     1       3.589   6.115  18.517  0.00  0.00    +0.000 A 
ATOM      5  C   UNL     1       2.618   6.645  19.379  0.00  0.00    +0.000 A 
ATOM      6  C   UNL     1       2.044   7.900  19.157  0.00  0.00    +0.000 A 
ATOM      7  C   UNL     1       2.467   8.693  18.093  0.00  0.00    +0.000 A 
ATOM      8  C   UNL     1       3.365   8.168  17.173  0.00  0.00    +0.000 A 
ATOM      9  C   UNL     1       3.921   6.895  17.386  0.00  0.00    +0.000 A 
ATOM     10  C   UNL     1       4.899   6.381  16.397  0.00  0.00    +0.000 A 
ATOM     11  O   UNL     1       5.135   7.010  15.367  0.00  0.00    +0.000 OA
ENDROOT
BRANCH   1  13
ATOM     12  N   UNL     1       6.243   3.997  14.653  0.00  0.00    +0.000 N 
ATOM     13  C   UNL     1       6.638   4.488  15.855  0.00  0.00    +0.000 C 
ATOM     14  O   UNL     1       7.811   4.418  16.212  0.00  0.00    +0.000 OA
ATOM     15  H   UNL     1       6.927   3.574  14.042  0.00  0.00    +0.000 HD
ATOM     16  H   UNL     1       5.267   4.032  14.360  0.00  0.00    +0.000 HD
ENDBRANCH   1  13
BRANCH   3  17
ATOM     17  C1* UNL     1       3.847   4.053  19.892  0.00  0.00    +0.000 C 
ATOM     18  O4* UNL     1       4.920   3.183  20.322  0.00  0.00    +0.000 OA
ATOM     19  C4* UNL     1       4.357   1.900  20.691  0.00  0.00    +0.000 C 
ATOM     20  C3* UNL     1       2.841   2.040  20.604  0.00  0.00    +0.000 C 
ATOM     21  C2* UNL     1       2.655   3.136  19.569  0.00  0.00    +0.000 C 
BRANCH  20  22
ATOM     22  O3* UNL     1       2.263   2.511  21.840  0.00  0.00    +0.000 OA
ATOM     23  H3* UNL     1       1.307   2.323  21.842  0.00  0.00    +0.000 HD
ENDBRANCH  20  22
BRANCH  21  24
ATOM     24  O2* UNL     1       1.377   3.759  19.711  0.00  0.00    +0.000 OA
ATOM     25  H2* UNL     1       1.488   4.681  19.397  0.00  0.00    +0.000 HD
ENDBRANCH  21  24
BRANCH  19  26
ATOM     26  C5* UNL     1       4.916   0.841  19.742  0.00  0.00    +0.000 C 
BRANCH  26  27
ATOM     27  O5* UNL     1       4.119   0.787  18.561  0.00  0.00    +0.000 OA
ATOM     28  H5* UNL     1       3.226   1.094  18.811  0.00  0.00    +0.000 HD
ENDBRANCH  26  27
ENDBRANCH  19  26
ENDBRANCH   3  17
BRANCH   7  29
ATOM     29  O   UNL     1       2.031   9.982  17.875  0.00  0.00    +0.000 OA
BRANCH  29  30
ATOM     30  C   UNL     1       0.844  10.379  18.454  0.00  0.00    +0.000 A 
ATOM     31  C   UNL     1      -0.417   9.997  17.981  0.00  0.00    +0.000 A 
ATOM     32  C   UNL     1      -1.571  10.531  18.553  0.00  0.00    +0.000 A 
ATOM     33  C   UNL     1      -1.469  11.390  19.645  0.00  0.00    +0.000 A 
ATOM     34  C   UNL     1      -0.216  11.700  20.177  0.00  0.00    +0.000 A 
ATOM     35  C   UNL     1       0.941  11.194  19.582  0.00  0.00    +0.000 A 
ENDBRANCH  29  30
ENDBRANCH   7  29
TORSDOF 8
ENDMDL
MODEL 8
REMARK VINA RESULT:      -7.6      6.014      9.614
REMARK  Name = 
REMARK  8 active torsions:
REMARK  status: ('A' for Active; 'I' for Inactive)
REMARK    1  A    between atoms: C_2  and  C_4
REMARK    2  A    between atoms: N_6  and  C1*_7
REMARK    3  A    between atoms: C4*_9  and  C5*_10
REMARK    4  A    between atoms: C5*_10  and  O5*_11
REMARK    5  A    between atoms: C3*_12  and  O3*_13
REMARK    6  A    between atoms: C2*_14  and  O2*_15
REMARK    7  A    between atoms: C_19  and  O_20
REMARK    8  A    between atoms: O_20  and  C_21
REMARK                            x       y       z     vdW  Elec       q    Type
REMARK                         _______ _______ _______ _____ _____    ______ ____
ROOT
ATOM      1  C   UNL     1      -5.124  11.863  18.783  0.00  0.00    +0.000 A 
ATOM      2  C   UNL     1      -5.199  12.326  20.041  0.00  0.00    +0.000 A 
ATOM      3  N   UNL     1      -4.137  12.632  20.884  0.00  0.00    +0.000 N 
ATOM      4  C   UNL     1      -2.817  12.440  20.409  0.00  0.00    +0.000 A 
ATOM      5  C   UNL     1      -1.669  12.709  21.167  0.00  0.00    +0.000 A 
ATOM      6  C   UNL     1      -0.385  12.445  20.679  0.00  0.00    +0.000 A 
ATOM      7  C   UNL     1      -0.212  11.846  19.434  0.00  0.00    +0.000 A 
ATOM      8  C   UNL     1      -1.320  11.643  18.621  0.00  0.00    +0.000 A 
ATOM      9  C   UNL     1      -2.607  11.934  19.106  0.00  0.00    +0.000 A 
ATOM     10  C   UNL     1      -3.767  11.675  18.219  0.00  0.00    +0.000 A 
ATOM     11  O   UNL     1      -3.597  11.314  17.056  0.00  0.00    +0.000 OA
ENDROOT
BRANCH   1  13
ATOM     12  N   UNL     1      -6.643  12.328  16.965  0.00  0.00    +0.000 N 
ATOM     13  C   UNL     1      -6.387  11.566  18.059  0.00  0.00    +0.000 C 
ATOM     14  O   UNL     1      -7.170  10.691  18.418  0.00  0.00    +0.000 OA
ATOM     15  H   UNL     1      -7.488  12.166  16.436  0.00  0.00    +0.000 HD
ATOM     16  H   UNL     1      -6.007  13.070  16.675  0.00  0.00    +0.000 HD
ENDBRANCH   1  13
BRANCH   3  17
ATOM     17  C1* UNL     1      -4.336  13.212  22.227  0.00  0.00    +0.000 C 
ATOM     18  O4* UNL     1      -5.077  12.318  23.090  0.00  0.00    +0.000 OA
ATOM     19  C4* UNL     1      -5.997  13.102  23.888  0.00  0.00    +0.000 C 
ATOM     20  C3* UNL     1      -5.708  14.568  23.586  0.00  0.00    +0.000 C 
ATOM     21  C2* UNL     1      -5.137  14.524  22.180  0.00  0.00    +0.000 C 
BRANCH  20  22
ATOM     22  O3* UNL     1      -4.688  15.113  24.449  0.00  0.00    +0.000 OA
ATOM     23  H3* UNL     1      -4.573  16.062  24.255  0.00  0.00    +0.000 HD
ENDBRANCH  20  22
BRANCH  21  24
ATOM     24  O2* UNL     1      -4.350  15.686  21.913  0.00  0.00    +0.000 OA
ATOM     25  H2* UNL     1      -3.502  15.360  21.545  0.00  0.00    +0.000 HD
ENDBRANCH  21  24
BRANCH  19  26
ATOM     26  C5* UNL     1      -7.422  12.685  23.525  0.00  0.00    +0.000 C 
BRANCH  26  27
ATOM     27  O5* UNL     1      -7.389  11.486  22.755  0.00  0.00    +0.000 OA
ATOM     28  H5* UNL     1      -6.477  11.394  22.419  0.00  0.00    +0.000 HD
ENDBRANCH  26  27
ENDBRANCH  19  26
ENDBRANCH   3  17
BRANCH   7  29
ATOM     29  O   UNL     1       1.010  11.454  18.934  0.00  0.00    +0.000 OA
BRANCH  29  30
ATOM     30  C   UNL     1       1.355  10.121  19.016  0.00  0.00    +0.000 A 
ATOM     31  C   UNL     1       1.158   9.338  20.159  0.00  0.00    +0.000 A 
ATOM     32  C   UNL     1       1.636   8.029  20.202  0.00  0.00    +0.000 A 
ATOM     33  C   UNL     1       2.244   7.476  19.077  0.00  0.00    +0.000 A 
ATOM     34  C   UNL     1       2.358   8.225  17.904  0.00  0.00    +0.000 A 
ATOM     35  C   UNL     1       1.913   9.548  17.873  0.00  0.00    +0.000 A 
ENDBRANCH  29  30
ENDBRANCH   7  29
TORSDOF 8
ENDMDL
MODEL 9
REMARK VINA RESULT:      -7.6      2.348      7.801
REMARK  Name = 
REMARK  8 active torsions:
REMARK  status: ('A' for Active; 'I' for Inactive)
REMARK    1  A    between atoms: C_2  and  C_4
REMARK    2  A    between atoms: N_6  and  C1*_7
REMARK    3  A    between atoms: C4*_9  and  C5*_10
REMARK    4  A    between atoms: C5*_10  and  O5*_11
REMARK    5  A    between atoms: C3*_12  and  O3*_13
REMARK    6  A    between atoms: C2*_14  and  O2*_15
REMARK    7  A    between atoms: C_19  and  O_20
REMARK    8  A    between atoms: O_20  and  C_21
REMARK                            x       y       z     vdW  Elec       q    Type
REMARK                         _______ _______ _______ _____ _____    ______ ____
ROOT
ATOM      1  C   UNL     1       4.112   3.084  19.798  0.00  0.00    +0.000 A 
ATOM      2  C   UNL     1       4.779   3.912  18.980  0.00  0.00    +0.000 A 
ATOM      3  N   UNL     1       4.512   5.257  18.754  0.00  0.00    +0.000 N 
ATOM      4  C   UNL     1       3.423   5.857  19.432  0.00  0.00    +0.000 A 
ATOM      5  C   UNL     1       3.056   7.202  19.282  0.00  0.00    +0.000 A 
ATOM      6  C   UNL     1       1.934   7.734  19.924  0.00  0.00    +0.000 A 
ATOM      7  C   UNL     1       1.107   6.920  20.694  0.00  0.00    +0.000 A 
ATOM      8  C   UNL     1       1.485   5.605  20.932  0.00  0.00    +0.000 A 
ATOM      9  C   UNL     1       2.628   5.080  20.305  0.00  0.00    +0.000 A 
ATOM     10  C   UNL     1       2.982   3.663  20.562  0.00  0.00    +0.000 A 
ATOM     11  O   UNL     1       2.351   2.999  21.381  0.00  0.00    +0.000 OA
ENDROOT
BRANCH   1  13
ATOM     12  N   UNL     1       4.119   0.858  18.864  0.00  0.00    +0.000 N 
ATOM     13  C   UNL     1       4.540   1.663  19.873  0.00  0.00    +0.000 C 
ATOM     14  O   UNL     1       5.228   1.221  20.789  0.00  0.00    +0.000 OA
ATOM     15  H   UNL     1       4.383  -0.117  18.866  0.00  0.00    +0.000 HD
ATOM     16  H   UNL     1       3.529   1.213  18.112  0.00  0.00    +0.000 HD
ENDBRANCH   1  13
BRANCH   3  17
ATOM     17  C1* UNL     1       5.363   6.097  17.887  0.00  0.00    +0.000 C 
ATOM     18  O4* UNL     1       4.824   6.202  16.549  0.00  0.00    +0.000 OA
ATOM     19  C4* UNL     1       5.919   6.152  15.602  0.00  0.00    +0.000 C 
ATOM     20  C3* UNL     1       7.209   6.145  16.416  0.00  0.00    +0.000 C 
ATOM     21  C2* UNL     1       6.782   5.521  17.733  0.00  0.00    +0.000 C 
BRANCH  20  22
ATOM     22  O3* UNL     1       7.680   7.478  16.703  0.00  0.00    +0.000 OA
ATOM     23  H3* UNL     1       7.768   7.590  17.668  0.00  0.00    +0.000 HD
ENDBRANCH  20  22
BRANCH  21  24
ATOM     24  O2* UNL     1       7.681   5.881  18.783  0.00  0.00    +0.000 OA
ATOM     25  H2* UNL     1       7.267   5.567  19.615  0.00  0.00    +0.000 HD
ENDBRANCH  21  24
BRANCH  19  26
ATOM     26  C5* UNL     1       5.749   4.902  14.739  0.00  0.00    +0.000 C 
BRANCH  26  27
ATOM     27  O5* UNL     1       7.025   4.319  14.484  0.00  0.00    +0.000 OA
ATOM     28  H5* UNL     1       7.678   4.841  14.989  0.00  0.00    +0.000 HD
ENDBRANCH  26  27
ENDBRANCH  19  26
ENDBRANCH   3  17
BRANCH   7  29
ATOM     29  O   UNL     1      -0.073   7.343  21.264  0.00  0.00    +0.000 OA
BRANCH  29  30
ATOM     30  C   UNL     1      -0.263   8.697  21.450  0.00  0.00    +0.000 A 
ATOM     31  C   UNL     1      -0.348   9.620  20.401  0.00  0.00    +0.000 A 
ATOM     32  C   UNL     1      -0.428  10.985  20.674  0.00  0.00    +0.000 A 
ATOM     33  C   UNL     1      -0.498  11.425  21.994  0.00  0.00    +0.000 A 
ATOM     34  C   UNL     1      -0.506  10.500  23.040  0.00  0.00    +0.000 A 
ATOM     35  C   UNL     1      -0.389   9.135  22.768  0.00  0.00    +0.000 A 
ENDBRANCH  29  30
ENDBRANCH   7  29
TORSDOF 8
ENDMDL
