MODEL 1
REMARK VINA RESULT:      -8.3      0.000      0.000
REMARK  Name = 
REMARK  4 active torsions:
REMARK  status: ('A' for Active; 'I' for Inactive)
REMARK    1  A    between atoms: C_6  and  C_7
REMARK    2  A    between atoms: C_7  and  C_8
REMARK    3  A    between atoms: C_8  and  N_9
REMARK    4  A    between atoms: C_13  and  C_14
REMARK                            x       y       z     vdW  Elec       q    Type
REMARK                         _______ _______ _______ _____ _____    ______ ____
ROOT
ATOM      1  C   UNL     1       4.957   6.651  16.430  0.00  0.00    +0.000 C 
ENDROOT
BRANCH   1   2
ATOM      2  N   UNL     1       6.122   5.873  16.849  0.00  0.00    +0.000 N 
ATOM      3  C   UNL     1       6.608   5.803  18.133  0.00  0.00    +0.000 A 
ATOM      4  C   UNL     1       7.670   4.943  18.091  0.00  0.00    +0.000 A 
ATOM      5  N   UNL     1       7.839   4.470  16.829  0.00  0.00    +0.000 NA
ATOM      6  C   UNL     1       6.923   5.049  16.066  0.00  0.00    +0.000 A 
BRANCH   6   7
ATOM      7  C   UNL     1       6.844   4.775  14.623  0.00  0.00    +0.000 A 
ATOM      8  C   UNL     1       5.930   3.804  14.191  0.00  0.00    +0.000 A 
ATOM      9  C   UNL     1       5.923   3.422  12.861  0.00  0.00    +0.000 A 
ATOM     10  N   UNL     1       6.751   3.943  11.934  0.00  0.00    +0.000 NA
ATOM     11  C   UNL     1       7.627   4.875  12.365  0.00  0.00    +0.000 A 
ATOM     12  C   UNL     1       7.714   5.318  13.679  0.00  0.00    +0.000 A 
ENDBRANCH   6   7
ENDBRANCH   1   2
BRANCH   1  13
ATOM     13  C   UNL     1       4.056   7.098  17.587  0.00  0.00    +0.000 C 
BRANCH  13  19
ATOM     14  C   UNL     1       0.889   2.631  20.018  0.00  0.00    +0.000 A 
ATOM     15  C   UNL     1       1.361   3.165  21.219  0.00  0.00    +0.000 A 
ATOM     16  C   UNL     1       2.207   4.280  21.236  0.00  0.00    +0.000 A 
ATOM     17  C   UNL     1       2.551   4.820  19.994  0.00  0.00    +0.000 A 
ATOM     18  N   UNL     1       3.333   5.886  19.639  0.00  0.00    +0.000 N 
ATOM     19  C   UNL     1       3.329   5.993  18.267  0.00  0.00    +0.000 A 
ATOM     20  N   UNL     1       2.591   5.047  17.725  0.00  0.00    +0.000 NA
ATOM     21  C   UNL     1       2.099   4.312  18.782  0.00  0.00    +0.000 A 
ATOM     22  C   UNL     1       1.250   3.196  18.788  0.00  0.00    +0.000 A 
ATOM     23  H   UNL     1       3.815   6.501  20.279  0.00  0.00    +0.000 HD
ENDBRANCH  13  19
ENDBRANCH   1  13
TORSDOF 4
ENDMDL
MODEL 2
REMARK VINA RESULT:      -8.3      0.428      1.253
REMARK  Name = 
REMARK  4 active torsions:
REMARK  status: ('A' for Active; 'I' for Inactive)
REMARK    1  A    between atoms: C_6  and  C_7
REMARK    2  A    between atoms: C_7  and  C_8
REMARK    3  A    between atoms: C_8  and  N_9
REMARK    4  A    between atoms: C_13  and  C_14
REMARK                            x       y       z     vdW  Elec       q    Type
REMARK                         _______ _______ _______ _____ _____    ______ ____
ROOT
ATOM      1  C   UNL     1       4.970   6.662  16.370  0.00  0.00    +0.000 C 
ENDROOT
BRANCH   1   2
ATOM      2  N   UNL     1       6.127   5.878  16.798  0.00  0.00    +0.000 N 
ATOM      3  C   UNL     1       6.605   5.808  18.085  0.00  0.00    +0.000 A 
ATOM      4  C   UNL     1       7.661   4.942  18.052  0.00  0.00    +0.000 A 
ATOM      5  N   UNL     1       7.835   4.463  16.792  0.00  0.00    +0.000 NA
ATOM      6  C   UNL     1       6.927   5.046  16.022  0.00  0.00    +0.000 A 
BRANCH   6   7
ATOM      7  C   UNL     1       6.855   4.769  14.580  0.00  0.00    +0.000 A 
ATOM      8  C   UNL     1       5.953   3.787  14.147  0.00  0.00    +0.000 A 
ATOM      9  C   UNL     1       5.953   3.402  12.818  0.00  0.00    +0.000 A 
ATOM     10  N   UNL     1       6.778   3.930  11.892  0.00  0.00    +0.000 NA
ATOM     11  C   UNL     1       7.642   4.872  12.324  0.00  0.00    +0.000 A 
ATOM     12  C   UNL     1       7.721   5.319  13.637  0.00  0.00    +0.000 A 
ENDBRANCH   6   7
ENDBRANCH   1   2
BRANCH   1  13
ATOM     13  C   UNL     1       4.111   7.189  17.526  0.00  0.00    +0.000 C 
BRANCH  13  19
ATOM     14  C   UNL     1       0.832   3.177  20.533  0.00  0.00    +0.000 A 
ATOM     15  C   UNL     1       0.944   2.440  19.352  0.00  0.00    +0.000 A 
ATOM     16  C   UNL     1       1.638   2.941  18.246  0.00  0.00    +0.000 A 
ATOM     17  C   UNL     1       2.206   4.210  18.389  0.00  0.00    +0.000 A 
ATOM     18  N   UNL     1       2.941   4.990  17.538  0.00  0.00    +0.000 N 
ATOM     19  C   UNL     1       3.266   6.159  18.187  0.00  0.00    +0.000 A 
ATOM     20  N   UNL     1       2.770   6.171  19.407  0.00  0.00    +0.000 NA
ATOM     21  C   UNL     1       2.113   4.969  19.550  0.00  0.00    +0.000 A 
ATOM     22  C   UNL     1       1.414   4.447  20.647  0.00  0.00    +0.000 A 
ATOM     23  H   UNL     1       3.215   4.740  16.599  0.00  0.00    +0.000 HD
ENDBRANCH  13  19
ENDBRANCH   1  13
TORSDOF 4
ENDMDL
MODEL 3
REMARK VINA RESULT:      -8.2      0.126      1.007
REMARK  Name = 
REMARK  4 active torsions:
REMARK  status: ('A' for Active; 'I' for Inactive)
REMARK    1  A    between atoms: C_6  and  C_7
REMARK    2  A    between atoms: C_7  and  C_8
REMARK    3  A    between atoms: C_8  and  N_9
REMARK    4  A    between atoms: C_13  and  C_14
REMARK                            x       y       z     vdW  Elec       q    Type
REMARK                         _______ _______ _______ _____ _____    ______ ____
ROOT
ATOM      1  C   UNL     1       4.999   6.603  16.396  0.00  0.00    +0.000 C 
ENDROOT
BRANCH   1   2
ATOM      2  N   UNL     1       6.166   5.873  16.889  0.00  0.00    +0.000 N 
ATOM      3  C   UNL     1       6.645   5.920  18.177  0.00  0.00    +0.000 A 
ATOM      4  C   UNL     1       7.712   5.067  18.217  0.00  0.00    +0.000 A 
ATOM      5  N   UNL     1       7.892   4.485  17.002  0.00  0.00    +0.000 NA
ATOM      6  C   UNL     1       6.977   4.989  16.186  0.00  0.00    +0.000 A 
BRANCH   6   7
ATOM      7  C   UNL     1       6.909   4.588  14.773  0.00  0.00    +0.000 A 
ATOM      8  C   UNL     1       7.746   5.250  13.864  0.00  0.00    +0.000 A 
ATOM      9  C   UNL     1       7.613   4.997  12.510  0.00  0.00    +0.000 A 
ATOM     10  N   UNL     1       6.717   4.129  12.000  0.00  0.00    +0.000 NA
ATOM     11  C   UNL     1       5.917   3.501  12.887  0.00  0.00    +0.000 A 
ATOM     12  C   UNL     1       5.971   3.693  14.262  0.00  0.00    +0.000 A 
ENDBRANCH   6   7
ENDBRANCH   1   2
BRANCH   1  13
ATOM     13  C   UNL     1       4.049   7.079  17.501  0.00  0.00    +0.000 C 
BRANCH  13  19
ATOM     14  C   UNL     1       0.901   2.656  20.035  0.00  0.00    +0.000 A 
ATOM     15  C   UNL     1       1.357   3.229  21.224  0.00  0.00    +0.000 A 
ATOM     16  C   UNL     1       2.193   4.351  21.215  0.00  0.00    +0.000 A 
ATOM     17  C   UNL     1       2.543   4.859  19.961  0.00  0.00    +0.000 A 
ATOM     18  N   UNL     1       3.319   5.920  19.582  0.00  0.00    +0.000 N 
ATOM     19  C   UNL     1       3.326   5.987  18.207  0.00  0.00    +0.000 A 
ATOM     20  N   UNL     1       2.601   5.019  17.687  0.00  0.00    +0.000 NA
ATOM     21  C   UNL     1       2.106   4.312  18.760  0.00  0.00    +0.000 A 
ATOM     22  C   UNL     1       1.267   3.188  18.791  0.00  0.00    +0.000 A 
ATOM     23  H   UNL     1       3.789   6.558  20.207  0.00  0.00    +0.000 HD
ENDBRANCH  13  19
ENDBRANCH   1  13
TORSDOF 4
ENDMDL
MODEL 4
REMARK VINA RESULT:      -8.2      0.276      1.604
REMARK  Name = 
REMARK  4 active torsions:
REMARK  status: ('A' for Active; 'I' for Inactive)
REMARK    1  A    between atoms: C_6  and  C_7
REMARK    2  A    between atoms: C_7  and  C_8
REMARK    3  A    between atoms: C_8  and  N_9
REMARK    4  A    between atoms: C_13  and  C_14
REMARK                            x       y       z     vdW  Elec       q    Type
REMARK                         _______ _______ _______ _____ _____    ______ ____
ROOT
ATOM      1  C   UNL     1       4.971   6.592  16.328  0.00  0.00    +0.000 C 
ENDROOT
BRANCH   1   2
ATOM      2  N   UNL     1       6.129   5.857  16.836  0.00  0.00    +0.000 N 
ATOM      3  C   UNL     1       6.589   5.899  18.130  0.00  0.00    +0.000 A 
ATOM      4  C   UNL     1       7.652   5.043  18.183  0.00  0.00    +0.000 A 
ATOM      5  N   UNL     1       7.847   4.462  16.970  0.00  0.00    +0.000 NA
ATOM      6  C   UNL     1       6.946   4.971  16.143  0.00  0.00    +0.000 A 
BRANCH   6   7
ATOM      7  C   UNL     1       6.896   4.573  14.728  0.00  0.00    +0.000 A 
ATOM      8  C   UNL     1       7.738   5.243  13.830  0.00  0.00    +0.000 A 
ATOM      9  C   UNL     1       7.622   4.993  12.473  0.00  0.00    +0.000 A 
ATOM     10  N   UNL     1       6.738   4.119  11.953  0.00  0.00    +0.000 NA
ATOM     11  C   UNL     1       5.932   3.483  12.829  0.00  0.00    +0.000 A 
ATOM     12  C   UNL     1       5.970   3.672  14.205  0.00  0.00    +0.000 A 
ENDBRANCH   6   7
ENDBRANCH   1   2
BRANCH   1  13
ATOM     13  C   UNL     1       4.081   7.189  17.425  0.00  0.00    +0.000 C 
BRANCH  13  19
ATOM     14  C   UNL     1       1.099   3.265  20.831  0.00  0.00    +0.000 A 
ATOM     15  C   UNL     1       0.903   2.605  19.616  0.00  0.00    +0.000 A 
ATOM     16  C   UNL     1       1.408   3.122  18.418  0.00  0.00    +0.000 A 
ATOM     17  C   UNL     1       2.111   4.327  18.506  0.00  0.00    +0.000 A 
ATOM     18  N   UNL     1       2.733   5.100  17.564  0.00  0.00    +0.000 N 
ATOM     19  C   UNL     1       3.290   6.190  18.192  0.00  0.00    +0.000 A 
ATOM     20  N   UNL     1       3.051   6.159  19.486  0.00  0.00    +0.000 NA
ATOM     21  C   UNL     1       2.323   5.009  19.699  0.00  0.00    +0.000 A 
ATOM     22  C   UNL     1       1.810   4.472  20.888  0.00  0.00    +0.000 A 
ATOM     23  H   UNL     1       2.789   4.893  16.577  0.00  0.00    +0.000 HD
ENDBRANCH  13  19
ENDBRANCH   1  13
TORSDOF 4
ENDMDL
MODEL 5
REMARK VINA RESULT:      -8.1      1.404      7.282
REMARK  Name = 
REMARK  4 active torsions:
REMARK  status: ('A' for Active; 'I' for Inactive)
REMARK    1  A    between atoms: C_6  and  C_7
REMARK    2  A    between atoms: C_7  and  C_8
REMARK    3  A    between atoms: C_8  and  N_9
REMARK    4  A    between atoms: C_13  and  C_14
REMARK                            x       y       z     vdW  Elec       q    Type
REMARK                         _______ _______ _______ _____ _____    ______ ____
ROOT
ATOM      1  C   UNL     1       5.146   4.666  18.169  0.00  0.00    +0.000 C 
ENDROOT
BRANCH   1   2
ATOM      2  N   UNL     1       4.184   5.768  18.159  0.00  0.00    +0.000 N 
ATOM      3  C   UNL     1       4.378   6.984  17.547  0.00  0.00    +0.000 A 
ATOM      4  C   UNL     1       3.228   7.695  17.743  0.00  0.00    +0.000 A 
ATOM      5  N   UNL     1       2.329   6.950  18.437  0.00  0.00    +0.000 NA
ATOM      6  C   UNL     1       2.910   5.792  18.716  0.00  0.00    +0.000 A 
BRANCH   6   7
ATOM      7  C   UNL     1       2.215   4.753  19.490  0.00  0.00    +0.000 A 
ATOM      8  C   UNL     1       2.523   4.636  20.852  0.00  0.00    +0.000 A 
ATOM      9  C   UNL     1       1.992   3.586  21.581  0.00  0.00    +0.000 A 
ATOM     10  N   UNL     1       1.173   2.655  21.053  0.00  0.00    +0.000 NA
ATOM     11  C   UNL     1       0.887   2.779  19.740  0.00  0.00    +0.000 A 
ATOM     12  C   UNL     1       1.376   3.794  18.926  0.00  0.00    +0.000 A 
ENDBRANCH   6   7
ENDBRANCH   1   2
BRANCH   1  13
ATOM     13  C   UNL     1       6.530   5.041  17.626  0.00  0.00    +0.000 C 
BRANCH  13  19
ATOM     14  C   UNL     1       7.363   4.524  11.716  0.00  0.00    +0.000 A 
ATOM     15  C   UNL     1       6.338   3.582  11.816  0.00  0.00    +0.000 A 
ATOM     16  C   UNL     1       5.747   3.278  13.048  0.00  0.00    +0.000 A 
ATOM     17  C   UNL     1       6.240   3.965  14.161  0.00  0.00    +0.000 A 
ATOM     18  N   UNL     1       5.905   3.928  15.488  0.00  0.00    +0.000 N 
ATOM     19  C   UNL     1       6.701   4.823  16.165  0.00  0.00    +0.000 A 
ATOM     20  N   UNL     1       7.533   5.427  15.342  0.00  0.00    +0.000 NA
ATOM     21  C   UNL     1       7.259   4.908  14.095  0.00  0.00    +0.000 A 
ATOM     22  C   UNL     1       7.835   5.199  12.850  0.00  0.00    +0.000 A 
ATOM     23  H   UNL     1       5.182   3.354  15.896  0.00  0.00    +0.000 HD
ENDBRANCH  13  19
ENDBRANCH   1  13
TORSDOF 4
ENDMDL
MODEL 6
REMARK VINA RESULT:      -8.1      3.451      4.982
REMARK  Name = 
REMARK  4 active torsions:
REMARK  status: ('A' for Active; 'I' for Inactive)
REMARK    1  A    between atoms: C_6  and  C_7
REMARK    2  A    between atoms: C_7  and  C_8
REMARK    3  A    between atoms: C_8  and  N_9
REMARK    4  A    between atoms: C_13  and  C_14
REMARK                            x       y       z     vdW  Elec       q    Type
REMARK                         _______ _______ _______ _____ _____    ______ ____
ROOT
ATOM      1  C   UNL     1       2.432   5.950  18.126  0.00  0.00    +0.000 C 
ENDROOT
BRANCH   1   2
ATOM      2  N   UNL     1       2.534   4.493  18.069  0.00  0.00    +0.000 N 
ATOM      3  C   UNL     1       1.514   3.615  18.350  0.00  0.00    +0.000 A 
ATOM      4  C   UNL     1       2.020   2.364  18.136  0.00  0.00    +0.000 A 
ATOM      5  N   UNL     1       3.309   2.445  17.714  0.00  0.00    +0.000 NA
ATOM      6  C   UNL     1       3.636   3.729  17.698  0.00  0.00    +0.000 A 
BRANCH   6   7
ATOM      7  C   UNL     1       4.984   4.171  17.311  0.00  0.00    +0.000 A 
ATOM      8  C   UNL     1       5.328   4.111  15.953  0.00  0.00    +0.000 A 
ATOM      9  C   UNL     1       6.628   4.388  15.569  0.00  0.00    +0.000 A 
ATOM     10  N   UNL     1       7.603   4.727  16.435  0.00  0.00    +0.000 NA
ATOM     11  C   UNL     1       7.258   4.778  17.739  0.00  0.00    +0.000 A 
ATOM     12  C   UNL     1       5.983   4.512  18.221  0.00  0.00    +0.000 A 
ENDBRANCH   6   7
ENDBRANCH   1   2
BRANCH   1  13
ATOM     13  C   UNL     1       2.896   6.557  19.456  0.00  0.00    +0.000 C 
BRANCH  13  19
ATOM     14  C   UNL     1      -0.515  11.127  21.292  0.00  0.00    +0.000 A 
ATOM     15  C   UNL     1      -0.417  10.492  22.532  0.00  0.00    +0.000 A 
ATOM     16  C   UNL     1       0.298   9.299  22.683  0.00  0.00    +0.000 A 
ATOM     17  C   UNL     1       0.901   8.784  21.532  0.00  0.00    +0.000 A 
ATOM     18  N   UNL     1       1.663   7.668  21.313  0.00  0.00    +0.000 N 
ATOM     19  C   UNL     1       2.017   7.635  19.983  0.00  0.00    +0.000 A 
ATOM     20  N   UNL     1       1.515   8.667  19.338  0.00  0.00    +0.000 NA
ATOM     21  C   UNL     1       0.823   9.391  20.284  0.00  0.00    +0.000 A 
ATOM     22  C   UNL     1       0.102  10.587  20.155  0.00  0.00    +0.000 A 
ATOM     23  H   UNL     1       1.936   6.995  22.014  0.00  0.00    +0.000 HD
ENDBRANCH  13  19
ENDBRANCH   1  13
TORSDOF 4
ENDMDL
MODEL 7
REMARK VINA RESULT:      -8.0      1.367      7.136
REMARK  Name = 
REMARK  4 active torsions:
REMARK  status: ('A' for Active; 'I' for Inactive)
REMARK    1  A    between atoms: C_6  and  C_7
REMARK    2  A    between atoms: C_7  and  C_8
REMARK    3  A    between atoms: C_8  and  N_9
REMARK    4  A    between atoms: C_13  and  C_14
REMARK                            x       y       z     vdW  Elec       q    Type
REMARK                         _______ _______ _______ _____ _____    ______ ____
ROOT
ATOM      1  C   UNL     1       5.292   5.015  18.462  0.00  0.00    +0.000 C 
ENDROOT
BRANCH   1   2
ATOM      2  N   UNL     1       4.229   6.001  18.275  0.00  0.00    +0.000 N 
ATOM      3  C   UNL     1       4.373   7.212  17.639  0.00  0.00    +0.000 A 
ATOM      4  C   UNL     1       3.138   7.796  17.650  0.00  0.00    +0.000 A 
ATOM      5  N   UNL     1       2.237   6.977  18.253  0.00  0.00    +0.000 NA
ATOM      6  C   UNL     1       2.896   5.901  18.658  0.00  0.00    +0.000 A 
BRANCH   6   7
ATOM      7  C   UNL     1       2.216   4.815  19.379  0.00  0.00    +0.000 A 
ATOM      8  C   UNL     1       2.433   4.710  20.761  0.00  0.00    +0.000 A 
ATOM      9  C   UNL     1       1.922   3.624  21.449  0.00  0.00    +0.000 A 
ATOM     10  N   UNL     1       1.205   2.645  20.863  0.00  0.00    +0.000 NA
ATOM     11  C   UNL     1       1.005   2.757  19.534  0.00  0.00    +0.000 A 
ATOM     12  C   UNL     1       1.483   3.806  18.757  0.00  0.00    +0.000 A 
ENDBRANCH   6   7
ENDBRANCH   1   2
BRANCH   1  13
ATOM     13  C   UNL     1       6.578   5.329  17.689  0.00  0.00    +0.000 C 
BRANCH  13  19
ATOM     14  C   UNL     1       6.248   3.519  11.987  0.00  0.00    +0.000 A 
ATOM     15  C   UNL     1       7.329   4.387  11.818  0.00  0.00    +0.000 A 
ATOM     16  C   UNL     1       7.842   5.126  12.889  0.00  0.00    +0.000 A 
ATOM     17  C   UNL     1       7.215   4.950  14.125  0.00  0.00    +0.000 A 
ATOM     18  N   UNL     1       7.447   5.492  15.361  0.00  0.00    +0.000 N 
ATOM     19  C   UNL     1       6.537   4.963  16.247  0.00  0.00    +0.000 A 
ATOM     20  N   UNL     1       5.730   4.118  15.643  0.00  0.00    +0.000 NA
ATOM     21  C   UNL     1       6.137   4.095  14.327  0.00  0.00    +0.000 A 
ATOM     22  C   UNL     1       5.640   3.362  13.240  0.00  0.00    +0.000 A 
ATOM     23  H   UNL     1       8.177   6.152  15.585  0.00  0.00    +0.000 HD
ENDBRANCH  13  19
ENDBRANCH   1  13
TORSDOF 4
ENDMDL
MODEL 8
REMARK VINA RESULT:      -7.9      1.355      7.175
REMARK  Name = 
REMARK  4 active torsions:
REMARK  status: ('A' for Active; 'I' for Inactive)
REMARK    1  A    between atoms: C_6  and  C_7
REMARK    2  A    between atoms: C_7  and  C_8
REMARK    3  A    between atoms: C_8  and  N_9
REMARK    4  A    between atoms: C_13  and  C_14
REMARK                            x       y       z     vdW  Elec       q    Type
REMARK                         _______ _______ _______ _____ _____    ______ ____
ROOT
ATOM      1  C   UNL     1       5.381   5.070  18.348  0.00  0.00    +0.000 C 
ENDROOT
BRANCH   1   2
ATOM      2  N   UNL     1       4.253   5.996  18.258  0.00  0.00    +0.000 N 
ATOM      3  C   UNL     1       4.272   7.208  17.610  0.00  0.00    +0.000 A 
ATOM      4  C   UNL     1       3.012   7.724  17.733  0.00  0.00    +0.000 A 
ATOM      5  N   UNL     1       2.217   6.861  18.416  0.00  0.00    +0.000 NA
ATOM      6  C   UNL     1       2.968   5.824  18.761  0.00  0.00    +0.000 A 
BRANCH   6   7
ATOM      7  C   UNL     1       2.417   4.707  19.542  0.00  0.00    +0.000 A 
ATOM      8  C   UNL     1       1.497   3.858  18.912  0.00  0.00    +0.000 A 
ATOM      9  C   UNL     1       0.856   2.880  19.653  0.00  0.00    +0.000 A 
ATOM     10  N   UNL     1       1.072   2.684  20.968  0.00  0.00    +0.000 NA
ATOM     11  C   UNL     1       1.959   3.510  21.562  0.00  0.00    +0.000 A 
ATOM     12  C   UNL     1       2.646   4.523  20.905  0.00  0.00    +0.000 A 
ENDBRANCH   6   7
ENDBRANCH   1   2
BRANCH   1  13
ATOM     13  C   UNL     1       6.648   5.561  17.637  0.00  0.00    +0.000 C 
BRANCH  13  19
ATOM     14  C   UNL     1       7.219   4.322  11.804  0.00  0.00    +0.000 A 
ATOM     15  C   UNL     1       6.115   3.499  12.035  0.00  0.00    +0.000 A 
ATOM     16  C   UNL     1       5.544   3.390  13.308  0.00  0.00    +0.000 A 
ATOM     17  C   UNL     1       6.137   4.145  14.324  0.00  0.00    +0.000 A 
ATOM     18  N   UNL     1       5.848   4.284  15.655  0.00  0.00    +0.000 N 
ATOM     19  C   UNL     1       6.746   5.168  16.206  0.00  0.00    +0.000 A 
ATOM     20  N   UNL     1       7.601   5.596  15.300  0.00  0.00    +0.000 NA
ATOM     21  C   UNL     1       7.236   4.973  14.127  0.00  0.00    +0.000 A 
ATOM     22  C   UNL     1       7.792   5.069  12.843  0.00  0.00    +0.000 A 
ATOM     23  H   UNL     1       5.089   3.830  16.142  0.00  0.00    +0.000 HD
ENDBRANCH  13  19
ENDBRANCH   1  13
TORSDOF 4
ENDMDL
MODEL 9
REMARK VINA RESULT:      -7.8      1.863      7.044
REMARK  Name = 
REMARK  4 active torsions:
REMARK  status: ('A' for Active; 'I' for Inactive)
REMARK    1  A    between atoms: C_6  and  C_7
REMARK    2  A    between atoms: C_7  and  C_8
REMARK    3  A    between atoms: C_8  and  N_9
REMARK    4  A    between atoms: C_13  and  C_14
REMARK                            x       y       z     vdW  Elec       q    Type
REMARK                         _______ _______ _______ _____ _____    ______ ____
ROOT
ATOM      1  C   UNL     1       5.625   5.810  18.463  0.00  0.00    +0.000 C 
ENDROOT
BRANCH   1   2
ATOM      2  N   UNL     1       4.495   5.039  18.980  0.00  0.00    +0.000 N 
ATOM      3  C   UNL     1       4.522   3.698  19.282  0.00  0.00    +0.000 A 
ATOM      4  C   UNL     1       3.282   3.394  19.769  0.00  0.00    +0.000 A 
ATOM      5  N   UNL     1       2.503   4.507  19.795  0.00  0.00    +0.000 NA
ATOM      6  C   UNL     1       3.221   5.500  19.293  0.00  0.00    +0.000 A 
BRANCH   6   7
ATOM      7  C   UNL     1       2.662   6.853  19.151  0.00  0.00    +0.000 A 
ATOM      8  C   UNL     1       2.017   7.415  20.262  0.00  0.00    +0.000 A 
ATOM      9  C   UNL     1       1.361   8.626  20.126  0.00  0.00    +0.000 A 
ATOM     10  N   UNL     1       1.310   9.318  18.971  0.00  0.00    +0.000 NA
ATOM     11  C   UNL     1       1.933   8.764  17.909  0.00  0.00    +0.000 A 
ATOM     12  C   UNL     1       2.612   7.552  17.946  0.00  0.00    +0.000 A 
ENDBRANCH   6   7
ENDBRANCH   1   2
BRANCH   1  13
ATOM     13  C   UNL     1       6.759   4.948  17.894  0.00  0.00    +0.000 C 
BRANCH  13  19
ATOM     14  C   UNL     1       6.324   3.680  12.055  0.00  0.00    +0.000 A 
ATOM     15  C   UNL     1       7.346   4.624  11.938  0.00  0.00    +0.000 A 
ATOM     16  C   UNL     1       7.855   5.286  13.061  0.00  0.00    +0.000 A 
ATOM     17  C   UNL     1       7.285   4.953  14.293  0.00  0.00    +0.000 A 
ATOM     18  N   UNL     1       7.531   5.387  15.568  0.00  0.00    +0.000 N 
ATOM     19  C   UNL     1       6.687   4.721  16.426  0.00  0.00    +0.000 A 
ATOM     20  N   UNL     1       5.908   3.890  15.767  0.00  0.00    +0.000 NA
ATOM     21  C   UNL     1       6.267   4.019  14.443  0.00  0.00    +0.000 A 
ATOM     22  C   UNL     1       5.773   3.365  13.305  0.00  0.00    +0.000 A 
ATOM     23  H   UNL     1       8.230   6.066  15.833  0.00  0.00    +0.000 HD
ENDBRANCH  13  19
ENDBRANCH   1  13
TORSDOF 4
ENDMDL
