MODEL 1
REMARK VINA RESULT:      -8.6      0.000      0.000
REMARK  Name = 
REMARK  6 active torsions:
REMARK  status: ('A' for Active; 'I' for Inactive)
REMARK    1  A    between atoms: C_1  and  C_2
REMARK    2  A    between atoms: C_2  and  N_3
REMARK    3  A    between atoms: C_12  and  C_13
REMARK    4  A    between atoms: C_13  and  N_14
REMARK    5  A    between atoms: C_27  and  N_28
REMARK    6  A    between atoms: C_29  and  C_30
REMARK                            x       y       z     vdW  Elec       q    Type
REMARK                         _______ _______ _______ _____ _____    ______ ____
ROOT
ATOM      1  N   UNL     1       0.060   9.221  20.763  0.00  0.00    +0.000 NA
ATOM      2  C   UNL     1      -0.667   9.736  21.923  0.00  0.00    +0.000 C 
ATOM      3  C   UNL     1      -0.353  11.192  22.285  0.00  0.00    +0.000 C 
ATOM      4  C   UNL     1      -0.361  12.186  21.094  0.00  0.00    +0.000 C 
ATOM      5  C   UNL     1       0.246  11.542  19.823  0.00  0.00    +0.000 C 
ATOM      6  C   UNL     1      -0.123  10.079  19.596  0.00  0.00    +0.000 C 
ATOM      7  C   UNL     1      -1.767  12.721  20.847  0.00  0.00    +0.000 A 
ATOM      8  C   UNL     1      -2.899  12.021  20.447  0.00  0.00    +0.000 A 
ATOM      9  C   UNL     1      -4.124  12.691  20.323  0.00  0.00    +0.000 A 
ATOM     10  C   UNL     1      -4.214  14.058  20.602  0.00  0.00    +0.000 A 
ATOM     11  C   UNL     1      -3.082  14.764  21.006  0.00  0.00    +0.000 A 
ATOM     12  C   UNL     1      -1.875  14.087  21.119  0.00  0.00    +0.000 A 
ATOM     13  C   UNL     1      -0.591  14.691  21.569  0.00  0.00    +0.000 C 
ATOM     14  C   UNL     1       0.408  13.517  21.525  0.00  0.00    +0.000 C 
ENDROOT
BRANCH  14  15
ATOM     15  N   UNL     1       1.558  13.869  20.687  0.00  0.00    +0.000 N 
ATOM     16  C   UNL     1       2.734  14.343  21.231  0.00  0.00    +0.000 C 
ATOM     17  C   UNL     1       3.839  14.557  20.234  0.00  0.00    +0.000 C 
ATOM     18  O   UNL     1       2.887  14.562  22.427  0.00  0.00    +0.000 OA
ATOM     19  H   UNL     1       1.578  13.502  19.745  0.00  0.00    +0.000 HD
ENDBRANCH  14  15
BRANCH   1  20
ATOM     20  C   UNL     1       1.463   8.859  21.049  0.00  0.00    +0.000 C 
BRANCH  20  30
ATOM     21  N   UNL     1       3.233   4.064  18.581  0.00  0.00    +0.000 N 
ATOM     22  C   UNL     1       3.997   4.508  17.524  0.00  0.00    +0.000 A 
ATOM     23  C   UNL     1       4.755   3.796  16.577  0.00  0.00    +0.000 A 
ATOM     24  C   UNL     1       5.441   4.518  15.600  0.00  0.00    +0.000 A 
ATOM     25  C   UNL     1       5.377   5.906  15.568  0.00  0.00    +0.000 A 
ATOM     26  C   UNL     1       4.635   6.610  16.530  0.00  0.00    +0.000 A 
ATOM     27  C   UNL     1       3.928   5.906  17.531  0.00  0.00    +0.000 A 
ATOM     28  C   UNL     1       3.101   6.297  18.644  0.00  0.00    +0.000 A 
ATOM     29  C   UNL     1       2.707   7.539  19.217  0.00  0.00    +0.000 A 
ATOM     30  C   UNL     1       1.859   7.565  20.347  0.00  0.00    +0.000 A 
ATOM     31  C   UNL     1       1.345   6.358  20.834  0.00  0.00    +0.000 A 
ATOM     32  C   UNL     1       1.707   5.129  20.285  0.00  0.00    +0.000 A 
ATOM     33  C   UNL     1       2.621   5.122  19.224  0.00  0.00    +0.000 A 
BRANCH  21  35
ATOM     34  C   UNL     1       4.241   2.321  20.026  0.00  0.00    +0.000 C 
ATOM     35  C   UNL     1       3.155   2.685  19.034  0.00  0.00    +0.000 C 
ENDBRANCH  21  35
ENDBRANCH  20  30
ENDBRANCH   1  20
TORSDOF 4
ENDMDL
MODEL 2
REMARK VINA RESULT:      -8.6      2.493      4.293
REMARK  Name = 
REMARK  6 active torsions:
REMARK  status: ('A' for Active; 'I' for Inactive)
REMARK    1  A    between atoms: C_1  and  C_2
REMARK    2  A    between atoms: C_2  and  N_3
REMARK    3  A    between atoms: C_12  and  C_13
REMARK    4  A    between atoms: C_13  and  N_14
REMARK    5  A    between atoms: C_27  and  N_28
REMARK    6  A    between atoms: C_29  and  C_30
REMARK                            x       y       z     vdW  Elec       q    Type
REMARK                         _______ _______ _______ _____ _____    ______ ____
ROOT
ATOM      1  N   UNL     1       1.555  10.023  19.257  0.00  0.00    +0.000 NA
ATOM      2  C   UNL     1       1.486  11.475  19.428  0.00  0.00    +0.000 C 
ATOM      3  C   UNL     1       0.162  12.112  18.991  0.00  0.00    +0.000 C 
ATOM      4  C   UNL     1      -1.117  11.396  19.499  0.00  0.00    +0.000 C 
ATOM      5  C   UNL     1      -0.940   9.857  19.483  0.00  0.00    +0.000 C 
ATOM      6  C   UNL     1       0.435   9.356  19.914  0.00  0.00    +0.000 C 
ATOM      7  C   UNL     1      -1.511  11.911  20.879  0.00  0.00    +0.000 A 
ATOM      8  C   UNL     1      -0.811  11.802  22.074  0.00  0.00    +0.000 A 
ATOM      9  C   UNL     1      -1.323  12.392  23.237  0.00  0.00    +0.000 A 
ATOM     10  C   UNL     1      -2.533  13.092  23.201  0.00  0.00    +0.000 A 
ATOM     11  C   UNL     1      -3.238  13.206  22.005  0.00  0.00    +0.000 A 
ATOM     12  C   UNL     1      -2.720  12.612  20.862  0.00  0.00    +0.000 A 
ATOM     13  C   UNL     1      -3.335  12.673  19.508  0.00  0.00    +0.000 C 
ATOM     14  C   UNL     1      -2.361  11.873  18.620  0.00  0.00    +0.000 C 
ENDROOT
BRANCH  14  15
ATOM     15  N   UNL     1      -3.081  10.798  17.929  0.00  0.00    +0.000 N 
ATOM     16  C   UNL     1      -3.060  10.679  16.555  0.00  0.00    +0.000 C 
ATOM     17  C   UNL     1      -3.769   9.463  16.026  0.00  0.00    +0.000 C 
ATOM     18  O   UNL     1      -2.502  11.479  15.813  0.00  0.00    +0.000 OA
ATOM     19  H   UNL     1      -3.359   9.995  18.477  0.00  0.00    +0.000 HD
ENDBRANCH  14  15
BRANCH   1  20
ATOM     20  C   UNL     1       1.797   9.597  17.864  0.00  0.00    +0.000 C 
BRANCH  20  30
ATOM     21  N   UNL     1       4.374   4.563  17.383  0.00  0.00    +0.000 N 
ATOM     22  C   UNL     1       3.447   3.676  17.884  0.00  0.00    +0.000 A 
ATOM     23  C   UNL     1       3.476   2.273  17.975  0.00  0.00    +0.000 A 
ATOM     24  C   UNL     1       2.377   1.624  18.539  0.00  0.00    +0.000 A 
ATOM     25  C   UNL     1       1.282   2.349  18.995  0.00  0.00    +0.000 A 
ATOM     26  C   UNL     1       1.253   3.747  18.881  0.00  0.00    +0.000 A 
ATOM     27  C   UNL     1       2.352   4.433  18.317  0.00  0.00    +0.000 A 
ATOM     28  C   UNL     1       2.644   5.818  18.046  0.00  0.00    +0.000 A 
ATOM     29  C   UNL     1       1.932   7.042  18.184  0.00  0.00    +0.000 A 
ATOM     30  C   UNL     1       2.535   8.264  17.809  0.00  0.00    +0.000 A 
ATOM     31  C   UNL     1       3.868   8.257  17.385  0.00  0.00    +0.000 A 
ATOM     32  C   UNL     1       4.592   7.073  17.250  0.00  0.00    +0.000 A 
ATOM     33  C   UNL     1       3.945   5.866  17.541  0.00  0.00    +0.000 A 
BRANCH  21  35
ATOM     34  C   UNL     1       5.459   4.234  15.179  0.00  0.00    +0.000 C 
ATOM     35  C   UNL     1       5.596   4.190  16.688  0.00  0.00    +0.000 C 
ENDBRANCH  21  35
ENDBRANCH  20  30
ENDBRANCH   1  20
TORSDOF 4
ENDMDL
MODEL 3
REMARK VINA RESULT:      -8.4      1.686      3.053
REMARK  Name = 
REMARK  6 active torsions:
REMARK  status: ('A' for Active; 'I' for Inactive)
REMARK    1  A    between atoms: C_1  and  C_2
REMARK    2  A    between atoms: C_2  and  N_3
REMARK    3  A    between atoms: C_12  and  C_13
REMARK    4  A    between atoms: C_13  and  N_14
REMARK    5  A    between atoms: C_27  and  N_28
REMARK    6  A    between atoms: C_29  and  C_30
REMARK                            x       y       z     vdW  Elec       q    Type
REMARK                         _______ _______ _______ _____ _____    ______ ____
ROOT
ATOM      1  N   UNL     1       0.355   9.862  19.108  0.00  0.00    +0.000 NA
ATOM      2  C   UNL     1       0.770   9.864  20.511  0.00  0.00    +0.000 C 
ATOM      3  C   UNL     1       1.277  11.213  21.030  0.00  0.00    +0.000 C 
ATOM      4  C   UNL     1       0.389  12.436  20.675  0.00  0.00    +0.000 C 
ATOM      5  C   UNL     1      -0.190  12.309  19.243  0.00  0.00    +0.000 C 
ATOM      6  C   UNL     1      -0.631  10.905  18.843  0.00  0.00    +0.000 C 
ATOM      7  C   UNL     1      -0.706  12.628  21.719  0.00  0.00    +0.000 A 
ATOM      8  C   UNL     1      -1.761  11.780  22.030  0.00  0.00    +0.000 A 
ATOM      9  C   UNL     1      -2.642  12.116  23.067  0.00  0.00    +0.000 A 
ATOM     10  C   UNL     1      -2.463  13.299  23.792  0.00  0.00    +0.000 A 
ATOM     11  C   UNL     1      -1.404  14.151  23.485  0.00  0.00    +0.000 A 
ATOM     12  C   UNL     1      -0.544  13.807  22.451  0.00  0.00    +0.000 A 
ATOM     13  C   UNL     1       0.647  14.594  22.027  0.00  0.00    +0.000 C 
ATOM     14  C   UNL     1       1.243  13.770  20.868  0.00  0.00    +0.000 C 
ENDROOT
BRANCH  14  15
ATOM     15  N   UNL     1       1.366  14.607  19.670  0.00  0.00    +0.000 N 
ATOM     16  C   UNL     1       2.568  15.175  19.303  0.00  0.00    +0.000 C 
ATOM     17  C   UNL     1       2.532  15.918  17.996  0.00  0.00    +0.000 C 
ATOM     18  O   UNL     1       3.594  15.079  19.967  0.00  0.00    +0.000 OA
ATOM     19  H   UNL     1       0.636  14.536  18.974  0.00  0.00    +0.000 HD
ENDBRANCH  14  15
BRANCH   1  20
ATOM     20  C   UNL     1       1.480   9.819  18.153  0.00  0.00    +0.000 C 
BRANCH  20  30
ATOM     21  N   UNL     1       4.111   4.795  18.399  0.00  0.00    +0.000 N 
ATOM     22  C   UNL     1       3.497   4.161  19.456  0.00  0.00    +0.000 A 
ATOM     23  C   UNL     1       3.669   2.864  19.972  0.00  0.00    +0.000 A 
ATOM     24  C   UNL     1       2.899   2.482  21.072  0.00  0.00    +0.000 A 
ATOM     25  C   UNL     1       1.985   3.362  21.638  0.00  0.00    +0.000 A 
ATOM     26  C   UNL     1       1.805   4.647  21.103  0.00  0.00    +0.000 A 
ATOM     27  C   UNL     1       2.572   5.064  19.992  0.00  0.00    +0.000 A 
ATOM     28  C   UNL     1       2.636   6.271  19.208  0.00  0.00    +0.000 A 
ATOM     29  C   UNL     1       1.924   7.504  19.197  0.00  0.00    +0.000 A 
ATOM     30  C   UNL     1       2.254   8.509  18.261  0.00  0.00    +0.000 A 
ATOM     31  C   UNL     1       3.345   8.307  17.408  0.00  0.00    +0.000 A 
ATOM     32  C   UNL     1       4.065   7.114  17.404  0.00  0.00    +0.000 A 
ATOM     33  C   UNL     1       3.663   6.096  18.278  0.00  0.00    +0.000 A 
BRANCH  21  35
ATOM     34  C   UNL     1       6.483   4.486  17.748  0.00  0.00    +0.000 C 
ATOM     35  C   UNL     1       5.029   4.164  17.465  0.00  0.00    +0.000 C 
ENDBRANCH  21  35
ENDBRANCH  20  30
ENDBRANCH   1  20
TORSDOF 4
ENDMDL
MODEL 4
REMARK VINA RESULT:      -8.4      1.790      3.034
REMARK  Name = 
REMARK  6 active torsions:
REMARK  status: ('A' for Active; 'I' for Inactive)
REMARK    1  A    between atoms: C_1  and  C_2
REMARK    2  A    between atoms: C_2  and  N_3
REMARK    3  A    between atoms: C_12  and  C_13
REMARK    4  A    between atoms: C_13  and  N_14
REMARK    5  A    between atoms: C_27  and  N_28
REMARK    6  A    between atoms: C_29  and  C_30
REMARK                            x       y       z     vdW  Elec       q    Type
REMARK                         _______ _______ _______ _____ _____    ______ ____
ROOT
ATOM      1  N   UNL     1       0.641   9.696  18.802  0.00  0.00    +0.000 NA
ATOM      2  C   UNL     1       1.053   9.677  20.206  0.00  0.00    +0.000 C 
ATOM      3  C   UNL     1       1.562  11.018  20.746  0.00  0.00    +0.000 C 
ATOM      4  C   UNL     1       0.676  12.246  20.407  0.00  0.00    +0.000 C 
ATOM      5  C   UNL     1       0.099  12.142  18.973  0.00  0.00    +0.000 C 
ATOM      6  C   UNL     1      -0.343  10.744  18.551  0.00  0.00    +0.000 C 
ATOM      7  C   UNL     1      -0.419  12.425  21.452  0.00  0.00    +0.000 A 
ATOM      8  C   UNL     1      -1.477  11.574  21.749  0.00  0.00    +0.000 A 
ATOM      9  C   UNL     1      -2.358  11.896  22.790  0.00  0.00    +0.000 A 
ATOM     10  C   UNL     1      -2.179  13.067  23.533  0.00  0.00    +0.000 A 
ATOM     11  C   UNL     1      -1.118  13.923  23.240  0.00  0.00    +0.000 A 
ATOM     12  C   UNL     1      -0.257  13.592  22.203  0.00  0.00    +0.000 A 
ATOM     13  C   UNL     1       0.936  14.384  21.792  0.00  0.00    +0.000 C 
ATOM     14  C   UNL     1       1.533  13.576  20.621  0.00  0.00    +0.000 C 
ENDROOT
BRANCH  14  15
ATOM     15  N   UNL     1       1.659  14.431  19.436  0.00  0.00    +0.000 N 
ATOM     16  C   UNL     1       2.862  15.000  19.078  0.00  0.00    +0.000 C 
ATOM     17  C   UNL     1       2.829  15.762  17.782  0.00  0.00    +0.000 C 
ATOM     18  O   UNL     1       3.888  14.890  19.740  0.00  0.00    +0.000 OA
ATOM     19  H   UNL     1       0.928  14.373  18.740  0.00  0.00    +0.000 HD
ENDBRANCH  14  15
BRANCH   1  20
ATOM     20  C   UNL     1       1.768   9.666  17.848  0.00  0.00    +0.000 C 
BRANCH  20  30
ATOM     21  N   UNL     1       4.179   4.535  17.559  0.00  0.00    +0.000 N 
ATOM     22  C   UNL     1       3.206   3.693  18.051  0.00  0.00    +0.000 A 
ATOM     23  C   UNL     1       3.183   2.292  18.174  0.00  0.00    +0.000 A 
ATOM     24  C   UNL     1       2.045   1.695  18.719  0.00  0.00    +0.000 A 
ATOM     25  C   UNL     1       0.964   2.468  19.125  0.00  0.00    +0.000 A 
ATOM     26  C   UNL     1       0.988   3.863  18.979  0.00  0.00    +0.000 A 
ATOM     27  C   UNL     1       2.126   4.498  18.433  0.00  0.00    +0.000 A 
ATOM     28  C   UNL     1       2.475   5.864  18.140  0.00  0.00    +0.000 A 
ATOM     29  C   UNL     1       1.802   7.116  18.229  0.00  0.00    +0.000 A 
ATOM     30  C   UNL     1       2.459   8.306  17.845  0.00  0.00    +0.000 A 
ATOM     31  C   UNL     1       3.804   8.244  17.463  0.00  0.00    +0.000 A 
ATOM     32  C   UNL     1       4.489   7.033  17.376  0.00  0.00    +0.000 A 
ATOM     33  C   UNL     1       3.791   5.855  17.674  0.00  0.00    +0.000 A 
BRANCH  21  35
ATOM     34  C   UNL     1       5.325   4.144  15.396  0.00  0.00    +0.000 C 
ATOM     35  C   UNL     1       5.406   4.105  16.909  0.00  0.00    +0.000 C 
ENDBRANCH  21  35
ENDBRANCH  20  30
ENDBRANCH   1  20
TORSDOF 4
ENDMDL
MODEL 5
REMARK VINA RESULT:      -8.3      2.407      4.219
REMARK  Name = 
REMARK  6 active torsions:
REMARK  status: ('A' for Active; 'I' for Inactive)
REMARK    1  A    between atoms: C_1  and  C_2
REMARK    2  A    between atoms: C_2  and  N_3
REMARK    3  A    between atoms: C_12  and  C_13
REMARK    4  A    between atoms: C_13  and  N_14
REMARK    5  A    between atoms: C_27  and  N_28
REMARK    6  A    between atoms: C_29  and  C_30
REMARK                            x       y       z     vdW  Elec       q    Type
REMARK                         _______ _______ _______ _____ _____    ______ ____
ROOT
ATOM      1  N   UNL     1       0.977  11.302  19.531  0.00  0.00    +0.000 NA
ATOM      2  C   UNL     1       0.190  11.939  18.475  0.00  0.00    +0.000 C 
ATOM      3  C   UNL     1      -1.097  12.619  18.953  0.00  0.00    +0.000 C 
ATOM      4  C   UNL     1      -0.943  13.526  20.203  0.00  0.00    +0.000 C 
ATOM      5  C   UNL     1       0.048  12.909  21.222  0.00  0.00    +0.000 C 
ATOM      6  C   UNL     1       1.275  12.237  20.611  0.00  0.00    +0.000 C 
ATOM      7  C   UNL     1      -0.539  14.939  19.797  0.00  0.00    +0.000 A 
ATOM      8  C   UNL     1       0.633  15.358  19.180  0.00  0.00    +0.000 A 
ATOM      9  C   UNL     1       0.796  16.708  18.840  0.00  0.00    +0.000 A 
ATOM     10  C   UNL     1      -0.215  17.634  19.117  0.00  0.00    +0.000 A 
ATOM     11  C   UNL     1      -1.392  17.218  19.734  0.00  0.00    +0.000 A 
ATOM     12  C   UNL     1      -1.536  15.878  20.069  0.00  0.00    +0.000 A 
ATOM     13  C   UNL     1      -2.743  15.276  20.699  0.00  0.00    +0.000 C 
ATOM     14  C   UNL     1      -2.384  13.783  20.838  0.00  0.00    +0.000 C 
ENDROOT
BRANCH  14  15
ATOM     15  N   UNL     1      -2.531  13.360  22.235  0.00  0.00    +0.000 N 
ATOM     16  C   UNL     1      -3.642  12.667  22.669  0.00  0.00    +0.000 C 
ATOM     17  C   UNL     1      -3.579  12.228  24.106  0.00  0.00    +0.000 C 
ATOM     18  O   UNL     1      -4.603  12.409  21.953  0.00  0.00    +0.000 OA
ATOM     19  H   UNL     1      -1.697  13.337  22.806  0.00  0.00    +0.000 HD
ENDBRANCH  14  15
BRANCH   1  20
ATOM     20  C   UNL     1       0.440   9.999  19.972  0.00  0.00    +0.000 C 
BRANCH  20  30
ATOM     21  N   UNL     1       3.512   5.562  18.213  0.00  0.00    +0.000 N 
ATOM     22  C   UNL     1       3.310   4.620  19.196  0.00  0.00    +0.000 A 
ATOM     23  C   UNL     1       3.757   3.290  19.297  0.00  0.00    +0.000 A 
ATOM     24  C   UNL     1       3.394   2.554  20.426  0.00  0.00    +0.000 A 
ATOM     25  C   UNL     1       2.608   3.123  21.421  0.00  0.00    +0.000 A 
ATOM     26  C   UNL     1       2.149   4.444  21.302  0.00  0.00    +0.000 A 
ATOM     27  C   UNL     1       2.502   5.215  20.172  0.00  0.00    +0.000 A 
ATOM     28  C   UNL     1       2.207   6.556  19.735  0.00  0.00    +0.000 A 
ATOM     29  C   UNL     1       1.405   7.623  20.231  0.00  0.00    +0.000 A 
ATOM     30  C   UNL     1       1.337   8.848  19.531  0.00  0.00    +0.000 A 
ATOM     31  C   UNL     1       2.137   9.024  18.397  0.00  0.00    +0.000 A 
ATOM     32  C   UNL     1       2.938   7.999  17.895  0.00  0.00    +0.000 A 
ATOM     33  C   UNL     1       2.921   6.763  18.553  0.00  0.00    +0.000 A 
BRANCH  21  35
ATOM     34  C   UNL     1       5.655   5.600  16.967  0.00  0.00    +0.000 C 
ATOM     35  C   UNL     1       4.166   5.314  16.939  0.00  0.00    +0.000 C 
ENDBRANCH  21  35
ENDBRANCH  20  30
ENDBRANCH   1  20
TORSDOF 4
ENDMDL
MODEL 6
REMARK VINA RESULT:      -8.2      1.547      1.780
REMARK  Name = 
REMARK  6 active torsions:
REMARK  status: ('A' for Active; 'I' for Inactive)
REMARK    1  A    between atoms: C_1  and  C_2
REMARK    2  A    between atoms: C_2  and  N_3
REMARK    3  A    between atoms: C_12  and  C_13
REMARK    4  A    between atoms: C_13  and  N_14
REMARK    5  A    between atoms: C_27  and  N_28
REMARK    6  A    between atoms: C_29  and  C_30
REMARK                            x       y       z     vdW  Elec       q    Type
REMARK                         _______ _______ _______ _____ _____    ______ ____
ROOT
ATOM      1  N   UNL     1       0.398   9.855  19.513  0.00  0.00    +0.000 NA
ATOM      2  C   UNL     1       0.747   9.938  20.931  0.00  0.00    +0.000 C 
ATOM      3  C   UNL     1       1.184  11.328  21.407  0.00  0.00    +0.000 C 
ATOM      4  C   UNL     1       0.274  12.500  20.953  0.00  0.00    +0.000 C 
ATOM      5  C   UNL     1      -0.234  12.285  19.505  0.00  0.00    +0.000 C 
ATOM      6  C   UNL     1      -0.609  10.849  19.154  0.00  0.00    +0.000 C 
ATOM      7  C   UNL     1      -0.874  12.702  21.936  0.00  0.00    +0.000 A 
ATOM      8  C   UNL     1      -1.914  11.833  22.241  0.00  0.00    +0.000 A 
ATOM      9  C   UNL     1      -2.852  12.186  23.220  0.00  0.00    +0.000 A 
ATOM     10  C   UNL     1      -2.746  13.407  23.893  0.00  0.00    +0.000 A 
ATOM     11  C   UNL     1      -1.704  14.281  23.593  0.00  0.00    +0.000 A 
ATOM     12  C   UNL     1      -0.785  13.919  22.617  0.00  0.00    +0.000 A 
ATOM     13  C   UNL     1       0.397  14.727  22.209  0.00  0.00    +0.000 C 
ATOM     14  C   UNL     1       1.074  13.871  21.119  0.00  0.00    +0.000 C 
ENDROOT
BRANCH  14  15
ATOM     15  N   UNL     1       1.224  14.654  19.888  0.00  0.00    +0.000 N 
ATOM     16  C   UNL     1       2.440  15.186  19.511  0.00  0.00    +0.000 C 
ATOM     17  C   UNL     1       2.431  15.873  18.174  0.00  0.00    +0.000 C 
ATOM     18  O   UNL     1       3.457  15.100  20.191  0.00  0.00    +0.000 OA
ATOM     19  H   UNL     1       0.500  14.567  19.188  0.00  0.00    +0.000 HD
ENDBRANCH  14  15
BRANCH   1  20
ATOM     20  C   UNL     1       1.567   9.807  18.613  0.00  0.00    +0.000 C 
BRANCH  20  30
ATOM     21  N   UNL     1       4.135   4.745  18.563  0.00  0.00    +0.000 N 
ATOM     22  C   UNL     1       4.857   4.761  17.390  0.00  0.00    +0.000 A 
ATOM     23  C   UNL     1       5.747   3.816  16.848  0.00  0.00    +0.000 A 
ATOM     24  C   UNL     1       6.346   4.100  15.620  0.00  0.00    +0.000 A 
ATOM     25  C   UNL     1       6.071   5.288  14.954  0.00  0.00    +0.000 A 
ATOM     26  C   UNL     1       5.198   6.235  15.513  0.00  0.00    +0.000 A 
ATOM     27  C   UNL     1       4.574   5.975  16.754  0.00  0.00    +0.000 A 
ATOM     28  C   UNL     1       3.660   6.706  17.594  0.00  0.00    +0.000 A 
ATOM     29  C   UNL     1       3.061   7.996  17.546  0.00  0.00    +0.000 A 
ATOM     30  C   UNL     1       2.181   8.412  18.570  0.00  0.00    +0.000 A 
ATOM     31  C   UNL     1       1.843   7.504  19.580  0.00  0.00    +0.000 A 
ATOM     32  C   UNL     1       2.407   6.232  19.646  0.00  0.00    +0.000 A 
ATOM     33  C   UNL     1       3.346   5.874  18.671  0.00  0.00    +0.000 A 
BRANCH  21  35
ATOM     34  C   UNL     1       3.310   2.568  19.412  0.00  0.00    +0.000 C 
ATOM     35  C   UNL     1       4.254   3.738  19.604  0.00  0.00    +0.000 C 
ENDBRANCH  21  35
ENDBRANCH  20  30
ENDBRANCH   1  20
TORSDOF 4
ENDMDL
MODEL 7
REMARK VINA RESULT:      -8.2      2.431      4.241
REMARK  Name = 
REMARK  6 active torsions:
REMARK  status: ('A' for Active; 'I' for Inactive)
REMARK    1  A    between atoms: C_1  and  C_2
REMARK    2  A    between atoms: C_2  and  N_3
REMARK    3  A    between atoms: C_12  and  C_13
REMARK    4  A    between atoms: C_13  and  N_14
REMARK    5  A    between atoms: C_27  and  N_28
REMARK    6  A    between atoms: C_29  and  C_30
REMARK                            x       y       z     vdW  Elec       q    Type
REMARK                         _______ _______ _______ _____ _____    ______ ____
ROOT
ATOM      1  N   UNL     1       1.189  10.229  19.791  0.00  0.00    +0.000 NA
ATOM      2  C   UNL     1       1.115  11.681  19.960  0.00  0.00    +0.000 C 
ATOM      3  C   UNL     1      -0.172  12.325  19.431  0.00  0.00    +0.000 C 
ATOM      4  C   UNL     1      -1.487  11.614  19.845  0.00  0.00    +0.000 C 
ATOM      5  C   UNL     1      -1.316  10.074  19.839  0.00  0.00    +0.000 C 
ATOM      6  C   UNL     1       0.022   9.566  20.365  0.00  0.00    +0.000 C 
ATOM      7  C   UNL     1      -1.976  12.129  21.194  0.00  0.00    +0.000 A 
ATOM      8  C   UNL     1      -1.363  12.015  22.436  0.00  0.00    +0.000 A 
ATOM      9  C   UNL     1      -1.955  12.605  23.561  0.00  0.00    +0.000 A 
ATOM     10  C   UNL     1      -3.156  13.311  23.440  0.00  0.00    +0.000 A 
ATOM     11  C   UNL     1      -3.773  13.431  22.197  0.00  0.00    +0.000 A 
ATOM     12  C   UNL     1      -3.178  12.835  21.093  0.00  0.00    +0.000 A 
ATOM     13  C   UNL     1      -3.695  12.902  19.698  0.00  0.00    +0.000 C 
ATOM     14  C   UNL     1      -2.663  12.098  18.880  0.00  0.00    +0.000 C 
ENDROOT
BRANCH  14  15
ATOM     15  N   UNL     1      -3.337  11.028  18.138  0.00  0.00    +0.000 N 
ATOM     16  C   UNL     1      -3.047  10.771  16.814  0.00  0.00    +0.000 C 
ATOM     17  C   UNL     1      -3.759   9.576  16.242  0.00  0.00    +0.000 C 
ATOM     18  O   UNL     1      -2.265  11.441  16.149  0.00  0.00    +0.000 OA
ATOM     19  H   UNL     1      -3.806  10.311  18.675  0.00  0.00    +0.000 HD
ENDBRANCH  14  15
BRANCH   1  20
ATOM     20  C   UNL     1       1.528   9.804  18.418  0.00  0.00    +0.000 C 
BRANCH  20  30
ATOM     21  N   UNL     1       4.181   4.789  18.268  0.00  0.00    +0.000 N 
ATOM     22  C   UNL     1       3.649   4.110  19.341  0.00  0.00    +0.000 A 
ATOM     23  C   UNL     1       3.862   2.794  19.791  0.00  0.00    +0.000 A 
ATOM     24  C   UNL     1       3.176   2.364  20.928  0.00  0.00    +0.000 A 
ATOM     25  C   UNL     1       2.304   3.217  21.595  0.00  0.00    +0.000 A 
ATOM     26  C   UNL     1       2.082   4.521  21.127  0.00  0.00    +0.000 A 
ATOM     27  C   UNL     1       2.764   4.986  19.979  0.00  0.00    +0.000 A 
ATOM     28  C   UNL     1       2.767   6.223  19.242  0.00  0.00    +0.000 A 
ATOM     29  C   UNL     1       2.053   7.452  19.334  0.00  0.00    +0.000 A 
ATOM     30  C   UNL     1       2.310   8.495  18.417  0.00  0.00    +0.000 A 
ATOM     31  C   UNL     1       3.336   8.334  17.478  0.00  0.00    +0.000 A 
ATOM     32  C   UNL     1       4.056   7.145  17.373  0.00  0.00    +0.000 A 
ATOM     33  C   UNL     1       3.723   6.091  18.233  0.00  0.00    +0.000 A 
BRANCH  21  35
ATOM     34  C   UNL     1       6.507   4.442  17.483  0.00  0.00    +0.000 C 
ATOM     35  C   UNL     1       5.029   4.200  17.244  0.00  0.00    +0.000 C 
ENDBRANCH  21  35
ENDBRANCH  20  30
ENDBRANCH   1  20
TORSDOF 4
ENDMDL
MODEL 8
REMARK VINA RESULT:      -8.0      2.374      3.541
REMARK  Name = 
REMARK  6 active torsions:
REMARK  status: ('A' for Active; 'I' for Inactive)
REMARK    1  A    between atoms: C_1  and  C_2
REMARK    2  A    between atoms: C_2  and  N_3
REMARK    3  A    between atoms: C_12  and  C_13
REMARK    4  A    between atoms: C_13  and  N_14
REMARK    5  A    between atoms: C_27  and  N_28
REMARK    6  A    between atoms: C_29  and  C_30
REMARK                            x       y       z     vdW  Elec       q    Type
REMARK                         _______ _______ _______ _____ _____    ______ ____
ROOT
ATOM      1  N   UNL     1       1.400  10.249  19.756  0.00  0.00    +0.000 NA
ATOM      2  C   UNL     1       1.305  11.701  19.900  0.00  0.00    +0.000 C 
ATOM      3  C   UNL     1      -0.003  12.314  19.386  0.00  0.00    +0.000 C 
ATOM      4  C   UNL     1      -1.297  11.589  19.840  0.00  0.00    +0.000 C 
ATOM      5  C   UNL     1      -1.101  10.053  19.858  0.00  0.00    +0.000 C 
ATOM      6  C   UNL     1       0.257   9.577  20.366  0.00  0.00    +0.000 C 
ATOM      7  C   UNL     1      -1.767  12.121  21.190  0.00  0.00    +0.000 A 
ATOM      8  C   UNL     1      -1.128  12.039  22.421  0.00  0.00    +0.000 A 
ATOM      9  C   UNL     1      -1.706  12.640  23.547  0.00  0.00    +0.000 A 
ATOM     10  C   UNL     1      -2.921  13.324  23.439  0.00  0.00    +0.000 A 
ATOM     11  C   UNL     1      -3.565  13.410  22.206  0.00  0.00    +0.000 A 
ATOM     12  C   UNL     1      -2.982  12.805  21.101  0.00  0.00    +0.000 A 
ATOM     13  C   UNL     1      -3.529  12.837  19.716  0.00  0.00    +0.000 C 
ATOM     14  C   UNL     1      -2.501  12.036  18.892  0.00  0.00    +0.000 C 
ENDROOT
BRANCH  14  15
ATOM     15  N   UNL     1      -3.171  10.941  18.183  0.00  0.00    +0.000 N 
ATOM     16  C   UNL     1      -2.983  10.730  16.833  0.00  0.00    +0.000 C 
ATOM     17  C   UNL     1      -3.669   9.505  16.294  0.00  0.00    +0.000 C 
ATOM     18  O   UNL     1      -2.304  11.461  16.120  0.00  0.00    +0.000 OA
ATOM     19  H   UNL     1      -3.548  10.186  18.740  0.00  0.00    +0.000 HD
ENDBRANCH  14  15
BRANCH   1  20
ATOM     20  C   UNL     1       1.718   9.804  18.384  0.00  0.00    +0.000 C 
BRANCH  20  30
ATOM     21  N   UNL     1       4.379   4.791  18.461  0.00  0.00    +0.000 N 
ATOM     22  C   UNL     1       5.059   4.768  17.263  0.00  0.00    +0.000 A 
ATOM     23  C   UNL     1       5.947   3.816  16.731  0.00  0.00    +0.000 A 
ATOM     24  C   UNL     1       6.497   4.056  15.471  0.00  0.00    +0.000 A 
ATOM     25  C   UNL     1       6.176   5.209  14.765  0.00  0.00    +0.000 A 
ATOM     26  C   UNL     1       5.306   6.164  15.313  0.00  0.00    +0.000 A 
ATOM     27  C   UNL     1       4.730   5.948  16.586  0.00  0.00    +0.000 A 
ATOM     28  C   UNL     1       3.833   6.698  17.426  0.00  0.00    +0.000 A 
ATOM     29  C   UNL     1       3.208   7.975  17.344  0.00  0.00    +0.000 A 
ATOM     30  C   UNL     1       2.357   8.420  18.380  0.00  0.00    +0.000 A 
ATOM     31  C   UNL     1       2.071   7.551  19.440  0.00  0.00    +0.000 A 
ATOM     32  C   UNL     1       2.662   6.293  19.540  0.00  0.00    +0.000 A 
ATOM     33  C   UNL     1       3.573   5.909  18.548  0.00  0.00    +0.000 A 
BRANCH  21  35
ATOM     34  C   UNL     1       3.640   2.628  19.421  0.00  0.00    +0.000 C 
ATOM     35  C   UNL     1       4.554   3.832  19.539  0.00  0.00    +0.000 C 
ENDBRANCH  21  35
ENDBRANCH  20  30
ENDBRANCH   1  20
TORSDOF 4
ENDMDL
MODEL 9
REMARK VINA RESULT:      -8.0      1.285      2.786
REMARK  Name = 
REMARK  6 active torsions:
REMARK  status: ('A' for Active; 'I' for Inactive)
REMARK    1  A    between atoms: C_1  and  C_2
REMARK    2  A    between atoms: C_2  and  N_3
REMARK    3  A    between atoms: C_12  and  C_13
REMARK    4  A    between atoms: C_13  and  N_14
REMARK    5  A    between atoms: C_27  and  N_28
REMARK    6  A    between atoms: C_29  and  C_30
REMARK                            x       y       z     vdW  Elec       q    Type
REMARK                         _______ _______ _______ _____ _____    ______ ____
ROOT
ATOM      1  N   UNL     1       0.012  10.102  19.038  0.00  0.00    +0.000 NA
ATOM      2  C   UNL     1      -0.819   9.993  20.238  0.00  0.00    +0.000 C 
ATOM      3  C   UNL     1      -0.924  11.278  21.066  0.00  0.00    +0.000 C 
ATOM      4  C   UNL     1      -1.225  12.566  20.254  0.00  0.00    +0.000 C 
ATOM      5  C   UNL     1      -0.474  12.561  18.899  0.00  0.00    +0.000 C 
ATOM      6  C   UNL     1      -0.419  11.211  18.192  0.00  0.00    +0.000 C 
ATOM      7  C   UNL     1      -2.728  12.751  20.074  0.00  0.00    +0.000 A 
ATOM      8  C   UNL     1      -3.620  11.942  19.381  0.00  0.00    +0.000 A 
ATOM      9  C   UNL     1      -4.985  12.259  19.374  0.00  0.00    +0.000 A 
ATOM     10  C   UNL     1      -5.455  13.382  20.063  0.00  0.00    +0.000 A 
ATOM     11  C   UNL     1      -4.564  14.194  20.761  0.00  0.00    +0.000 A 
ATOM     12  C   UNL     1      -3.214  13.870  20.754  0.00  0.00    +0.000 A 
ATOM     13  C   UNL     1      -2.148  14.618  21.476  0.00  0.00    +0.000 C 
ATOM     14  C   UNL     1      -0.859  13.838  21.146  0.00  0.00    +0.000 C 
ENDROOT
BRANCH  14  15
ATOM     15  N   UNL     1       0.137  14.741  20.560  0.00  0.00    +0.000 N 
ATOM     16  C   UNL     1       1.413  14.845  21.073  0.00  0.00    +0.000 C 
ATOM     17  C   UNL     1       2.329  15.742  20.288  0.00  0.00    +0.000 C 
ATOM     18  O   UNL     1       1.791  14.249  22.076  0.00  0.00    +0.000 OA
ATOM     19  H   UNL     1      -0.032  15.075  19.620  0.00  0.00    +0.000 HD
ENDBRANCH  14  15
BRANCH   1  20
ATOM     20  C   UNL     1       1.462  10.059  19.310  0.00  0.00    +0.000 C 
BRANCH  20  30
ATOM     21  N   UNL     1       3.338   4.847  18.071  0.00  0.00    +0.000 N 
ATOM     22  C   UNL     1       3.025   4.116  19.196  0.00  0.00    +0.000 A 
ATOM     23  C   UNL     1       3.183   2.745  19.472  0.00  0.00    +0.000 A 
ATOM     24  C   UNL     1       2.771   2.270  20.717  0.00  0.00    +0.000 A 
ATOM     25  C   UNL     1       2.218   3.130  21.658  0.00  0.00    +0.000 A 
ATOM     26  C   UNL     1       2.045   4.492  21.366  0.00  0.00    +0.000 A 
ATOM     27  C   UNL     1       2.454   5.004  20.114  0.00  0.00    +0.000 A 
ATOM     28  C   UNL     1       2.418   6.305  19.497  0.00  0.00    +0.000 A 
ATOM     29  C   UNL     1       1.912   7.583  19.871  0.00  0.00    +0.000 A 
ATOM     30  C   UNL     1       2.048   8.686  18.998  0.00  0.00    +0.000 A 
ATOM     31  C   UNL     1       2.763   8.521  17.807  0.00  0.00    +0.000 A 
ATOM     32  C   UNL     1       3.277   7.284  17.421  0.00  0.00    +0.000 A 
ATOM     33  C   UNL     1       3.052   6.185  18.259  0.00  0.00    +0.000 A 
BRANCH  21  35
ATOM     34  C   UNL     1       5.312   4.376  16.648  0.00  0.00    +0.000 C 
ATOM     35  C   UNL     1       3.808   4.287  16.815  0.00  0.00    +0.000 C 
ENDBRANCH  21  35
ENDBRANCH  20  30
ENDBRANCH   1  20
TORSDOF 4
ENDMDL
