MODEL 1
REMARK VINA RESULT:      -6.6      0.000      0.000
REMARK  Name = 
REMARK  4 active torsions:
REMARK  status: ('A' for Active; 'I' for Inactive)
REMARK    1  A    between atoms: C_1  and  O_2
REMARK    2  A    between atoms: O_2  and  C_3
REMARK    3  A    between atoms: C_11  and  C_12
REMARK    4  A    between atoms: C_12  and  N_13
REMARK                            x       y       z     vdW  Elec       q    Type
REMARK                         _______ _______ _______ _____ _____    ______ ____
ROOT
ATOM      1  C   UNL     1       5.907   4.250  14.868  0.00  0.00    +0.000 A 
ATOM      2  C   UNL     1       7.146   4.901  14.836  0.00  0.00    +0.000 A 
ATOM      3  C   UNL     1       7.665   5.516  15.987  0.00  0.00    +0.000 A 
ATOM      4  C   UNL     1       6.948   5.501  17.183  0.00  0.00    +0.000 A 
ATOM      5 CL   UNL     1       7.657   6.223  18.571  0.00  0.00    +0.000 Cl
ATOM      6  C   UNL     1       5.708   4.886  17.188  0.00  0.00    +0.000 A 
ATOM      7  C   UNL     1       5.175   4.263  16.053  0.00  0.00    +0.000 A 
ATOM      8  C   UNL     1       3.807   3.697  16.309  0.00  0.00    +0.000 C 
ATOM      9  C   UNL     1       3.619   3.812  17.839  0.00  0.00    +0.000 C 
ATOM     10  C   UNL     1       4.747   4.719  18.275  0.00  0.00    +0.000 C 
ATOM     11  O   UNL     1       4.863   5.213  19.382  0.00  0.00    +0.000 OA
ENDROOT
BRANCH   1  13
ATOM     12  C   UNL     1       6.136   3.584  12.608  0.00  0.00    +0.000 C 
ATOM     13  O   UNL     1       5.344   3.613  13.796  0.00  0.00    +0.000 OA
ENDBRANCH   1  13
BRANCH   9  14
ATOM     14  C   UNL     1       2.269   4.376  18.323  0.00  0.00    +0.000 C 
BRANCH  14  15
ATOM     15  N   UNL     1       1.507   3.513  19.236  0.00  0.00    +0.000 NA
ATOM     16  C   UNL     1       1.125   4.227  20.482  0.00  0.00    +0.000 C 
ATOM     17  C   UNL     1       2.172   4.222  21.617  0.00  0.00    +0.000 C 
ATOM     18  O   UNL     1       2.657   2.904  21.890  0.00  0.00    +0.000 OA
ATOM     19  C   UNL     1       3.223   2.342  20.703  0.00  0.00    +0.000 C 
ATOM     20  C   UNL     1       2.165   2.240  19.595  0.00  0.00    +0.000 C 
ENDBRANCH  14  15
ENDBRANCH   9  14
TORSDOF 3
ENDMDL
MODEL 2
REMARK VINA RESULT:      -6.6      2.940      6.461
REMARK  Name = 
REMARK  4 active torsions:
REMARK  status: ('A' for Active; 'I' for Inactive)
REMARK    1  A    between atoms: C_1  and  O_2
REMARK    2  A    between atoms: O_2  and  C_3
REMARK    3  A    between atoms: C_11  and  C_12
REMARK    4  A    between atoms: C_12  and  N_13
REMARK                            x       y       z     vdW  Elec       q    Type
REMARK                         _______ _______ _______ _____ _____    ______ ____
ROOT
ATOM      1  C   UNL     1       1.798   5.694  20.413  0.00  0.00    +0.000 A 
ATOM      2  C   UNL     1       0.889   4.655  20.651  0.00  0.00    +0.000 A 
ATOM      3  C   UNL     1       0.923   3.480  19.883  0.00  0.00    +0.000 A 
ATOM      4  C   UNL     1       1.857   3.329  18.860  0.00  0.00    +0.000 A 
ATOM      5 CL   UNL     1       1.887   1.848  17.990  0.00  0.00    +0.000 Cl
ATOM      6  C   UNL     1       2.724   4.379  18.612  0.00  0.00    +0.000 A 
ATOM      7  C   UNL     1       2.709   5.558  19.369  0.00  0.00    +0.000 A 
ATOM      8  C   UNL     1       3.726   6.553  18.884  0.00  0.00    +0.000 C 
ATOM      9  C   UNL     1       4.583   5.768  17.866  0.00  0.00    +0.000 C 
ATOM     10  C   UNL     1       3.789   4.506  17.621  0.00  0.00    +0.000 C 
ATOM     11  O   UNL     1       4.020   3.689  16.747  0.00  0.00    +0.000 OA
ENDROOT
BRANCH   1  13
ATOM     12  C   UNL     1       1.061   7.935  20.603  0.00  0.00    +0.000 C 
ATOM     13  O   UNL     1       1.840   6.859  21.128  0.00  0.00    +0.000 OA
ENDBRANCH   1  13
BRANCH   9  14
ATOM     14  C   UNL     1       4.878   6.476  16.529  0.00  0.00    +0.000 C 
BRANCH  14  15
ATOM     15  N   UNL     1       6.294   6.538  16.139  0.00  0.00    +0.000 NA
ATOM     16  C   UNL     1       6.651   5.460  15.181  0.00  0.00    +0.000 C 
ATOM     17  C   UNL     1       7.053   4.104  15.801  0.00  0.00    +0.000 C 
ATOM     18  O   UNL     1       8.046   4.256  16.819  0.00  0.00    +0.000 OA
ATOM     19  C   UNL     1       7.561   5.134  17.839  0.00  0.00    +0.000 C 
ATOM     20  C   UNL     1       7.257   6.522  17.259  0.00  0.00    +0.000 C 
ENDBRANCH  14  15
ENDBRANCH   9  14
TORSDOF 3
ENDMDL
MODEL 3
REMARK VINA RESULT:      -6.5      3.097      6.284
REMARK  Name = 
REMARK  4 active torsions:
REMARK  status: ('A' for Active; 'I' for Inactive)
REMARK    1  A    between atoms: C_1  and  O_2
REMARK    2  A    between atoms: O_2  and  C_3
REMARK    3  A    between atoms: C_11  and  C_12
REMARK    4  A    between atoms: C_12  and  N_13
REMARK                            x       y       z     vdW  Elec       q    Type
REMARK                         _______ _______ _______ _____ _____    ______ ____
ROOT
ATOM      1  C   UNL     1       2.270   7.777  19.009  0.00  0.00    +0.000 A 
ATOM      2  C   UNL     1       1.462   7.710  20.150  0.00  0.00    +0.000 A 
ATOM      3  C   UNL     1       1.408   6.541  20.927  0.00  0.00    +0.000 A 
ATOM      4  C   UNL     1       2.150   5.418  20.568  0.00  0.00    +0.000 A 
ATOM      5 CL   UNL     1       2.087   4.035  21.585  0.00  0.00    +0.000 Cl
ATOM      6  C   UNL     1       2.915   5.486  19.416  0.00  0.00    +0.000 A 
ATOM      7  C   UNL     1       2.986   6.643  18.631  0.00  0.00    +0.000 A 
ATOM      8  C   UNL     1       3.859   6.453  17.422  0.00  0.00    +0.000 C 
ATOM      9  C   UNL     1       4.553   5.093  17.654  0.00  0.00    +0.000 C 
ATOM     10  C   UNL     1       3.781   4.483  18.802  0.00  0.00    +0.000 C 
ATOM     11  O   UNL     1       3.887   3.333  19.187  0.00  0.00    +0.000 OA
ENDROOT
BRANCH   1  13
ATOM     12  C   UNL     1       1.321   9.825  18.300  0.00  0.00    +0.000 C 
ATOM     13  O   UNL     1       2.390   8.882  18.213  0.00  0.00    +0.000 OA
ENDBRANCH   1  13
BRANCH   9  14
ATOM     14  C   UNL     1       4.577   4.122  16.458  0.00  0.00    +0.000 C 
BRANCH  14  15
ATOM     15  N   UNL     1       5.905   3.641  16.052  0.00  0.00    +0.000 NA
ATOM     16  C   UNL     1       6.994   4.352  16.772  0.00  0.00    +0.000 C 
ATOM     17  C   UNL     1       7.468   5.682  16.147  0.00  0.00    +0.000 C 
ATOM     18  O   UNL     1       7.758   5.543  14.753  0.00  0.00    +0.000 OA
ATOM     19  C   UNL     1       6.599   5.066  14.063  0.00  0.00    +0.000 C 
ATOM     20  C   UNL     1       6.177   3.691  14.600  0.00  0.00    +0.000 C 
ENDBRANCH  14  15
ENDBRANCH   9  14
TORSDOF 3
ENDMDL
MODEL 4
REMARK VINA RESULT:      -6.3      3.787      5.876
REMARK  Name = 
REMARK  4 active torsions:
REMARK  status: ('A' for Active; 'I' for Inactive)
REMARK    1  A    between atoms: C_1  and  O_2
REMARK    2  A    between atoms: O_2  and  C_3
REMARK    3  A    between atoms: C_11  and  C_12
REMARK    4  A    between atoms: C_12  and  N_13
REMARK                            x       y       z     vdW  Elec       q    Type
REMARK                         _______ _______ _______ _____ _____    ______ ____
ROOT
ATOM      1  C   UNL     1       2.046   3.115  19.388  0.00  0.00    +0.000 A 
ATOM      2  C   UNL     1       2.689   2.069  18.714  0.00  0.00    +0.000 A 
ATOM      3  C   UNL     1       3.661   2.335  17.735  0.00  0.00    +0.000 A 
ATOM      4  C   UNL     1       3.996   3.647  17.407  0.00  0.00    +0.000 A 
ATOM      5 CL   UNL     1       5.231   3.910  16.242  0.00  0.00    +0.000 Cl
ATOM      6  C   UNL     1       3.326   4.670  18.055  0.00  0.00    +0.000 A 
ATOM      7  C   UNL     1       2.357   4.426  19.037  0.00  0.00    +0.000 A 
ATOM      8  C   UNL     1       1.758   5.699  19.566  0.00  0.00    +0.000 C 
ATOM      9  C   UNL     1       2.645   6.820  18.980  0.00  0.00    +0.000 C 
ATOM     10  C   UNL     1       3.462   6.117  17.920  0.00  0.00    +0.000 C 
ATOM     11  O   UNL     1       4.164   6.670  17.093  0.00  0.00    +0.000 OA
ENDROOT
BRANCH   1  13
ATOM     12  C   UNL     1       1.612   2.648  21.667  0.00  0.00    +0.000 C 
ATOM     13  O   UNL     1       1.105   2.939  20.364  0.00  0.00    +0.000 OA
ENDBRANCH   1  13
BRANCH   9  14
ATOM     14  C   UNL     1       1.908   8.026  18.365  0.00  0.00    +0.000 C 
BRANCH  14  15
ATOM     15  N   UNL     1       1.921   9.258  19.168  0.00  0.00    +0.000 NA
ATOM     16  C   UNL     1       1.339   9.044  20.518  0.00  0.00    +0.000 C 
ATOM     17  C   UNL     1      -0.194   9.186  20.629  0.00  0.00    +0.000 C 
ATOM     18  O   UNL     1      -0.661  10.402  20.038  0.00  0.00    +0.000 OA
ATOM     19  C   UNL     1      -0.265  10.456  18.665  0.00  0.00    +0.000 C 
ATOM     20  C   UNL     1       1.265  10.424  18.541  0.00  0.00    +0.000 C 
ENDBRANCH  14  15
ENDBRANCH   9  14
TORSDOF 3
ENDMDL
MODEL 5
REMARK VINA RESULT:      -6.2      4.115      6.163
REMARK  Name = 
REMARK  4 active torsions:
REMARK  status: ('A' for Active; 'I' for Inactive)
REMARK    1  A    between atoms: C_1  and  O_2
REMARK    2  A    between atoms: O_2  and  C_3
REMARK    3  A    between atoms: C_11  and  C_12
REMARK    4  A    between atoms: C_12  and  N_13
REMARK                            x       y       z     vdW  Elec       q    Type
REMARK                         _______ _______ _______ _____ _____    ______ ____
ROOT
ATOM      1  C   UNL     1       1.766   3.474  19.510  0.00  0.00    +0.000 A 
ATOM      2  C   UNL     1       2.351   2.720  18.485  0.00  0.00    +0.000 A 
ATOM      3  C   UNL     1       3.154   3.334  17.509  0.00  0.00    +0.000 A 
ATOM      4  C   UNL     1       3.375   4.709  17.537  0.00  0.00    +0.000 A 
ATOM      5 CL   UNL     1       4.410   5.396  16.350  0.00  0.00    +0.000 Cl
ATOM      6  C   UNL     1       2.760   5.446  18.534  0.00  0.00    +0.000 A 
ATOM      7  C   UNL     1       1.960   4.853  19.518  0.00  0.00    +0.000 A 
ATOM      8  C   UNL     1       1.385   5.868  20.467  0.00  0.00    +0.000 C 
ATOM      9  C   UNL     1       2.122   7.182  20.122  0.00  0.00    +0.000 C 
ATOM     10  C   UNL     1       2.807   6.879  18.809  0.00  0.00    +0.000 C 
ATOM     11  O   UNL     1       3.352   7.702  18.095  0.00  0.00    +0.000 OA
ENDROOT
BRANCH   1  13
ATOM     12  C   UNL     1       1.691   2.475  21.654  0.00  0.00    +0.000 C 
ATOM     13  O   UNL     1       0.988   2.948  20.505  0.00  0.00    +0.000 OA
ENDBRANCH   1  13
BRANCH   9  14
ATOM     14  C   UNL     1       1.247   8.443  19.984  0.00  0.00    +0.000 C 
BRANCH  14  15
ATOM     15  N   UNL     1       1.480   9.494  20.985  0.00  0.00    +0.000 NA
ATOM     16  C   UNL     1       1.067   9.062  22.346  0.00  0.00    +0.000 C 
ATOM     17  C   UNL     1      -0.419   9.278  22.708  0.00  0.00    +0.000 C 
ATOM     18  O   UNL     1      -0.848  10.612  22.423  0.00  0.00    +0.000 OA
ATOM     19  C   UNL     1      -0.636  10.904  21.039  0.00  0.00    +0.000 C 
ATOM     20  C   UNL     1       0.854  10.798  20.685  0.00  0.00    +0.000 C 
ENDBRANCH  14  15
ENDBRANCH   9  14
TORSDOF 3
ENDMDL
MODEL 6
REMARK VINA RESULT:      -6.1      3.624      6.644
REMARK  Name = 
REMARK  4 active torsions:
REMARK  status: ('A' for Active; 'I' for Inactive)
REMARK    1  A    between atoms: C_1  and  O_2
REMARK    2  A    between atoms: O_2  and  C_3
REMARK    3  A    between atoms: C_11  and  C_12
REMARK    4  A    between atoms: C_12  and  N_13
REMARK                            x       y       z     vdW  Elec       q    Type
REMARK                         _______ _______ _______ _____ _____    ______ ____
ROOT
ATOM      1  C   UNL     1       1.446   8.642  19.572  0.00  0.00    +0.000 A 
ATOM      2  C   UNL     1       0.701   8.147  20.650  0.00  0.00    +0.000 A 
ATOM      3  C   UNL     1       0.946   6.863  21.164  0.00  0.00    +0.000 A 
ATOM      4  C   UNL     1       1.928   6.050  20.602  0.00  0.00    +0.000 A 
ATOM      5 CL   UNL     1       2.219   4.511  21.306  0.00  0.00    +0.000 Cl
ATOM      6  C   UNL     1       2.630   6.538  19.513  0.00  0.00    +0.000 A 
ATOM      7  C   UNL     1       2.405   7.817  18.989  0.00  0.00    +0.000 A 
ATOM      8  C   UNL     1       3.272   8.098  17.793  0.00  0.00    +0.000 C 
ATOM      9  C   UNL     1       4.277   6.925  17.758  0.00  0.00    +0.000 C 
ATOM     10  C   UNL     1       3.697   5.922  18.730  0.00  0.00    +0.000 C 
ATOM     11  O   UNL     1       4.084   4.776  18.870  0.00  0.00    +0.000 OA
ENDROOT
BRANCH   1  13
ATOM     12  C   UNL     1       0.032  10.113  18.373  0.00  0.00    +0.000 C 
ATOM     13  O   UNL     1       1.281   9.886  19.028  0.00  0.00    +0.000 OA
ENDBRANCH   1  13
BRANCH   9  14
ATOM     14  C   UNL     1       4.507   6.260  16.387  0.00  0.00    +0.000 C 
BRANCH  14  15
ATOM     15  N   UNL     1       5.870   6.366  15.847  0.00  0.00    +0.000 NA
ATOM     16  C   UNL     1       6.208   5.214  14.971  0.00  0.00    +0.000 C 
ATOM     17  C   UNL     1       6.765   3.960  15.680  0.00  0.00    +0.000 C 
ATOM     18  O   UNL     1       7.839   4.283  16.568  0.00  0.00    +0.000 OA
ATOM     19  C   UNL     1       7.394   5.234  17.539  0.00  0.00    +0.000 C 
ATOM     20  C   UNL     1       6.936   6.531  16.856  0.00  0.00    +0.000 C 
ENDBRANCH  14  15
ENDBRANCH   9  14
TORSDOF 3
ENDMDL
MODEL 7
REMARK VINA RESULT:      -6.1      4.073      5.066
REMARK  Name = 
REMARK  4 active torsions:
REMARK  status: ('A' for Active; 'I' for Inactive)
REMARK    1  A    between atoms: C_1  and  O_2
REMARK    2  A    between atoms: O_2  and  C_3
REMARK    3  A    between atoms: C_11  and  C_12
REMARK    4  A    between atoms: C_12  and  N_13
REMARK                            x       y       z     vdW  Elec       q    Type
REMARK                         _______ _______ _______ _____ _____    ______ ____
ROOT
ATOM      1  C   UNL     1       5.711   6.000  16.690  0.00  0.00    +0.000 A 
ATOM      2  C   UNL     1       6.102   4.684  16.414  0.00  0.00    +0.000 A 
ATOM      3  C   UNL     1       5.240   3.607  16.681  0.00  0.00    +0.000 A 
ATOM      4  C   UNL     1       3.982   3.828  17.238  0.00  0.00    +0.000 A 
ATOM      5 CL   UNL     1       2.950   2.479  17.491  0.00  0.00    +0.000 Cl
ATOM      6  C   UNL     1       3.625   5.131  17.540  0.00  0.00    +0.000 A 
ATOM      7  C   UNL     1       4.468   6.219  17.278  0.00  0.00    +0.000 A 
ATOM      8  C   UNL     1       3.864   7.521  17.723  0.00  0.00    +0.000 C 
ATOM      9  C   UNL     1       2.403   7.170  18.083  0.00  0.00    +0.000 C 
ATOM     10  C   UNL     1       2.394   5.658  18.121  0.00  0.00    +0.000 C 
ATOM     11  O   UNL     1       1.479   4.972  18.541  0.00  0.00    +0.000 OA
ENDROOT
BRANCH   1  13
ATOM     12  C   UNL     1       7.495   7.377  17.413  0.00  0.00    +0.000 C 
ATOM     13  O   UNL     1       6.485   7.101  16.443  0.00  0.00    +0.000 OA
ENDBRANCH   1  13
BRANCH   9  14
ATOM     14  C   UNL     1       1.869   7.736  19.413  0.00  0.00    +0.000 C 
BRANCH  14  15
ATOM     15  N   UNL     1       1.789   9.201  19.497  0.00  0.00    +0.000 NA
ATOM     16  C   UNL     1       1.013   9.645  20.683  0.00  0.00    +0.000 C 
ATOM     17  C   UNL     1      -0.518   9.738  20.499  0.00  0.00    +0.000 C 
ATOM     18  O   UNL     1      -0.870  10.480  19.328  0.00  0.00    +0.000 OA
ATOM     19  C   UNL     1      -0.277   9.876  18.176  0.00  0.00    +0.000 C 
ATOM     20  C   UNL     1       1.254   9.872  18.294  0.00  0.00    +0.000 C 
ENDBRANCH  14  15
ENDBRANCH   9  14
TORSDOF 3
ENDMDL
MODEL 8
REMARK VINA RESULT:      -6.1      4.228      5.193
REMARK  Name = 
REMARK  4 active torsions:
REMARK  status: ('A' for Active; 'I' for Inactive)
REMARK    1  A    between atoms: C_1  and  O_2
REMARK    2  A    between atoms: O_2  and  C_3
REMARK    3  A    between atoms: C_11  and  C_12
REMARK    4  A    between atoms: C_12  and  N_13
REMARK                            x       y       z     vdW  Elec       q    Type
REMARK                         _______ _______ _______ _____ _____    ______ ____
ROOT
ATOM      1  C   UNL     1       4.542   5.374  17.318  0.00  0.00    +0.000 A 
ATOM      2  C   UNL     1       5.036   4.086  17.563  0.00  0.00    +0.000 A 
ATOM      3  C   UNL     1       4.541   3.318  18.630  0.00  0.00    +0.000 A 
ATOM      4  C   UNL     1       3.556   3.827  19.473  0.00  0.00    +0.000 A 
ATOM      5 CL   UNL     1       2.951   2.821  20.727  0.00  0.00    +0.000 Cl
ATOM      6  C   UNL     1       3.104   5.115  19.241  0.00  0.00    +0.000 A 
ATOM      7  C   UNL     1       3.581   5.896  18.180  0.00  0.00    +0.000 A 
ATOM      8  C   UNL     1       2.957   7.263  18.161  0.00  0.00    +0.000 C 
ATOM      9  C   UNL     1       1.818   7.185  19.202  0.00  0.00    +0.000 C 
ATOM     10  C   UNL     1       2.097   5.900  19.948  0.00  0.00    +0.000 C 
ATOM     11  O   UNL     1       1.540   5.547  20.972  0.00  0.00    +0.000 OA
ENDROOT
BRANCH   1  13
ATOM     12  C   UNL     1       5.591   5.505  15.201  0.00  0.00    +0.000 C 
ATOM     13  O   UNL     1       4.958   6.175  16.291  0.00  0.00    +0.000 OA
ENDBRANCH   1  13
BRANCH   9  14
ATOM     14  C   UNL     1       1.714   8.360  20.193  0.00  0.00    +0.000 C 
BRANCH  14  15
ATOM     15  N   UNL     1       0.372   8.936  20.362  0.00  0.00    +0.000 NA
ATOM     16  C   UNL     1       0.355  10.392  20.065  0.00  0.00    +0.000 C 
ATOM     17  C   UNL     1       0.723  11.330  21.235  0.00  0.00    +0.000 C 
ATOM     18  O   UNL     1      -0.018  11.022  22.419  0.00  0.00    +0.000 OA
ATOM     19  C   UNL     1       0.212   9.662  22.794  0.00  0.00    +0.000 C 
ATOM     20  C   UNL     1      -0.249   8.708  21.683  0.00  0.00    +0.000 C 
ENDBRANCH  14  15
ENDBRANCH   9  14
TORSDOF 3
ENDMDL
MODEL 9
REMARK VINA RESULT:      -6.1      3.127      6.346
REMARK  Name = 
REMARK  4 active torsions:
REMARK  status: ('A' for Active; 'I' for Inactive)
REMARK    1  A    between atoms: C_1  and  O_2
REMARK    2  A    between atoms: O_2  and  C_3
REMARK    3  A    between atoms: C_11  and  C_12
REMARK    4  A    between atoms: C_12  and  N_13
REMARK                            x       y       z     vdW  Elec       q    Type
REMARK                         _______ _______ _______ _____ _____    ______ ____
ROOT
ATOM      1  C   UNL     1       2.095   5.905  20.140  0.00  0.00    +0.000 A 
ATOM      2  C   UNL     1       0.956   5.185  20.523  0.00  0.00    +0.000 A 
ATOM      3  C   UNL     1       0.796   3.841  20.147  0.00  0.00    +0.000 A 
ATOM      4  C   UNL     1       1.763   3.201  19.375  0.00  0.00    +0.000 A 
ATOM      5 CL   UNL     1       1.539   1.541  18.992  0.00  0.00    +0.000 Cl
ATOM      6  C   UNL     1       2.864   3.937  18.972  0.00  0.00    +0.000 A 
ATOM      7  C   UNL     1       3.045   5.276  19.340  0.00  0.00    +0.000 A 
ATOM      8  C   UNL     1       4.301   5.858  18.754  0.00  0.00    +0.000 C 
ATOM      9  C   UNL     1       5.051   4.644  18.159  0.00  0.00    +0.000 C 
ATOM     10  C   UNL     1       4.018   3.540  18.170  0.00  0.00    +0.000 C 
ATOM     11  O   UNL     1       4.139   2.460  17.621  0.00  0.00    +0.000 OA
ENDROOT
BRANCH   1  13
ATOM     12  C   UNL     1       1.707   8.188  19.650  0.00  0.00    +0.000 C 
ATOM     13  O   UNL     1       2.332   7.208  20.480  0.00  0.00    +0.000 OA
ENDBRANCH   1  13
BRANCH   9  14
ATOM     14  C   UNL     1       5.621   4.820  16.738  0.00  0.00    +0.000 C 
BRANCH  14  15
ATOM     15  N   UNL     1       7.060   5.109  16.660  0.00  0.00    +0.000 NA
ATOM     16  C   UNL     1       7.778   4.676  17.887  0.00  0.00    +0.000 C 
ATOM     17  C   UNL     1       7.808   5.690  19.052  0.00  0.00    +0.000 C 
ATOM     18  O   UNL     1       8.231   6.986  18.620  0.00  0.00    +0.000 OA
ATOM     19  C   UNL     1       7.365   7.458  17.585  0.00  0.00    +0.000 C 
ATOM     20  C   UNL     1       7.406   6.516  16.373  0.00  0.00    +0.000 C 
ENDBRANCH  14  15
ENDBRANCH   9  14
TORSDOF 3
ENDMDL
