MODEL 1
REMARK VINA RESULT:      -6.7      0.000      0.000
REMARK  Name = 
REMARK  7 active torsions:
REMARK  status: ('A' for Active; 'I' for Inactive)
REMARK    1  A    between atoms: C_1  and  O_2
REMARK    2  A    between atoms: O_2  and  C_3
REMARK    3  A    between atoms: C_8  and  O_9
REMARK    4  A    between atoms: C_12  and  S_13
REMARK    5  A    between atoms: N_14  and  C_15
REMARK    6  A    between atoms: C_15  and  C_16
REMARK    7  A    between atoms: C_16  and  C_17
REMARK                            x       y       z     vdW  Elec       q    Type
REMARK                         _______ _______ _______ _____ _____    ______ ____
ROOT
ATOM      1  C   UNL     1      -2.106  13.766  23.399  0.00  0.00    +0.000 A 
ATOM      2  C   UNL     1      -0.906  14.091  22.741  0.00  0.00    +0.000 A 
ATOM      3  C   UNL     1      -0.232  13.068  22.073  0.00  0.00    +0.000 A 
ATOM      4  C   UNL     1      -0.625  11.742  22.231  0.00  0.00    +0.000 A 
ATOM      5  C   UNL     1      -1.837  11.415  22.793  0.00  0.00    +0.000 A 
ATOM      6  C   UNL     1      -2.600  12.450  23.313  0.00  0.00    +0.000 A 
ATOM      7  C   UNL     1       0.388  10.829  21.638  0.00  0.00    +0.000 C 
ATOM      8  N   UNL     1       0.994  11.678  20.617  0.00  0.00    +0.000 N 
ATOM      9  C   UNL     1       1.303  11.109  19.393  0.00  0.00    +0.000 C 
ATOM     10  N   UNL     1       1.123   9.837  19.209  0.00  0.00    +0.000 NA
ATOM     11  C   UNL     1       0.858  13.105  21.012  0.00  0.00    +0.000 C 
ENDROOT
BRANCH   1  13
ATOM     12  C   UNL     1      -2.576  15.095  25.323  0.00  0.00    +0.000 C 
ATOM     13  O   UNL     1      -2.934  14.666  24.018  0.00  0.00    +0.000 OA
ENDBRANCH   1  13
BRANCH   6  14
ATOM     14  O   UNL     1      -3.883  12.169  23.701  0.00  0.00    +0.000 OA
ATOM     15  H   UNL     1      -3.985  12.530  24.596  0.00  0.00    +0.000 HD
ENDBRANCH   6  14
BRANCH   9  16
ATOM     16  S   UNL     1       1.960  12.151  18.140  0.00  0.00    +0.000 S 
ATOM     17  H   UNL     1       3.165  12.317  18.689  0.00  0.00    +0.000 HD
ENDBRANCH   9  16
BRANCH  10  18
ATOM     18  C   UNL     1       1.489   9.147  17.965  0.00  0.00    +0.000 C 
BRANCH  18  19
ATOM     19  C   UNL     1       2.687   8.195  18.174  0.00  0.00    +0.000 C 
BRANCH  19  20
ATOM     20  C   UNL     1       2.391   6.809  18.725  0.00  0.00    +0.000 A 
ATOM     21  C   UNL     1       2.091   6.629  20.085  0.00  0.00    +0.000 A 
ATOM     22  C   UNL     1       1.756   5.359  20.587  0.00  0.00    +0.000 A 
ATOM     23  C   UNL     1       1.716   4.271  19.721  0.00  0.00    +0.000 A 
ATOM     24 CL   UNL     1       1.297   2.716  20.330  0.00  0.00    +0.000 Cl
ATOM     25  C   UNL     1       2.002   4.428  18.371  0.00  0.00    +0.000 A 
ATOM     26  C   UNL     1       2.328   5.701  17.878  0.00  0.00    +0.000 A 
ENDBRANCH  19  20
ENDBRANCH  18  19
ENDBRANCH  10  18
TORSDOF 6
ENDMDL
MODEL 2
REMARK VINA RESULT:      -6.7      1.863      2.350
REMARK  Name = 
REMARK  7 active torsions:
REMARK  status: ('A' for Active; 'I' for Inactive)
REMARK    1  A    between atoms: C_1  and  O_2
REMARK    2  A    between atoms: O_2  and  C_3
REMARK    3  A    between atoms: C_8  and  O_9
REMARK    4  A    between atoms: C_12  and  S_13
REMARK    5  A    between atoms: N_14  and  C_15
REMARK    6  A    between atoms: C_15  and  C_16
REMARK    7  A    between atoms: C_16  and  C_17
REMARK                            x       y       z     vdW  Elec       q    Type
REMARK                         _______ _______ _______ _____ _____    ______ ____
ROOT
ATOM      1  C   UNL     1      -4.486  13.051  22.808  0.00  0.00    +0.000 A 
ATOM      2  C   UNL     1      -3.936  13.217  21.524  0.00  0.00    +0.000 A 
ATOM      3  C   UNL     1      -2.696  12.628  21.266  0.00  0.00    +0.000 A 
ATOM      4  C   UNL     1      -1.945  12.081  22.302  0.00  0.00    +0.000 A 
ATOM      5  C   UNL     1      -2.499  11.834  23.537  0.00  0.00    +0.000 A 
ATOM      6  C   UNL     1      -3.799  12.265  23.752  0.00  0.00    +0.000 A 
ATOM      7  C   UNL     1      -0.574  11.755  21.829  0.00  0.00    +0.000 C 
ATOM      8  N   UNL     1      -0.794  11.539  20.402  0.00  0.00    +0.000 N 
ATOM      9  C   UNL     1      -0.117  10.499  19.787  0.00  0.00    +0.000 C 
ATOM     10  N   UNL     1       0.742   9.800  20.462  0.00  0.00    +0.000 NA
ATOM     11  C   UNL     1      -1.983  12.313  19.960  0.00  0.00    +0.000 C 
ENDROOT
BRANCH   1  13
ATOM     12  C   UNL     1      -6.818  13.201  22.326  0.00  0.00    +0.000 C 
ATOM     13  O   UNL     1      -5.730  13.482  23.194  0.00  0.00    +0.000 OA
ENDBRANCH   1  13
BRANCH   6  14
ATOM     14  O   UNL     1      -4.428  11.860  24.900  0.00  0.00    +0.000 OA
ATOM     15  H   UNL     1      -4.558  10.903  24.819  0.00  0.00    +0.000 HD
ENDBRANCH   6  14
BRANCH   9  16
ATOM     16  S   UNL     1      -0.443  10.193  18.088  0.00  0.00    +0.000 S 
ATOM     17  H   UNL     1      -1.194  11.275  17.873  0.00  0.00    +0.000 HD
ENDBRANCH   9  16
BRANCH  10  18
ATOM     18  C   UNL     1       1.549   8.727  19.864  0.00  0.00    +0.000 C 
BRANCH  18  19
ATOM     19  C   UNL     1       1.570   7.467  20.757  0.00  0.00    +0.000 C 
BRANCH  19  20
ATOM     20  C   UNL     1       1.834   6.132  20.078  0.00  0.00    +0.000 A 
ATOM     21  C   UNL     1       1.410   4.932  20.671  0.00  0.00    +0.000 A 
ATOM     22  C   UNL     1       1.596   3.701  20.019  0.00  0.00    +0.000 A 
ATOM     23  C   UNL     1       2.201   3.676  18.766  0.00  0.00    +0.000 A 
ATOM     24 CL   UNL     1       2.422   2.171  17.959  0.00  0.00    +0.000 Cl
ATOM     25  C   UNL     1       2.621   4.852  18.158  0.00  0.00    +0.000 A 
ATOM     26  C   UNL     1       2.424   6.077  18.814  0.00  0.00    +0.000 A 
ENDBRANCH  19  20
ENDBRANCH  18  19
ENDBRANCH  10  18
TORSDOF 6
ENDMDL
MODEL 3
REMARK VINA RESULT:      -6.7      5.328      8.485
REMARK  Name = 
REMARK  7 active torsions:
REMARK  status: ('A' for Active; 'I' for Inactive)
REMARK    1  A    between atoms: C_1  and  O_2
REMARK    2  A    between atoms: O_2  and  C_3
REMARK    3  A    between atoms: C_8  and  O_9
REMARK    4  A    between atoms: C_12  and  S_13
REMARK    5  A    between atoms: N_14  and  C_15
REMARK    6  A    between atoms: C_15  and  C_16
REMARK    7  A    between atoms: C_16  and  C_17
REMARK                            x       y       z     vdW  Elec       q    Type
REMARK                         _______ _______ _______ _____ _____    ______ ____
ROOT
ATOM      1  C   UNL     1       2.423   4.044  19.423  0.00  0.00    +0.000 A 
ATOM      2  C   UNL     1       2.423   4.960  20.491  0.00  0.00    +0.000 A 
ATOM      3  C   UNL     1       2.189   6.304  20.196  0.00  0.00    +0.000 A 
ATOM      4  C   UNL     1       2.165   6.745  18.876  0.00  0.00    +0.000 A 
ATOM      5  C   UNL     1       2.077   5.860  17.827  0.00  0.00    +0.000 A 
ATOM      6  C   UNL     1       2.138   4.506  18.124  0.00  0.00    +0.000 A 
ATOM      7  C   UNL     1       2.158   8.230  18.827  0.00  0.00    +0.000 C 
ATOM      8  N   UNL     1       1.541   8.568  20.106  0.00  0.00    +0.000 N 
ATOM      9  C   UNL     1       0.633   9.614  20.137  0.00  0.00    +0.000 C 
ATOM     10  N   UNL     1       0.413  10.309  19.064  0.00  0.00    +0.000 NA
ATOM     11  C   UNL     1       1.789   7.475  21.082  0.00  0.00    +0.000 C 
ENDROOT
BRANCH   1  13
ATOM     12  C   UNL     1       3.806   2.174  19.951  0.00  0.00    +0.000 C 
ATOM     13  O   UNL     1       2.543   2.684  19.551  0.00  0.00    +0.000 OA
ENDBRANCH   1  13
BRANCH   6  14
ATOM     14  O   UNL     1       1.861   3.615  17.121  0.00  0.00    +0.000 OA
ATOM     15  H   UNL     1       2.008   4.088  16.287  0.00  0.00    +0.000 HD
ENDBRANCH   6  14
BRANCH   9  16
ATOM     16  S   UNL     1      -0.167   9.968  21.661  0.00  0.00    +0.000 S 
ATOM     17  H   UNL     1       0.465   9.044  22.389  0.00  0.00    +0.000 HD
ENDBRANCH   9  16
BRANCH  10  18
ATOM     18  C   UNL     1      -0.482  11.474  19.033  0.00  0.00    +0.000 C 
BRANCH  18  19
ATOM     19  C   UNL     1      -1.966  11.050  18.991  0.00  0.00    +0.000 C 
BRANCH  19  20
ATOM     20  C   UNL     1      -2.570  10.751  17.628  0.00  0.00    +0.000 A 
ATOM     21  C   UNL     1      -3.723  11.426  17.193  0.00  0.00    +0.000 A 
ATOM     22  C   UNL     1      -4.250  11.199  15.910  0.00  0.00    +0.000 A 
ATOM     23  C   UNL     1      -3.614  10.299  15.060  0.00  0.00    +0.000 A 
ATOM     24 CL   UNL     1      -4.250  10.025  13.484  0.00  0.00    +0.000 Cl
ATOM     25  C   UNL     1      -2.469   9.626  15.467  0.00  0.00    +0.000 A 
ATOM     26  C   UNL     1      -1.946   9.866  16.747  0.00  0.00    +0.000 A 
ENDBRANCH  19  20
ENDBRANCH  18  19
ENDBRANCH  10  18
TORSDOF 6
ENDMDL
MODEL 4
REMARK VINA RESULT:      -6.6      5.513      9.013
REMARK  Name = 
REMARK  7 active torsions:
REMARK  status: ('A' for Active; 'I' for Inactive)
REMARK    1  A    between atoms: C_1  and  O_2
REMARK    2  A    between atoms: O_2  and  C_3
REMARK    3  A    between atoms: C_8  and  O_9
REMARK    4  A    between atoms: C_12  and  S_13
REMARK    5  A    between atoms: N_14  and  C_15
REMARK    6  A    between atoms: C_15  and  C_16
REMARK    7  A    between atoms: C_16  and  C_17
REMARK                            x       y       z     vdW  Elec       q    Type
REMARK                         _______ _______ _______ _____ _____    ______ ____
ROOT
ATOM      1  C   UNL     1       2.626   4.046  19.466  0.00  0.00    +0.000 A 
ATOM      2  C   UNL     1       2.527   5.034  20.462  0.00  0.00    +0.000 A 
ATOM      3  C   UNL     1       2.245   6.340  20.057  0.00  0.00    +0.000 A 
ATOM      4  C   UNL     1       2.271   6.683  18.708  0.00  0.00    +0.000 A 
ATOM      5  C   UNL     1       2.280   5.722  17.724  0.00  0.00    +0.000 A 
ATOM      6  C   UNL     1       2.389   4.398  18.124  0.00  0.00    +0.000 A 
ATOM      7  C   UNL     1       2.197   8.159  18.549  0.00  0.00    +0.000 C 
ATOM      8  N   UNL     1       1.498   8.556  19.767  0.00  0.00    +0.000 N 
ATOM      9  C   UNL     1       0.542   9.554  19.676  0.00  0.00    +0.000 C 
ATOM     10  N   UNL     1       0.347  10.159  18.545  0.00  0.00    +0.000 NA
ATOM     11  C   UNL     1       1.744   7.549  20.833  0.00  0.00    +0.000 C 
ENDROOT
BRANCH   1  13
ATOM     12  C   UNL     1       4.094   2.277  20.105  0.00  0.00    +0.000 C 
ATOM     13  O   UNL     1       2.802   2.706  19.699  0.00  0.00    +0.000 OA
ENDBRANCH   1  13
BRANCH   6  14
ATOM     14  O   UNL     1       2.207   3.425  17.176  0.00  0.00    +0.000 OA
ATOM     15  H   UNL     1       3.079   3.254  16.788  0.00  0.00    +0.000 HD
ENDBRANCH   6  14
BRANCH   9  16
ATOM     16  S   UNL     1      -0.353   9.975  21.128  0.00  0.00    +0.000 S 
ATOM     17  H   UNL     1      -0.699   8.731  21.468  0.00  0.00    +0.000 HD
ENDBRANCH   9  16
BRANCH  10  18
ATOM     18  C   UNL     1      -0.599  11.272  18.384  0.00  0.00    +0.000 C 
BRANCH  18  19
ATOM     19  C   UNL     1      -1.823  10.860  17.536  0.00  0.00    +0.000 C 
BRANCH  19  20
ATOM     20  C   UNL     1      -3.173  11.439  17.930  0.00  0.00    +0.000 A 
ATOM     21  C   UNL     1      -4.256  11.398  17.037  0.00  0.00    +0.000 A 
ATOM     22  C   UNL     1      -5.522  11.875  17.418  0.00  0.00    +0.000 A 
ATOM     23  C   UNL     1      -5.702  12.387  18.699  0.00  0.00    +0.000 A 
ATOM     24 CL   UNL     1      -7.254  12.963  19.173  0.00  0.00    +0.000 Cl
ATOM     25  C   UNL     1      -4.647  12.430  19.601  0.00  0.00    +0.000 A 
ATOM     26  C   UNL     1      -3.388  11.944  19.213  0.00  0.00    +0.000 A 
ENDBRANCH  19  20
ENDBRANCH  18  19
ENDBRANCH  10  18
TORSDOF 6
ENDMDL
MODEL 5
REMARK VINA RESULT:      -6.5      5.488      8.836
REMARK  Name = 
REMARK  7 active torsions:
REMARK  status: ('A' for Active; 'I' for Inactive)
REMARK    1  A    between atoms: C_1  and  O_2
REMARK    2  A    between atoms: O_2  and  C_3
REMARK    3  A    between atoms: C_8  and  O_9
REMARK    4  A    between atoms: C_12  and  S_13
REMARK    5  A    between atoms: N_14  and  C_15
REMARK    6  A    between atoms: C_15  and  C_16
REMARK    7  A    between atoms: C_16  and  C_17
REMARK                            x       y       z     vdW  Elec       q    Type
REMARK                         _______ _______ _______ _____ _____    ______ ____
ROOT
ATOM      1  C   UNL     1       2.550   4.165  19.658  0.00  0.00    +0.000 A 
ATOM      2  C   UNL     1       2.483   5.216  20.592  0.00  0.00    +0.000 A 
ATOM      3  C   UNL     1       2.193   6.494  20.113  0.00  0.00    +0.000 A 
ATOM      4  C   UNL     1       2.179   6.751  18.744  0.00  0.00    +0.000 A 
ATOM      5  C   UNL     1       2.156   5.729  17.824  0.00  0.00    +0.000 A 
ATOM      6  C   UNL     1       2.274   4.433  18.304  0.00  0.00    +0.000 A 
ATOM      7  C   UNL     1       2.104   8.213  18.494  0.00  0.00    +0.000 C 
ATOM      8  N   UNL     1       1.442   8.691  19.704  0.00  0.00    +0.000 N 
ATOM      9  C   UNL     1       0.487   9.685  19.578  0.00  0.00    +0.000 C 
ATOM     10  N   UNL     1       0.259  10.217  18.417  0.00  0.00    +0.000 NA
ATOM     11  C   UNL     1       1.718   7.753  20.824  0.00  0.00    +0.000 C 
ENDROOT
BRANCH   1  13
ATOM     12  C   UNL     1       2.215   2.389  21.215  0.00  0.00    +0.000 C 
ATOM     13  O   UNL     1       2.730   2.843  19.972  0.00  0.00    +0.000 OA
ENDBRANCH   1  13
BRANCH   6  14
ATOM     14  O   UNL     1       2.062   3.402  17.427  0.00  0.00    +0.000 OA
ATOM     15  H   UNL     1       2.641   2.677  17.710  0.00  0.00    +0.000 HD
ENDBRANCH   6  14
BRANCH   9  16
ATOM     16  S   UNL     1      -0.364  10.201  21.026  0.00  0.00    +0.000 S 
ATOM     17  H   UNL     1      -0.251   9.052  21.695  0.00  0.00    +0.000 HD
ENDBRANCH   9  16
BRANCH  10  18
ATOM     18  C   UNL     1      -0.688  11.322  18.212  0.00  0.00    +0.000 C 
BRANCH  18  19
ATOM     19  C   UNL     1      -1.936  10.863  17.427  0.00  0.00    +0.000 C 
BRANCH  19  20
ATOM     20  C   UNL     1      -3.286  11.384  17.892  0.00  0.00    +0.000 A 
ATOM     21  C   UNL     1      -3.433  11.955  19.167  0.00  0.00    +0.000 A 
ATOM     22  C   UNL     1      -4.664  12.494  19.578  0.00  0.00    +0.000 A 
ATOM     23  C   UNL     1      -5.747  12.466  18.705  0.00  0.00    +0.000 A 
ATOM     24 CL   UNL     1      -7.254  13.135  19.202  0.00  0.00    +0.000 Cl
ATOM     25  C   UNL     1      -5.623  11.914  17.437  0.00  0.00    +0.000 A 
ATOM     26  C   UNL     1      -4.388  11.384  17.033  0.00  0.00    +0.000 A 
ENDBRANCH  19  20
ENDBRANCH  18  19
ENDBRANCH  10  18
TORSDOF 6
ENDMDL
MODEL 6
REMARK VINA RESULT:      -6.4      2.719      3.330
REMARK  Name = 
REMARK  7 active torsions:
REMARK  status: ('A' for Active; 'I' for Inactive)
REMARK    1  A    between atoms: C_1  and  O_2
REMARK    2  A    between atoms: O_2  and  C_3
REMARK    3  A    between atoms: C_8  and  O_9
REMARK    4  A    between atoms: C_12  and  S_13
REMARK    5  A    between atoms: N_14  and  C_15
REMARK    6  A    between atoms: C_15  and  C_16
REMARK    7  A    between atoms: C_16  and  C_17
REMARK                            x       y       z     vdW  Elec       q    Type
REMARK                         _______ _______ _______ _____ _____    ______ ____
ROOT
ATOM      1  C   UNL     1      -5.569  13.212  23.382  0.00  0.00    +0.000 A 
ATOM      2  C   UNL     1      -5.592  13.357  21.983  0.00  0.00    +0.000 A 
ATOM      3  C   UNL     1      -4.435  13.030  21.275  0.00  0.00    +0.000 A 
ATOM      4  C   UNL     1      -3.244  12.772  21.948  0.00  0.00    +0.000 A 
ATOM      5  C   UNL     1      -3.221  12.541  23.304  0.00  0.00    +0.000 A 
ATOM      6  C   UNL     1      -4.411  12.699  23.999  0.00  0.00    +0.000 A 
ATOM      7  C   UNL     1      -2.112  12.705  20.987  0.00  0.00    +0.000 C 
ATOM      8  N   UNL     1      -2.787  12.297  19.759  0.00  0.00    +0.000 N 
ATOM      9  C   UNL     1      -2.157  11.371  18.944  0.00  0.00    +0.000 C 
ATOM     10  N   UNL     1      -0.967  10.952  19.244  0.00  0.00    +0.000 NA
ATOM     11  C   UNL     1      -4.205  12.742  19.799  0.00  0.00    +0.000 C 
ENDROOT
BRANCH   1  13
ATOM     12  C   UNL     1      -7.913  12.963  23.747  0.00  0.00    +0.000 C 
ATOM     13  O   UNL     1      -6.644  13.398  24.213  0.00  0.00    +0.000 OA
ENDBRANCH   1  13
BRANCH   6  14
ATOM     14  O   UNL     1      -4.450  12.290  25.306  0.00  0.00    +0.000 OA
ATOM     15  H   UNL     1      -5.353  11.974  25.468  0.00  0.00    +0.000 HD
ENDBRANCH   6  14
BRANCH   9  16
ATOM     16  S   UNL     1      -3.007  10.824  17.506  0.00  0.00    +0.000 S 
ATOM     17  H   UNL     1      -2.389  11.631  16.641  0.00  0.00    +0.000 HD
ENDBRANCH   9  16
BRANCH  10  18
ATOM     18  C   UNL     1      -0.206  10.024  18.395  0.00  0.00    +0.000 C 
BRANCH  18  19
ATOM     19  C   UNL     1       1.287   9.987  18.790  0.00  0.00    +0.000 C 
BRANCH  19  20
ATOM     20  C   UNL     1       1.950   8.623  18.896  0.00  0.00    +0.000 A 
ATOM     21  C   UNL     1       1.749   7.816  20.028  0.00  0.00    +0.000 A 
ATOM     22  C   UNL     1       2.309   6.528  20.103  0.00  0.00    +0.000 A 
ATOM     23  C   UNL     1       3.064   6.049  19.037  0.00  0.00    +0.000 A 
ATOM     24 CL   UNL     1       3.743   4.469  19.122  0.00  0.00    +0.000 Cl
ATOM     25  C   UNL     1       3.269   6.826  17.905  0.00  0.00    +0.000 A 
ATOM     26  C   UNL     1       2.699   8.108  17.836  0.00  0.00    +0.000 A 
ENDBRANCH  19  20
ENDBRANCH  18  19
ENDBRANCH  10  18
TORSDOF 6
ENDMDL
MODEL 7
REMARK VINA RESULT:      -6.4      7.411      9.863
REMARK  Name = 
REMARK  7 active torsions:
REMARK  status: ('A' for Active; 'I' for Inactive)
REMARK    1  A    between atoms: C_1  and  O_2
REMARK    2  A    between atoms: O_2  and  C_3
REMARK    3  A    between atoms: C_8  and  O_9
REMARK    4  A    between atoms: C_12  and  S_13
REMARK    5  A    between atoms: N_14  and  C_15
REMARK    6  A    between atoms: C_15  and  C_16
REMARK    7  A    between atoms: C_16  and  C_17
REMARK                            x       y       z     vdW  Elec       q    Type
REMARK                         _______ _______ _______ _____ _____    ______ ____
ROOT
ATOM      1  C   UNL     1       1.470   3.881  18.846  0.00  0.00    +0.000 A 
ATOM      2  C   UNL     1       2.267   3.729  17.697  0.00  0.00    +0.000 A 
ATOM      3  C   UNL     1       3.188   4.737  17.406  0.00  0.00    +0.000 A 
ATOM      4  C   UNL     1       3.168   5.938  18.109  0.00  0.00    +0.000 A 
ATOM      5  C   UNL     1       2.461   6.070  19.282  0.00  0.00    +0.000 A 
ATOM      6  C   UNL     1       1.668   5.002  19.674  0.00  0.00    +0.000 A 
ATOM      7  C   UNL     1       4.056   6.934  17.456  0.00  0.00    +0.000 C 
ATOM      8  N   UNL     1       5.026   6.075  16.784  0.00  0.00    +0.000 N 
ATOM      9  C   UNL     1       6.356   6.458  16.794  0.00  0.00    +0.000 C 
ATOM     10  N   UNL     1       6.697   7.592  17.323  0.00  0.00    +0.000 NA
ATOM     11  C   UNL     1       4.402   4.758  16.489  0.00  0.00    +0.000 C 
ENDROOT
BRANCH   1  13
ATOM     12  C   UNL     1       1.048   1.604  19.420  0.00  0.00    +0.000 C 
ATOM     13  O   UNL     1       0.589   2.945  19.323  0.00  0.00    +0.000 OA
ENDBRANCH   1  13
BRANCH   6  14
ATOM     14  O   UNL     1       1.113   5.041  20.926  0.00  0.00    +0.000 OA
ATOM     15  H   UNL     1       1.735   4.588  21.516  0.00  0.00    +0.000 HD
ENDBRANCH   6  14
BRANCH   9  16
ATOM     16  S   UNL     1       7.531   5.383  16.053  0.00  0.00    +0.000 S 
ATOM     17  H   UNL     1       6.678   4.402  15.748  0.00  0.00    +0.000 HD
ENDBRANCH   9  16
BRANCH  10  18
ATOM     18  C   UNL     1       8.076   8.101  17.313  0.00  0.00    +0.000 C 
BRANCH  18  19
ATOM     19  C   UNL     1       8.479   8.677  18.688  0.00  0.00    +0.000 C 
BRANCH  19  20
ATOM     20  C   UNL     1       8.974  10.115  18.726  0.00  0.00    +0.000 A 
ATOM     21  C   UNL     1       8.507  11.058  17.797  0.00  0.00    +0.000 A 
ATOM     22  C   UNL     1       8.914  12.401  17.866  0.00  0.00    +0.000 A 
ATOM     23  C   UNL     1       9.786  12.799  18.875  0.00  0.00    +0.000 A 
ATOM     24 CL   UNL     1      10.279  14.446  18.969  0.00  0.00    +0.000 Cl
ATOM     25  C   UNL     1      10.255  11.885  19.809  0.00  0.00    +0.000 A 
ATOM     26  C   UNL     1       9.836  10.548  19.736  0.00  0.00    +0.000 A 
ENDBRANCH  19  20
ENDBRANCH  18  19
ENDBRANCH  10  18
TORSDOF 6
ENDMDL
MODEL 8
REMARK VINA RESULT:      -6.4      5.405      8.975
REMARK  Name = 
REMARK  7 active torsions:
REMARK  status: ('A' for Active; 'I' for Inactive)
REMARK    1  A    between atoms: C_1  and  O_2
REMARK    2  A    between atoms: O_2  and  C_3
REMARK    3  A    between atoms: C_8  and  O_9
REMARK    4  A    between atoms: C_12  and  S_13
REMARK    5  A    between atoms: N_14  and  C_15
REMARK    6  A    between atoms: C_15  and  C_16
REMARK    7  A    between atoms: C_16  and  C_17
REMARK                            x       y       z     vdW  Elec       q    Type
REMARK                         _______ _______ _______ _____ _____    ______ ____
ROOT
ATOM      1  C   UNL     1       2.379   3.357  19.110  0.00  0.00    +0.000 A 
ATOM      2  C   UNL     1       2.312   4.078  20.316  0.00  0.00    +0.000 A 
ATOM      3  C   UNL     1       2.183   5.466  20.237  0.00  0.00    +0.000 A 
ATOM      4  C   UNL     1       2.328   6.122  19.018  0.00  0.00    +0.000 A 
ATOM      5  C   UNL     1       2.307   5.434  17.827  0.00  0.00    +0.000 A 
ATOM      6  C   UNL     1       2.263   4.049  17.890  0.00  0.00    +0.000 A 
ATOM      7  C   UNL     1       2.406   7.591  19.228  0.00  0.00    +0.000 C 
ATOM      8  N   UNL     1       1.672   7.754  20.479  0.00  0.00    +0.000 N 
ATOM      9  C   UNL     1       0.823   8.842  20.602  0.00  0.00    +0.000 C 
ATOM     10  N   UNL     1       0.760   9.721  19.650  0.00  0.00    +0.000 NA
ATOM     11  C   UNL     1       1.752   6.498  21.270  0.00  0.00    +0.000 C 
ENDROOT
BRANCH   1  13
ATOM     12  C   UNL     1       3.683   1.374  18.870  0.00  0.00    +0.000 C 
ATOM     13  O   UNL     1       2.411   1.990  19.010  0.00  0.00    +0.000 OA
ENDBRANCH   1  13
BRANCH   6  14
ATOM     14  O   UNL     1       2.050   3.361  16.724  0.00  0.00    +0.000 OA
ATOM     15  H   UNL     1       1.134   3.042  16.758  0.00  0.00    +0.000 HD
ENDBRANCH   6  14
BRANCH   9  16
ATOM     16  S   UNL     1      -0.118   8.992  22.078  0.00  0.00    +0.000 S 
ATOM     17  H   UNL     1      -0.956   7.982  21.834  0.00  0.00    +0.000 HD
ENDBRANCH   9  16
BRANCH  10  18
ATOM     18  C   UNL     1      -0.063  10.936  19.734  0.00  0.00    +0.000 C 
BRANCH  18  19
ATOM     19  C   UNL     1      -0.714  11.276  18.376  0.00  0.00    +0.000 C 
BRANCH  19  20
ATOM     20  C   UNL     1      -2.233  11.243  18.301  0.00  0.00    +0.000 A 
ATOM     21  C   UNL     1      -2.889  10.291  17.504  0.00  0.00    +0.000 A 
ATOM     22  C   UNL     1      -4.293  10.217  17.479  0.00  0.00    +0.000 A 
ATOM     23  C   UNL     1      -5.037  11.095  18.261  0.00  0.00    +0.000 A 
ATOM     24 CL   UNL     1      -6.756  11.000  18.241  0.00  0.00    +0.000 Cl
ATOM     25  C   UNL     1      -4.409  12.039  19.062  0.00  0.00    +0.000 A 
ATOM     26  C   UNL     1      -3.007  12.100  19.086  0.00  0.00    +0.000 A 
ENDBRANCH  19  20
ENDBRANCH  18  19
ENDBRANCH  10  18
TORSDOF 6
ENDMDL
MODEL 9
REMARK VINA RESULT:      -6.4      5.638      9.764
REMARK  Name = 
REMARK  7 active torsions:
REMARK  status: ('A' for Active; 'I' for Inactive)
REMARK    1  A    between atoms: C_1  and  O_2
REMARK    2  A    between atoms: O_2  and  C_3
REMARK    3  A    between atoms: C_8  and  O_9
REMARK    4  A    between atoms: C_12  and  S_13
REMARK    5  A    between atoms: N_14  and  C_15
REMARK    6  A    between atoms: C_15  and  C_16
REMARK    7  A    between atoms: C_16  and  C_17
REMARK                            x       y       z     vdW  Elec       q    Type
REMARK                         _______ _______ _______ _____ _____    ______ ____
ROOT
ATOM      1  C   UNL     1       6.238   5.215  16.735  0.00  0.00    +0.000 A 
ATOM      2  C   UNL     1       5.085   5.917  16.338  0.00  0.00    +0.000 A 
ATOM      3  C   UNL     1       4.148   6.238  17.321  0.00  0.00    +0.000 A 
ATOM      4  C   UNL     1       4.253   5.700  18.601  0.00  0.00    +0.000 A 
ATOM      5  C   UNL     1       5.409   5.089  19.028  0.00  0.00    +0.000 A 
ATOM      6  C   UNL     1       6.422   4.915  18.098  0.00  0.00    +0.000 A 
ATOM      7  C   UNL     1       3.018   5.975  19.380  0.00  0.00    +0.000 C 
ATOM      8  N   UNL     1       2.526   7.191  18.740  0.00  0.00    +0.000 N 
ATOM      9  C   UNL     1       1.994   8.184  19.545  0.00  0.00    +0.000 C 
ATOM     10  N   UNL     1       1.875   7.985  20.821  0.00  0.00    +0.000 NA
ATOM     11  C   UNL     1       3.004   7.241  17.333  0.00  0.00    +0.000 C 
ENDROOT
BRANCH   1  13
ATOM     12  C   UNL     1       7.017   4.708  14.538  0.00  0.00    +0.000 C 
ATOM     13  O   UNL     1       7.294   4.907  15.916  0.00  0.00    +0.000 OA
ENDBRANCH   1  13
BRANCH   6  14
ATOM     14  O   UNL     1       7.642   4.485  18.550  0.00  0.00    +0.000 OA
ATOM     15  H   UNL     1       8.310   4.941  18.014  0.00  0.00    +0.000 HD
ENDBRANCH   6  14
BRANCH   9  16
ATOM     16  S   UNL     1       1.474   9.678  18.779  0.00  0.00    +0.000 S 
ATOM     17  H   UNL     1       2.080  10.510  19.629  0.00  0.00    +0.000 HD
ENDBRANCH   9  16
BRANCH  10  18
ATOM     18  C   UNL     1       1.259   8.961  21.732  0.00  0.00    +0.000 C 
BRANCH  18  19
ATOM     19  C   UNL     1      -0.248   9.136  21.442  0.00  0.00    +0.000 C 
BRANCH  19  20
ATOM     20  C   UNL     1      -0.854  10.507  21.696  0.00  0.00    +0.000 A 
ATOM     21  C   UNL     1      -1.204  11.345  20.624  0.00  0.00    +0.000 A 
ATOM     22  C   UNL     1      -1.822  12.586  20.851  0.00  0.00    +0.000 A 
ATOM     23  C   UNL     1      -2.095  12.985  22.156  0.00  0.00    +0.000 A 
ATOM     24 CL   UNL     1      -2.860  14.501  22.438  0.00  0.00    +0.000 Cl
ATOM     25  C   UNL     1      -1.765  12.169  23.231  0.00  0.00    +0.000 A 
ATOM     26  C   UNL     1      -1.155  10.928  22.993  0.00  0.00    +0.000 A 
ENDBRANCH  19  20
ENDBRANCH  18  19
ENDBRANCH  10  18
TORSDOF 6
ENDMDL
