MODEL 1
REMARK VINA RESULT:      -7.4      0.000      0.000
REMARK  Name = 
REMARK  6 active torsions:
REMARK  status: ('A' for Active; 'I' for Inactive)
REMARK    1  A    between atoms: C_1  and  O_2
REMARK    2  A    between atoms: O_2  and  C_3
REMARK    3  A    between atoms: C_8  and  O_9
REMARK    4  A    between atoms: O_9  and  C_10
REMARK    5  A    between atoms: C_11  and  C_12
REMARK    6  A    between atoms: C_12  and  C_14
REMARK                            x       y       z     vdW  Elec       q    Type
REMARK                         _______ _______ _______ _____ _____    ______ ____
ROOT
ATOM      1  C   UNL     1       1.602   7.469  20.448  0.00  0.00    +0.000 A 
ATOM      2  C   UNL     1       1.321   6.220  21.022  0.00  0.00    +0.000 A 
ATOM      3  C   UNL     1       1.866   5.051  20.486  0.00  0.00    +0.000 A 
ATOM      4  C   UNL     1       2.595   5.106  19.295  0.00  0.00    +0.000 A 
ATOM      5  C   UNL     1       2.794   6.330  18.661  0.00  0.00    +0.000 A 
ATOM      6  C   UNL     1       2.318   7.522  19.238  0.00  0.00    +0.000 A 
ATOM      7  C   UNL     1       3.141   3.812  18.790  0.00  0.00    +0.000 C 
ATOM      8  N   UNL     1       3.327   2.775  19.543  0.00  0.00    +0.000 NA
ATOM      9  C   UNL     1       2.997   2.935  20.973  0.00  0.00    +0.000 C 
ATOM     10  C   UNL     1       1.702   3.720  21.163  0.00  0.00    +0.000 C 
ENDROOT
BRANCH   1  12
ATOM     11  C   UNL     1      -0.165   8.637  21.526  0.00  0.00    +0.000 C 
ATOM     12  O   UNL     1       1.181   8.631  21.043  0.00  0.00    +0.000 OA
ENDBRANCH   1  12
BRANCH   6  13
ATOM     13  O   UNL     1       2.669   8.618  18.493  0.00  0.00    +0.000 OA
ATOM     14  C   UNL     1       1.674   9.314  17.761  0.00  0.00    +0.000 C 
ENDBRANCH   6  13
BRANCH   7  15
ATOM     15  C   UNL     1       3.424   3.653  17.311  0.00  0.00    +0.000 C 
ATOM     16  O   UNL     1       2.543   3.184  16.597  0.00  0.00    +0.000 OA
BRANCH  15  17
ATOM     17  C   UNL     1       4.749   4.001  16.739  0.00  0.00    +0.000 A 
ATOM     18  C   UNL     1       4.878   4.029  15.342  0.00  0.00    +0.000 A 
ATOM     19  C   UNL     1       6.083   4.406  14.751  0.00  0.00    +0.000 A 
ATOM     20  C   UNL     1       7.164   4.770  15.552  0.00  0.00    +0.000 A 
ATOM     21  C   UNL     1       7.047   4.734  16.943  0.00  0.00    +0.000 A 
ATOM     22  C   UNL     1       5.843   4.342  17.540  0.00  0.00    +0.000 A 
ENDBRANCH  15  17
ENDBRANCH   7  15
TORSDOF 4
ENDMDL
MODEL 2
REMARK VINA RESULT:      -7.4      0.092      1.034
REMARK  Name = 
REMARK  6 active torsions:
REMARK  status: ('A' for Active; 'I' for Inactive)
REMARK    1  A    between atoms: C_1  and  O_2
REMARK    2  A    between atoms: O_2  and  C_3
REMARK    3  A    between atoms: C_8  and  O_9
REMARK    4  A    between atoms: O_9  and  C_10
REMARK    5  A    between atoms: C_11  and  C_12
REMARK    6  A    between atoms: C_12  and  C_14
REMARK                            x       y       z     vdW  Elec       q    Type
REMARK                         _______ _______ _______ _____ _____    ______ ____
ROOT
ATOM      1  C   UNL     1       1.595   7.534  20.400  0.00  0.00    +0.000 A 
ATOM      2  C   UNL     1       1.319   6.291  20.992  0.00  0.00    +0.000 A 
ATOM      3  C   UNL     1       1.860   5.117  20.465  0.00  0.00    +0.000 A 
ATOM      4  C   UNL     1       2.579   5.157  19.267  0.00  0.00    +0.000 A 
ATOM      5  C   UNL     1       2.772   6.373  18.617  0.00  0.00    +0.000 A 
ATOM      6  C   UNL     1       2.302   7.573  19.184  0.00  0.00    +0.000 A 
ATOM      7  C   UNL     1       3.120   3.857  18.773  0.00  0.00    +0.000 C 
ATOM      8  N   UNL     1       3.312   2.829  19.536  0.00  0.00    +0.000 NA
ATOM      9  C   UNL     1       2.995   3.006  20.967  0.00  0.00    +0.000 C 
ATOM     10  C   UNL     1       1.701   3.793  21.159  0.00  0.00    +0.000 C 
ENDROOT
BRANCH   1  12
ATOM     11  C   UNL     1      -0.139   8.692  21.540  0.00  0.00    +0.000 C 
ATOM     12  O   UNL     1       1.179   8.703  20.985  0.00  0.00    +0.000 OA
ENDBRANCH   1  12
BRANCH   6  13
ATOM     13  O   UNL     1       2.646   8.660  18.424  0.00  0.00    +0.000 OA
ATOM     14  C   UNL     1       1.630   9.430  17.803  0.00  0.00    +0.000 C 
ENDBRANCH   6  13
BRANCH   7  15
ATOM     15  C   UNL     1       3.392   3.681  17.293  0.00  0.00    +0.000 C 
ATOM     16  O   UNL     1       2.530   3.145  16.604  0.00  0.00    +0.000 OA
BRANCH  15  17
ATOM     17  C   UNL     1       4.686   4.091  16.694  0.00  0.00    +0.000 A 
ATOM     18  C   UNL     1       5.767   4.330  17.556  0.00  0.00    +0.000 A 
ATOM     19  C   UNL     1       7.020   4.661  17.044  0.00  0.00    +0.000 A 
ATOM     20  C   UNL     1       7.206   4.741  15.664  0.00  0.00    +0.000 A 
ATOM     21  C   UNL     1       6.133   4.516  14.800  0.00  0.00    +0.000 A 
ATOM     22  C   UNL     1       4.870   4.198  15.312  0.00  0.00    +0.000 A 
ENDBRANCH  15  17
ENDBRANCH   7  15
TORSDOF 4
ENDMDL
MODEL 3
REMARK VINA RESULT:      -7.4      2.176      6.110
REMARK  Name = 
REMARK  6 active torsions:
REMARK  status: ('A' for Active; 'I' for Inactive)
REMARK    1  A    between atoms: C_1  and  O_2
REMARK    2  A    between atoms: O_2  and  C_3
REMARK    3  A    between atoms: C_8  and  O_9
REMARK    4  A    between atoms: O_9  and  C_10
REMARK    5  A    between atoms: C_11  and  C_12
REMARK    6  A    between atoms: C_12  and  C_14
REMARK                            x       y       z     vdW  Elec       q    Type
REMARK                         _______ _______ _______ _____ _____    ______ ____
ROOT
ATOM      1  C   UNL     1       6.344   4.953  16.219  0.00  0.00    +0.000 A 
ATOM      2  C   UNL     1       5.517   3.845  16.462  0.00  0.00    +0.000 A 
ATOM      3  C   UNL     1       4.323   3.989  17.171  0.00  0.00    +0.000 A 
ATOM      4  C   UNL     1       4.004   5.218  17.756  0.00  0.00    +0.000 A 
ATOM      5  C   UNL     1       4.869   6.300  17.607  0.00  0.00    +0.000 A 
ATOM      6  C   UNL     1       6.033   6.185  16.825  0.00  0.00    +0.000 A 
ATOM      7  C   UNL     1       2.712   5.285  18.498  0.00  0.00    +0.000 C 
ATOM      8  N   UNL     1       1.734   4.459  18.302  0.00  0.00    +0.000 NA
ATOM      9  C   UNL     1       1.940   3.434  17.260  0.00  0.00    +0.000 C 
ATOM     10  C   UNL     1       3.351   2.853  17.320  0.00  0.00    +0.000 C 
ENDROOT
BRANCH   1  12
ATOM     11  C   UNL     1       7.201   4.882  14.005  0.00  0.00    +0.000 C 
ATOM     12  O   UNL     1       7.448   4.848  15.413  0.00  0.00    +0.000 OA
ENDBRANCH   1  12
BRANCH   6  13
ATOM     13  O   UNL     1       6.713   7.373  16.754  0.00  0.00    +0.000 OA
ATOM     14  C   UNL     1       7.731   7.655  17.701  0.00  0.00    +0.000 C 
ENDBRANCH   6  13
BRANCH   7  15
ATOM     15  C   UNL     1       2.540   6.313  19.597  0.00  0.00    +0.000 C 
ATOM     16  O   UNL     1       2.822   5.989  20.746  0.00  0.00    +0.000 OA
BRANCH  15  17
ATOM     17  C   UNL     1       1.992   7.663  19.311  0.00  0.00    +0.000 A 
ATOM     18  C   UNL     1       1.402   8.373  20.367  0.00  0.00    +0.000 A 
ATOM     19  C   UNL     1       0.924   9.667  20.168  0.00  0.00    +0.000 A 
ATOM     20  C   UNL     1       1.046  10.267  18.915  0.00  0.00    +0.000 A 
ATOM     21  C   UNL     1       1.622   9.562  17.856  0.00  0.00    +0.000 A 
ATOM     22  C   UNL     1       2.089   8.257  18.049  0.00  0.00    +0.000 A 
ENDBRANCH  15  17
ENDBRANCH   7  15
TORSDOF 4
ENDMDL
MODEL 4
REMARK VINA RESULT:      -7.3      2.173      6.020
REMARK  Name = 
REMARK  6 active torsions:
REMARK  status: ('A' for Active; 'I' for Inactive)
REMARK    1  A    between atoms: C_1  and  O_2
REMARK    2  A    between atoms: O_2  and  C_3
REMARK    3  A    between atoms: C_8  and  O_9
REMARK    4  A    between atoms: O_9  and  C_10
REMARK    5  A    between atoms: C_11  and  C_12
REMARK    6  A    between atoms: C_12  and  C_14
REMARK                            x       y       z     vdW  Elec       q    Type
REMARK                         _______ _______ _______ _____ _____    ______ ____
ROOT
ATOM      1  C   UNL     1       6.361   4.948  16.208  0.00  0.00    +0.000 A 
ATOM      2  C   UNL     1       5.536   3.833  16.425  0.00  0.00    +0.000 A 
ATOM      3  C   UNL     1       4.348   3.956  17.148  0.00  0.00    +0.000 A 
ATOM      4  C   UNL     1       4.034   5.167  17.771  0.00  0.00    +0.000 A 
ATOM      5  C   UNL     1       4.898   6.253  17.647  0.00  0.00    +0.000 A 
ATOM      6  C   UNL     1       6.056   6.162  16.852  0.00  0.00    +0.000 A 
ATOM      7  C   UNL     1       2.748   5.213  18.526  0.00  0.00    +0.000 C 
ATOM      8  N   UNL     1       1.768   4.393  18.315  0.00  0.00    +0.000 NA
ATOM      9  C   UNL     1       1.966   3.398  17.242  0.00  0.00    +0.000 C 
ATOM     10  C   UNL     1       3.376   2.816  17.273  0.00  0.00    +0.000 C 
ENDROOT
BRANCH   1  12
ATOM     11  C   UNL     1       7.190   4.799  13.986  0.00  0.00    +0.000 C 
ATOM     12  O   UNL     1       7.457   4.866  15.389  0.00  0.00    +0.000 OA
ENDBRANCH   1  12
BRANCH   6  13
ATOM     13  O   UNL     1       6.735   7.351  16.809  0.00  0.00    +0.000 OA
ATOM     14  C   UNL     1       7.754   7.609  17.761  0.00  0.00    +0.000 C 
ENDBRANCH   6  13
BRANCH   7  15
ATOM     15  C   UNL     1       2.586   6.209  19.656  0.00  0.00    +0.000 C 
ATOM     16  O   UNL     1       2.851   5.842  20.797  0.00  0.00    +0.000 OA
BRANCH  15  17
ATOM     17  C   UNL     1       2.067   7.577  19.408  0.00  0.00    +0.000 A 
ATOM     18  C   UNL     1       2.171   8.097  18.109  0.00  0.00    +0.000 A 
ATOM     19  C   UNL     1       1.647   9.353  17.807  0.00  0.00    +0.000 A 
ATOM     20  C   UNL     1       1.003  10.093  18.798  0.00  0.00    +0.000 A 
ATOM     21  C   UNL     1       0.906   9.587  20.095  0.00  0.00    +0.000 A 
ATOM     22  C   UNL     1       1.444   8.333  20.406  0.00  0.00    +0.000 A 
ENDBRANCH  15  17
ENDBRANCH   7  15
TORSDOF 4
ENDMDL
MODEL 5
REMARK VINA RESULT:      -7.2      2.339      4.270
REMARK  Name = 
REMARK  6 active torsions:
REMARK  status: ('A' for Active; 'I' for Inactive)
REMARK    1  A    between atoms: C_1  and  O_2
REMARK    2  A    between atoms: O_2  and  C_3
REMARK    3  A    between atoms: C_8  and  O_9
REMARK    4  A    between atoms: O_9  and  C_10
REMARK    5  A    between atoms: C_11  and  C_12
REMARK    6  A    between atoms: C_12  and  C_14
REMARK                            x       y       z     vdW  Elec       q    Type
REMARK                         _______ _______ _______ _____ _____    ______ ____
ROOT
ATOM      1  C   UNL     1       1.588   4.075  19.705  0.00  0.00    +0.000 A 
ATOM      2  C   UNL     1       1.626   5.407  20.145  0.00  0.00    +0.000 A 
ATOM      3  C   UNL     1       2.202   6.402  19.353  0.00  0.00    +0.000 A 
ATOM      4  C   UNL     1       2.860   6.056  18.170  0.00  0.00    +0.000 A 
ATOM      5  C   UNL     1       2.917   4.722  17.775  0.00  0.00    +0.000 A 
ATOM      6  C   UNL     1       2.268   3.723  18.525  0.00  0.00    +0.000 A 
ATOM      7  C   UNL     1       3.450   7.180  17.384  0.00  0.00    +0.000 C 
ATOM      8  N   UNL     1       3.064   8.410  17.500  0.00  0.00    +0.000 NA
ATOM      9  C   UNL     1       1.960   8.664  18.448  0.00  0.00    +0.000 C 
ATOM     10  C   UNL     1       2.128   7.855  19.731  0.00  0.00    +0.000 C 
ENDROOT
BRANCH   1  12
ATOM     11  C   UNL     1       1.574   2.600  21.568  0.00  0.00    +0.000 C 
ATOM     12  O   UNL     1       0.909   3.116  20.413  0.00  0.00    +0.000 OA
ENDBRANCH   1  12
BRANCH   6  13
ATOM     13  O   UNL     1       2.391   2.491  17.937  0.00  0.00    +0.000 OA
ATOM     14  C   UNL     1       3.527   1.691  18.220  0.00  0.00    +0.000 C 
ENDBRANCH   6  13
BRANCH   7  15
ATOM     15  C   UNL     1       4.615   6.905  16.456  0.00  0.00    +0.000 C 
ATOM     16  O   UNL     1       4.544   7.309  15.299  0.00  0.00    +0.000 OA
BRANCH  15  17
ATOM     17  C   UNL     1       5.791   6.119  16.907  0.00  0.00    +0.000 A 
ATOM     18  C   UNL     1       6.377   6.457  18.136  0.00  0.00    +0.000 A 
ATOM     19  C   UNL     1       7.447   5.716  18.635  0.00  0.00    +0.000 A 
ATOM     20  C   UNL     1       7.929   4.623  17.917  0.00  0.00    +0.000 A 
ATOM     21  C   UNL     1       7.358   4.288  16.688  0.00  0.00    +0.000 A 
ATOM     22  C   UNL     1       6.293   5.039  16.176  0.00  0.00    +0.000 A 
ENDBRANCH  15  17
ENDBRANCH   7  15
TORSDOF 4
ENDMDL
MODEL 6
REMARK VINA RESULT:      -7.2      2.305      4.125
REMARK  Name = 
REMARK  6 active torsions:
REMARK  status: ('A' for Active; 'I' for Inactive)
REMARK    1  A    between atoms: C_1  and  O_2
REMARK    2  A    between atoms: O_2  and  C_3
REMARK    3  A    between atoms: C_8  and  O_9
REMARK    4  A    between atoms: O_9  and  C_10
REMARK    5  A    between atoms: C_11  and  C_12
REMARK    6  A    between atoms: C_12  and  C_14
REMARK                            x       y       z     vdW  Elec       q    Type
REMARK                         _______ _______ _______ _____ _____    ______ ____
ROOT
ATOM      1  C   UNL     1       1.578   3.882  19.943  0.00  0.00    +0.000 A 
ATOM      2  C   UNL     1       1.599   5.196  20.435  0.00  0.00    +0.000 A 
ATOM      3  C   UNL     1       2.134   6.235  19.669  0.00  0.00    +0.000 A 
ATOM      4  C   UNL     1       2.768   5.950  18.457  0.00  0.00    +0.000 A 
ATOM      5  C   UNL     1       2.843   4.634  18.007  0.00  0.00    +0.000 A 
ATOM      6  C   UNL     1       2.235   3.593  18.732  0.00  0.00    +0.000 A 
ATOM      7  C   UNL     1       3.314   7.117  17.703  0.00  0.00    +0.000 C 
ATOM      8  N   UNL     1       2.906   8.333  17.879  0.00  0.00    +0.000 NA
ATOM      9  C   UNL     1       1.821   8.525  18.862  0.00  0.00    +0.000 C 
ATOM     10  C   UNL     1       2.039   7.669  20.108  0.00  0.00    +0.000 C 
ENDROOT
BRANCH   1  12
ATOM     11  C   UNL     1       1.567   2.445  21.835  0.00  0.00    +0.000 C 
ATOM     12  O   UNL     1       0.937   2.881  20.628  0.00  0.00    +0.000 OA
ENDBRANCH   1  12
BRANCH   6  13
ATOM     13  O   UNL     1       2.367   2.388  18.093  0.00  0.00    +0.000 OA
ATOM     14  C   UNL     1       3.446   1.531  18.432  0.00  0.00    +0.000 C 
ENDBRANCH   6  13
BRANCH   7  15
ATOM     15  C   UNL     1       4.460   6.904  16.736  0.00  0.00    +0.000 C 
ATOM     16  O   UNL     1       4.379   7.407  15.619  0.00  0.00    +0.000 OA
BRANCH  15  17
ATOM     17  C   UNL     1       5.630   6.066  17.099  0.00  0.00    +0.000 A 
ATOM     18  C   UNL     1       6.061   5.100  16.177  0.00  0.00    +0.000 A 
ATOM     19  C   UNL     1       7.190   4.325  16.442  0.00  0.00    +0.000 A 
ATOM     20  C   UNL     1       7.903   4.520  17.624  0.00  0.00    +0.000 A 
ATOM     21  C   UNL     1       7.473   5.472  18.551  0.00  0.00    +0.000 A 
ATOM     22  C   UNL     1       6.332   6.241  18.296  0.00  0.00    +0.000 A 
ENDBRANCH  15  17
ENDBRANCH   7  15
TORSDOF 4
ENDMDL
MODEL 7
REMARK VINA RESULT:      -7.0      2.790      4.774
REMARK  Name = 
REMARK  6 active torsions:
REMARK  status: ('A' for Active; 'I' for Inactive)
REMARK    1  A    between atoms: C_1  and  O_2
REMARK    2  A    between atoms: O_2  and  C_3
REMARK    3  A    between atoms: C_8  and  O_9
REMARK    4  A    between atoms: O_9  and  C_10
REMARK    5  A    between atoms: C_11  and  C_12
REMARK    6  A    between atoms: C_12  and  C_14
REMARK                            x       y       z     vdW  Elec       q    Type
REMARK                         _______ _______ _______ _____ _____    ______ ____
ROOT
ATOM      1  C   UNL     1       2.460   3.730  19.084  0.00  0.00    +0.000 A 
ATOM      2  C   UNL     1       2.670   5.117  19.125  0.00  0.00    +0.000 A 
ATOM      3  C   UNL     1       3.546   5.731  18.228  0.00  0.00    +0.000 A 
ATOM      4  C   UNL     1       4.319   4.950  17.364  0.00  0.00    +0.000 A 
ATOM      5  C   UNL     1       4.193   3.564  17.386  0.00  0.00    +0.000 A 
ATOM      6  C   UNL     1       3.252   2.942  18.228  0.00  0.00    +0.000 A 
ATOM      7  C   UNL     1       5.231   5.686  16.440  0.00  0.00    +0.000 C 
ATOM      8  N   UNL     1       5.066   6.929  16.116  0.00  0.00    +0.000 NA
ATOM      9  C   UNL     1       3.885   7.605  16.688  0.00  0.00    +0.000 C 
ATOM     10  C   UNL     1       3.680   7.226  18.153  0.00  0.00    +0.000 C 
ENDROOT
BRANCH   1  12
ATOM     11  C   UNL     1       1.817   3.025  21.260  0.00  0.00    +0.000 C 
ATOM     12  O   UNL     1       1.505   3.136  19.869  0.00  0.00    +0.000 OA
ENDBRANCH   1  12
BRANCH   6  13
ATOM     13  O   UNL     1       3.241   1.582  18.056  0.00  0.00    +0.000 OA
ATOM     14  C   UNL     1       4.081   0.768  18.858  0.00  0.00    +0.000 C 
ENDBRANCH   6  13
BRANCH   7  15
ATOM     15  C   UNL     1       6.464   4.989  15.904  0.00  0.00    +0.000 C 
ATOM     16  O   UNL     1       7.381   4.749  16.683  0.00  0.00    +0.000 OA
BRANCH  15  17
ATOM     17  C   UNL     1       6.593   4.650  14.464  0.00  0.00    +0.000 A 
ATOM     18  C   UNL     1       7.602   5.285  13.725  0.00  0.00    +0.000 A 
ATOM     19  C   UNL     1       7.806   4.961  12.384  0.00  0.00    +0.000 A 
ATOM     20  C   UNL     1       7.010   3.991  11.776  0.00  0.00    +0.000 A 
ATOM     21  C   UNL     1       5.996   3.363  12.503  0.00  0.00    +0.000 A 
ATOM     22  C   UNL     1       5.779   3.696  13.845  0.00  0.00    +0.000 A 
ENDBRANCH  15  17
ENDBRANCH   7  15
TORSDOF 4
ENDMDL
MODEL 8
REMARK VINA RESULT:      -6.9      2.807      4.713
REMARK  Name = 
REMARK  6 active torsions:
REMARK  status: ('A' for Active; 'I' for Inactive)
REMARK    1  A    between atoms: C_1  and  O_2
REMARK    2  A    between atoms: O_2  and  C_3
REMARK    3  A    between atoms: C_8  and  O_9
REMARK    4  A    between atoms: O_9  and  C_10
REMARK    5  A    between atoms: C_11  and  C_12
REMARK    6  A    between atoms: C_12  and  C_14
REMARK                            x       y       z     vdW  Elec       q    Type
REMARK                         _______ _______ _______ _____ _____    ______ ____
ROOT
ATOM      1  C   UNL     1       2.420   3.613  19.131  0.00  0.00    +0.000 A 
ATOM      2  C   UNL     1       2.590   5.006  19.179  0.00  0.00    +0.000 A 
ATOM      3  C   UNL     1       3.481   5.645  18.314  0.00  0.00    +0.000 A 
ATOM      4  C   UNL     1       4.306   4.886  17.479  0.00  0.00    +0.000 A 
ATOM      5  C   UNL     1       4.218   3.496  17.497  0.00  0.00    +0.000 A 
ATOM      6  C   UNL     1       3.265   2.848  18.305  0.00  0.00    +0.000 A 
ATOM      7  C   UNL     1       5.230   5.647  16.589  0.00  0.00    +0.000 C 
ATOM      8  N   UNL     1       5.043   6.884  16.258  0.00  0.00    +0.000 NA
ATOM      9  C   UNL     1       3.823   7.527  16.787  0.00  0.00    +0.000 C 
ATOM     10  C   UNL     1       3.576   7.143  18.243  0.00  0.00    +0.000 C 
ENDROOT
BRANCH   1  12
ATOM     11  C   UNL     1       1.720   2.885  21.282  0.00  0.00    +0.000 C 
ATOM     12  O   UNL     1       1.454   2.993  19.881  0.00  0.00    +0.000 OA
ENDBRANCH   1  12
BRANCH   6  13
ATOM     13  O   UNL     1       3.298   1.489  18.133  0.00  0.00    +0.000 OA
ATOM     14  C   UNL     1       4.188   0.706  18.912  0.00  0.00    +0.000 C 
ENDBRANCH   6  13
BRANCH   7  15
ATOM     15  C   UNL     1       6.501   4.984  16.098  0.00  0.00    +0.000 C 
ATOM     16  O   UNL     1       7.387   4.750  16.914  0.00  0.00    +0.000 OA
BRANCH  15  17
ATOM     17  C   UNL     1       6.702   4.672  14.661  0.00  0.00    +0.000 A 
ATOM     18  C   UNL     1       5.867   3.711  14.072  0.00  0.00    +0.000 A 
ATOM     19  C   UNL     1       5.972   3.422  12.712  0.00  0.00    +0.000 A 
ATOM     20  C   UNL     1       6.904   4.101  11.928  0.00  0.00    +0.000 A 
ATOM     21  C   UNL     1       7.746   5.051  12.511  0.00  0.00    +0.000 A 
ATOM     22  C   UNL     1       7.653   5.333  13.878  0.00  0.00    +0.000 A 
ENDBRANCH  15  17
ENDBRANCH   7  15
TORSDOF 4
ENDMDL
MODEL 9
REMARK VINA RESULT:      -6.8      2.592      4.373
REMARK  Name = 
REMARK  6 active torsions:
REMARK  status: ('A' for Active; 'I' for Inactive)
REMARK    1  A    between atoms: C_1  and  O_2
REMARK    2  A    between atoms: O_2  and  C_3
REMARK    3  A    between atoms: C_8  and  O_9
REMARK    4  A    between atoms: O_9  and  C_10
REMARK    5  A    between atoms: C_11  and  C_12
REMARK    6  A    between atoms: C_12  and  C_14
REMARK                            x       y       z     vdW  Elec       q    Type
REMARK                         _______ _______ _______ _____ _____    ______ ____
ROOT
ATOM      1  C   UNL     1       1.645   4.220  20.198  0.00  0.00    +0.000 A 
ATOM      2  C   UNL     1       1.528   5.605  20.390  0.00  0.00    +0.000 A 
ATOM      3  C   UNL     1       2.133   6.500  19.505  0.00  0.00    +0.000 A 
ATOM      4  C   UNL     1       2.968   6.021  18.492  0.00  0.00    +0.000 A 
ATOM      5  C   UNL     1       3.172   4.650  18.355  0.00  0.00    +0.000 A 
ATOM      6  C   UNL     1       2.501   3.737  19.190  0.00  0.00    +0.000 A 
ATOM      7  C   UNL     1       3.576   7.044  17.592  0.00  0.00    +0.000 C 
ATOM      8  N   UNL     1       3.091   8.234  17.436  0.00  0.00    +0.000 NA
ATOM      9  C   UNL     1       1.855   8.542  18.183  0.00  0.00    +0.000 C 
ATOM     10  C   UNL     1       1.906   7.982  19.602  0.00  0.00    +0.000 C 
ENDROOT
BRANCH   1  12
ATOM     11  C   UNL     1       1.713   2.613  21.947  0.00  0.00    +0.000 C 
ATOM     12  O   UNL     1       0.947   3.337  20.981  0.00  0.00    +0.000 OA
ENDBRANCH   1  12
BRANCH   6  13
ATOM     13  O   UNL     1       2.788   2.440  18.855  0.00  0.00    +0.000 OA
ATOM     14  C   UNL     1       2.953   2.090  17.491  0.00  0.00    +0.000 C 
ENDBRANCH   6  13
BRANCH   7  15
ATOM     15  C   UNL     1       4.871   6.725  16.875  0.00  0.00    +0.000 C 
ATOM     16  O   UNL     1       4.817   6.398  15.693  0.00  0.00    +0.000 OA
BRANCH  15  17
ATOM     17  C   UNL     1       6.173   6.750  17.588  0.00  0.00    +0.000 A 
ATOM     18  C   UNL     1       6.979   7.890  17.450  0.00  0.00    +0.000 A 
ATOM     19  C   UNL     1       8.184   7.992  18.143  0.00  0.00    +0.000 A 
ATOM     20  C   UNL     1       8.585   6.961  18.991  0.00  0.00    +0.000 A 
ATOM     21  C   UNL     1       7.794   5.818  19.125  0.00  0.00    +0.000 A 
ATOM     22  C   UNL     1       6.591   5.706  18.419  0.00  0.00    +0.000 A 
ENDBRANCH  15  17
ENDBRANCH   7  15
TORSDOF 4
ENDMDL
