MODEL 1
REMARK VINA RESULT:      -5.8      0.000      0.000
REMARK  Name = 
REMARK  6 active torsions:
REMARK  status: ('A' for Active; 'I' for Inactive)
REMARK    1  A    between atoms: C_1  and  N_2
REMARK    2  A    between atoms: N_5  and  C_6
REMARK    3  A    between atoms: C_6  and  O_7
REMARK    4  A    between atoms: O_7  and  C_8
REMARK    5  A    between atoms: C_20  and  C_21
REMARK    6  A    between atoms: N_22  and  O_23
REMARK                            x       y       z     vdW  Elec       q    Type
REMARK                         _______ _______ _______ _____ _____    ______ ____
ROOT
ATOM      1  O   UNL     1       8.371  13.854  19.755  0.00  0.00    +0.000 OA
ENDROOT
BRANCH   1   2
ATOM      2  C   UNL     1       7.834  14.087  18.455  0.00  0.00    +0.000 C 
ATOM      3  C   UNL     1       8.182  15.494  17.899  0.00  0.00    +0.000 C 
ATOM      4  C   UNL     1       9.685  15.847  17.820  0.00  0.00    +0.000 C 
ATOM      5  C   UNL     1      10.293  16.293  19.151  0.00  0.00    +0.000 C 
ATOM      6  C   UNL     1      11.805  16.101  19.301  0.00  0.00    +0.000 C 
ATOM      7  C   UNL     1      12.328  14.668  19.093  0.00  0.00    +0.000 C 
ATOM      8  C   UNL     1      11.743  13.625  20.056  0.00  0.00    +0.000 C 
ATOM      9  C   UNL     1      11.970  12.175  19.595  0.00  0.00    +0.000 C 
ATOM     10  C   UNL     1      11.038  11.741  18.448  0.00  0.00    +0.000 C 
ATOM     11  C   UNL     1       9.645  11.323  18.943  0.00  0.00    +0.000 C 
ATOM     12  C   UNL     1       8.491  11.561  17.959  0.00  0.00    +0.000 C 
ATOM     13  C   UNL     1       8.291  12.995  17.449  0.00  0.00    +0.000 C 
ENDBRANCH   1   2
BRANCH   1  14
ATOM     14  C   UNL     1       7.676  14.454  20.831  0.00  0.00    +0.000 C 
BRANCH  14  19
ATOM     15  C   UNL     1       6.183  11.513  24.524  0.00  0.00    +0.000 C 
ATOM     16  N   UNL     1       7.026  12.173  23.525  0.00  0.00    +0.000 N 
ATOM     17  C   UNL     1       8.357  11.881  23.303  0.00  0.00    +0.000 A 
ATOM     18  C   UNL     1       8.769  12.686  22.283  0.00  0.00    +0.000 A 
ATOM     19  N   UNL     1       7.684  13.468  21.917  0.00  0.00    +0.000 N 
ATOM     20  C   UNL     1       6.595  13.136  22.662  0.00  0.00    +0.000 A 
BRANCH  20  21
ATOM     21  C   UNL     1       5.300  13.681  22.570  0.00  0.00    +0.000 C 
ATOM     22  N   UNL     1       4.750  14.487  23.429  0.00  0.00    +0.000 NA
BRANCH  22  23
ATOM     23  O   UNL     1       3.469  14.816  22.975  0.00  0.00    +0.000 OA
ATOM     24  H   UNL     1       3.127  13.973  22.615  0.00  0.00    +0.000 HD
ENDBRANCH  22  23
ENDBRANCH  20  21
ENDBRANCH  14  19
ENDBRANCH   1  14
TORSDOF 5
ENDMDL
MODEL 2
REMARK VINA RESULT:      -5.8      8.928     11.513
REMARK  Name = 
REMARK  6 active torsions:
REMARK  status: ('A' for Active; 'I' for Inactive)
REMARK    1  A    between atoms: C_1  and  N_2
REMARK    2  A    between atoms: N_5  and  C_6
REMARK    3  A    between atoms: C_6  and  O_7
REMARK    4  A    between atoms: O_7  and  C_8
REMARK    5  A    between atoms: C_20  and  C_21
REMARK    6  A    between atoms: N_22  and  O_23
REMARK                            x       y       z     vdW  Elec       q    Type
REMARK                         _______ _______ _______ _____ _____    ______ ____
ROOT
ATOM      1  O   UNL     1      -0.724  10.622  18.908  0.00  0.00    +0.000 OA
ENDROOT
BRANCH   1   2
ATOM      2  C   UNL     1       0.162  11.732  18.787  0.00  0.00    +0.000 C 
ATOM      3  C   UNL     1      -0.028  12.785  19.913  0.00  0.00    +0.000 C 
ATOM      4  C   UNL     1       0.113  12.270  21.363  0.00  0.00    +0.000 C 
ATOM      5  C   UNL     1      -1.135  11.566  21.901  0.00  0.00    +0.000 C 
ATOM      6  C   UNL     1      -0.907  10.560  23.034  0.00  0.00    +0.000 C 
ATOM      7  C   UNL     1       0.088   9.424  22.738  0.00  0.00    +0.000 C 
ATOM      8  C   UNL     1      -0.290   8.532  21.546  0.00  0.00    +0.000 C 
ATOM      9  C   UNL     1       0.876   7.670  21.035  0.00  0.00    +0.000 C 
ATOM     10  C   UNL     1       1.907   8.459  20.207  0.00  0.00    +0.000 C 
ATOM     11  C   UNL     1       1.467   8.658  18.748  0.00  0.00    +0.000 C 
ATOM     12  C   UNL     1       1.981   9.935  18.066  0.00  0.00    +0.000 C 
ATOM     13  C   UNL     1       1.645  11.271  18.743  0.00  0.00    +0.000 C 
ENDBRANCH   1   2
BRANCH   1  14
ATOM     14  C   UNL     1      -1.507  10.325  17.768  0.00  0.00    +0.000 C 
BRANCH  14  19
ATOM     15  C   UNL     1      -5.857  12.506  16.854  0.00  0.00    +0.000 C 
ATOM     16  N   UNL     1      -4.690  11.970  17.558  0.00  0.00    +0.000 N 
ATOM     17  C   UNL     1      -4.534  11.964  18.929  0.00  0.00    +0.000 A 
ATOM     18  C   UNL     1      -3.339  11.360  19.184  0.00  0.00    +0.000 A 
ATOM     19  N   UNL     1      -2.781  11.027  17.958  0.00  0.00    +0.000 N 
ATOM     20  C   UNL     1      -3.625  11.376  16.950  0.00  0.00    +0.000 A 
BRANCH  20  21
ATOM     21  C   UNL     1      -3.432  11.176  15.569  0.00  0.00    +0.000 C 
ATOM     22  N   UNL     1      -3.694  10.084  14.914  0.00  0.00    +0.000 NA
BRANCH  22  23
ATOM     23  O   UNL     1      -3.383  10.287  13.566  0.00  0.00    +0.000 OA
ATOM     24  H   UNL     1      -3.905  11.079  13.325  0.00  0.00    +0.000 HD
ENDBRANCH  22  23
ENDBRANCH  20  21
ENDBRANCH  14  19
ENDBRANCH   1  14
TORSDOF 5
ENDMDL
MODEL 3
REMARK VINA RESULT:      -5.7      9.287     11.811
REMARK  Name = 
REMARK  6 active torsions:
REMARK  status: ('A' for Active; 'I' for Inactive)
REMARK    1  A    between atoms: C_1  and  N_2
REMARK    2  A    between atoms: N_5  and  C_6
REMARK    3  A    between atoms: C_6  and  O_7
REMARK    4  A    between atoms: O_7  and  C_8
REMARK    5  A    between atoms: C_20  and  C_21
REMARK    6  A    between atoms: N_22  and  O_23
REMARK                            x       y       z     vdW  Elec       q    Type
REMARK                         _______ _______ _______ _____ _____    ______ ____
ROOT
ATOM      1  O   UNL     1      -1.288  11.255  19.280  0.00  0.00    +0.000 OA
ENDROOT
BRANCH   1   2
ATOM      2  C   UNL     1      -0.021  11.600  18.726  0.00  0.00    +0.000 C 
ATOM      3  C   UNL     1       0.257  13.128  18.753  0.00  0.00    +0.000 C 
ATOM      4  C   UNL     1       0.183  13.813  20.137  0.00  0.00    +0.000 C 
ATOM      5  C   UNL     1      -1.239  14.128  20.604  0.00  0.00    +0.000 C 
ATOM      6  C   UNL     1      -1.442  14.252  22.117  0.00  0.00    +0.000 C 
ATOM      7  C   UNL     1      -1.015  13.034  22.957  0.00  0.00    +0.000 C 
ATOM      8  C   UNL     1      -1.742  11.727  22.609  0.00  0.00    +0.000 C 
ATOM      9  C   UNL     1      -1.047  10.475  23.170  0.00  0.00    +0.000 C 
ATOM     10  C   UNL     1       0.211  10.066  22.382  0.00  0.00    +0.000 C 
ATOM     11  C   UNL     1      -0.119   9.266  21.113  0.00  0.00    +0.000 C 
ATOM     12  C   UNL     1       0.874   9.419  19.952  0.00  0.00    +0.000 C 
ATOM     13  C   UNL     1       1.133  10.843  19.438  0.00  0.00    +0.000 C 
ENDBRANCH   1   2
BRANCH   1  14
ATOM     14  C   UNL     1      -2.188  10.598  18.409  0.00  0.00    +0.000 C 
BRANCH  14  19
ATOM     15  C   UNL     1      -6.485  12.646  17.044  0.00  0.00    +0.000 C 
ATOM     16  N   UNL     1      -5.308  12.277  17.834  0.00  0.00    +0.000 N 
ATOM     17  C   UNL     1      -5.085  12.666  19.139  0.00  0.00    +0.000 A 
ATOM     18  C   UNL     1      -3.905  12.099  19.519  0.00  0.00    +0.000 A 
ATOM     19  N   UNL     1      -3.422  11.392  18.428  0.00  0.00    +0.000 N 
ATOM     20  C   UNL     1      -4.299  11.475  17.392  0.00  0.00    +0.000 A 
BRANCH  20  21
ATOM     21  C   UNL     1      -4.183  10.870  16.125  0.00  0.00    +0.000 C 
ATOM     22  N   UNL     1      -3.270  11.131  15.237  0.00  0.00    +0.000 NA
BRANCH  22  23
ATOM     23  O   UNL     1      -3.483  10.314  14.123  0.00  0.00    +0.000 OA
ATOM     24  H   UNL     1      -4.457  10.310  14.022  0.00  0.00    +0.000 HD
ENDBRANCH  22  23
ENDBRANCH  20  21
ENDBRANCH  14  19
ENDBRANCH   1  14
TORSDOF 5
ENDMDL
MODEL 4
REMARK VINA RESULT:      -5.5      8.772     11.674
REMARK  Name = 
REMARK  6 active torsions:
REMARK  status: ('A' for Active; 'I' for Inactive)
REMARK    1  A    between atoms: C_1  and  N_2
REMARK    2  A    between atoms: N_5  and  C_6
REMARK    3  A    between atoms: C_6  and  O_7
REMARK    4  A    between atoms: O_7  and  C_8
REMARK    5  A    between atoms: C_20  and  C_21
REMARK    6  A    between atoms: N_22  and  O_23
REMARK                            x       y       z     vdW  Elec       q    Type
REMARK                         _______ _______ _______ _____ _____    ______ ____
ROOT
ATOM      1  O   UNL     1       3.820   4.064  18.330  0.00  0.00    +0.000 OA
ENDROOT
BRANCH   1   2
ATOM      2  C   UNL     1       2.861   3.857  17.296  0.00  0.00    +0.000 C 
ATOM      3  C   UNL     1       2.163   2.473  17.384  0.00  0.00    +0.000 C 
ATOM      4  C   UNL     1       1.446   2.151  18.716  0.00  0.00    +0.000 C 
ATOM      5  C   UNL     1       2.381   1.680  19.832  0.00  0.00    +0.000 C 
ATOM      6  C   UNL     1       1.886   1.896  21.265  0.00  0.00    +0.000 C 
ATOM      7  C   UNL     1       1.524   3.344  21.642  0.00  0.00    +0.000 C 
ATOM      8  C   UNL     1       2.678   4.349  21.512  0.00  0.00    +0.000 C 
ATOM      9  C   UNL     1       2.213   5.815  21.516  0.00  0.00    +0.000 C 
ATOM     10  C   UNL     1       1.581   6.263  20.185  0.00  0.00    +0.000 C 
ATOM     11  C   UNL     1       2.631   6.640  19.128  0.00  0.00    +0.000 C 
ATOM     12  C   UNL     1       2.218   6.408  17.667  0.00  0.00    +0.000 C 
ATOM     13  C   UNL     1       1.793   4.985  17.279  0.00  0.00    +0.000 C 
ENDBRANCH   1   2
BRANCH   1  14
ATOM     14  C   UNL     1       5.169   3.814  17.986  0.00  0.00    +0.000 C 
BRANCH  14  19
ATOM     15  C   UNL     1       7.698   8.051  17.580  0.00  0.00    +0.000 C 
ATOM     16  N   UNL     1       6.811   6.926  17.278  0.00  0.00    +0.000 N 
ATOM     17  C   UNL     1       6.147   6.749  16.081  0.00  0.00    +0.000 A 
ATOM     18  C   UNL     1       5.453   5.579  16.188  0.00  0.00    +0.000 A 
ATOM     19  N   UNL     1       5.693   5.078  17.459  0.00  0.00    +0.000 N 
ATOM     20  C   UNL     1       6.555   5.892  18.127  0.00  0.00    +0.000 A 
BRANCH  20  21
ATOM     21  C   UNL     1       7.065   5.709  19.427  0.00  0.00    +0.000 C 
ATOM     22  N   UNL     1       8.209   5.167  19.728  0.00  0.00    +0.000 NA
BRANCH  22  23
ATOM     23  O   UNL     1       8.359   5.183  21.118  0.00  0.00    +0.000 OA
ATOM     24  H   UNL     1       8.109   4.277  21.389  0.00  0.00    +0.000 HD
ENDBRANCH  22  23
ENDBRANCH  20  21
ENDBRANCH  14  19
ENDBRANCH   1  14
TORSDOF 5
ENDMDL
MODEL 5
REMARK VINA RESULT:      -5.4      0.641      2.580
REMARK  Name = 
REMARK  6 active torsions:
REMARK  status: ('A' for Active; 'I' for Inactive)
REMARK    1  A    between atoms: C_1  and  N_2
REMARK    2  A    between atoms: N_5  and  C_6
REMARK    3  A    between atoms: C_6  and  O_7
REMARK    4  A    between atoms: O_7  and  C_8
REMARK    5  A    between atoms: C_20  and  C_21
REMARK    6  A    between atoms: N_22  and  O_23
REMARK                            x       y       z     vdW  Elec       q    Type
REMARK                         _______ _______ _______ _____ _____    ______ ____
ROOT
ATOM      1  O   UNL     1       8.860  14.557  20.239  0.00  0.00    +0.000 OA
ENDROOT
BRANCH   1   2
ATOM      2  C   UNL     1       9.479  15.663  19.587  0.00  0.00    +0.000 C 
ATOM      3  C   UNL     1      11.029  15.625  19.667  0.00  0.00    +0.000 C 
ATOM      4  C   UNL     1      11.712  14.353  19.115  0.00  0.00    +0.000 C 
ATOM      5  C   UNL     1      11.697  13.165  20.079  0.00  0.00    +0.000 C 
ATOM      6  C   UNL     1      11.808  11.777  19.443  0.00  0.00    +0.000 C 
ATOM      7  C   UNL     1      10.746  11.433  18.382  0.00  0.00    +0.000 C 
ATOM      8  C   UNL     1       9.296  11.476  18.888  0.00  0.00    +0.000 C 
ATOM      9  C   UNL     1       8.256  11.514  17.755  0.00  0.00    +0.000 C 
ATOM     10  C   UNL     1       8.134  12.892  17.080  0.00  0.00    +0.000 C 
ATOM     11  C   UNL     1       7.247  13.864  17.873  0.00  0.00    +0.000 C 
ATOM     12  C   UNL     1       7.600  15.352  17.734  0.00  0.00    +0.000 C 
ATOM     13  C   UNL     1       9.031  15.767  18.103  0.00  0.00    +0.000 C 
ENDBRANCH   1   2
BRANCH   1  14
ATOM     14  C   UNL     1       7.928  14.877  21.254  0.00  0.00    +0.000 C 
BRANCH  14  19
ATOM     15  C   UNL     1       6.108  11.408  24.282  0.00  0.00    +0.000 C 
ATOM     16  N   UNL     1       7.015  12.156  23.409  0.00  0.00    +0.000 N 
ATOM     17  C   UNL     1       8.284  11.744  23.057  0.00  0.00    +0.000 A 
ATOM     18  C   UNL     1       8.786  12.695  22.219  0.00  0.00    +0.000 A 
ATOM     19  N   UNL     1       7.817  13.680  22.094  0.00  0.00    +0.000 N 
ATOM     20  C   UNL     1       6.709  13.338  22.805  0.00  0.00    +0.000 A 
BRANCH  20  21
ATOM     21  C   UNL     1       5.504  14.061  22.905  0.00  0.00    +0.000 C 
ATOM     22  N   UNL     1       4.397  13.786  22.279  0.00  0.00    +0.000 NA
BRANCH  22  23
ATOM     23  O   UNL     1       3.429  14.722  22.654  0.00  0.00    +0.000 OA
ATOM     24  H   UNL     1       2.983  14.944  21.812  0.00  0.00    +0.000 HD
ENDBRANCH  22  23
ENDBRANCH  20  21
ENDBRANCH  14  19
ENDBRANCH   1  14
TORSDOF 5
ENDMDL
MODEL 6
REMARK VINA RESULT:      -5.4      8.774     11.707
REMARK  Name = 
REMARK  6 active torsions:
REMARK  status: ('A' for Active; 'I' for Inactive)
REMARK    1  A    between atoms: C_1  and  N_2
REMARK    2  A    between atoms: N_5  and  C_6
REMARK    3  A    between atoms: C_6  and  O_7
REMARK    4  A    between atoms: O_7  and  C_8
REMARK    5  A    between atoms: C_20  and  C_21
REMARK    6  A    between atoms: N_22  and  O_23
REMARK                            x       y       z     vdW  Elec       q    Type
REMARK                         _______ _______ _______ _____ _____    ______ ____
ROOT
ATOM      1  O   UNL     1      -1.355  11.320  19.947  0.00  0.00    +0.000 OA
ENDROOT
BRANCH   1   2
ATOM      2  C   UNL     1      -0.239  10.520  20.329  0.00  0.00    +0.000 C 
ATOM      3  C   UNL     1       1.040  10.830  19.505  0.00  0.00    +0.000 C 
ATOM      4  C   UNL     1       1.527  12.297  19.522  0.00  0.00    +0.000 C 
ATOM      5  C   UNL     1       0.766  13.220  18.568  0.00  0.00    +0.000 C 
ATOM      6  C   UNL     1       0.770  14.710  18.923  0.00  0.00    +0.000 C 
ATOM      7  C   UNL     1       0.241  15.071  20.323  0.00  0.00    +0.000 C 
ATOM      8  C   UNL     1      -1.211  14.648  20.590  0.00  0.00    +0.000 C 
ATOM      9  C   UNL     1      -1.586  14.665  22.082  0.00  0.00    +0.000 C 
ATOM     10  C   UNL     1      -1.019  13.470  22.871  0.00  0.00    +0.000 C 
ATOM     11  C   UNL     1      -1.869  12.200  22.713  0.00  0.00    +0.000 C 
ATOM     12  C   UNL     1      -1.105  10.871  22.817  0.00  0.00    +0.000 C 
ATOM     13  C   UNL     1       0.066  10.661  21.846  0.00  0.00    +0.000 C 
ENDBRANCH   1   2
BRANCH   1  14
ATOM     14  C   UNL     1      -1.926  11.028  18.686  0.00  0.00    +0.000 C 
BRANCH  14  19
ATOM     15  C   UNL     1      -6.505  12.341  17.337  0.00  0.00    +0.000 C 
ATOM     16  N   UNL     1      -5.270  12.198  18.110  0.00  0.00    +0.000 N 
ATOM     17  C   UNL     1      -5.078  12.694  19.384  0.00  0.00    +0.000 A 
ATOM     18  C   UNL     1      -3.819  12.329  19.759  0.00  0.00    +0.000 A 
ATOM     19  N   UNL     1      -3.261  11.634  18.697  0.00  0.00    +0.000 N 
ATOM     20  C   UNL     1      -4.164  11.525  17.685  0.00  0.00    +0.000 A 
BRANCH  20  21
ATOM     21  C   UNL     1      -3.988  10.865  16.453  0.00  0.00    +0.000 C 
ATOM     22  N   UNL     1      -3.324  11.323  15.432  0.00  0.00    +0.000 NA
BRANCH  22  23
ATOM     23  O   UNL     1      -3.366  10.371  14.409  0.00  0.00    +0.000 OA
ATOM     24  H   UNL     1      -2.739   9.682  14.709  0.00  0.00    +0.000 HD
ENDBRANCH  22  23
ENDBRANCH  20  21
ENDBRANCH  14  19
ENDBRANCH   1  14
TORSDOF 5
ENDMDL
MODEL 7
REMARK VINA RESULT:      -5.3      6.415      9.707
REMARK  Name = 
REMARK  6 active torsions:
REMARK  status: ('A' for Active; 'I' for Inactive)
REMARK    1  A    between atoms: C_1  and  N_2
REMARK    2  A    between atoms: N_5  and  C_6
REMARK    3  A    between atoms: C_6  and  O_7
REMARK    4  A    between atoms: O_7  and  C_8
REMARK    5  A    between atoms: C_20  and  C_21
REMARK    6  A    between atoms: N_22  and  O_23
REMARK                            x       y       z     vdW  Elec       q    Type
REMARK                         _______ _______ _______ _____ _____    ______ ____
ROOT
ATOM      1  O   UNL     1       0.244  12.719  20.702  0.00  0.00    +0.000 OA
ENDROOT
BRANCH   1   2
ATOM      2  C   UNL     1      -0.959  12.813  19.944  0.00  0.00    +0.000 C 
ATOM      3  C   UNL     1      -0.861  12.112  18.561  0.00  0.00    +0.000 C 
ATOM      4  C   UNL     1      -0.469  10.616  18.578  0.00  0.00    +0.000 C 
ATOM      5  C   UNL     1       1.031  10.364  18.741  0.00  0.00    +0.000 C 
ATOM      6  C   UNL     1       1.428   9.008  19.332  0.00  0.00    +0.000 C 
ATOM      7  C   UNL     1       0.821   8.666  20.705  0.00  0.00    +0.000 C 
ATOM      8  C   UNL     1       1.172   9.656  21.826  0.00  0.00    +0.000 C 
ATOM      9  C   UNL     1       0.267   9.521  23.063  0.00  0.00    +0.000 C 
ATOM     10  C   UNL     1      -1.133  10.131  22.868  0.00  0.00    +0.000 C 
ATOM     11  C   UNL     1      -1.149  11.654  23.071  0.00  0.00    +0.000 C 
ATOM     12  C   UNL     1      -2.203  12.422  22.259  0.00  0.00    +0.000 C 
ATOM     13  C   UNL     1      -2.172  12.249  20.734  0.00  0.00    +0.000 C 
ENDBRANCH   1   2
BRANCH   1  14
ATOM     14  C   UNL     1       0.785  13.943  21.162  0.00  0.00    +0.000 C 
BRANCH  14  19
ATOM     15  C   UNL     1       3.024  16.455  17.529  0.00  0.00    +0.000 C 
ATOM     16  N   UNL     1       2.750  15.463  18.572  0.00  0.00    +0.000 N 
ATOM     17  C   UNL     1       3.630  14.474  18.966  0.00  0.00    +0.000 A 
ATOM     18  C   UNL     1       3.017  13.785  19.970  0.00  0.00    +0.000 A 
ATOM     19  N   UNL     1       1.766  14.356  20.153  0.00  0.00    +0.000 N 
ATOM     20  C   UNL     1       1.607  15.412  19.311  0.00  0.00    +0.000 A 
BRANCH  20  21
ATOM     21  C   UNL     1       0.491  16.266  19.216  0.00  0.00    +0.000 C 
ATOM     22  N   UNL     1      -0.461  16.179  18.333  0.00  0.00    +0.000 NA
BRANCH  22  23
ATOM     23  O   UNL     1      -1.391  17.193  18.580  0.00  0.00    +0.000 OA
ATOM     24  H   UNL     1      -1.872  16.879  19.372  0.00  0.00    +0.000 HD
ENDBRANCH  22  23
ENDBRANCH  20  21
ENDBRANCH  14  19
ENDBRANCH   1  14
TORSDOF 5
ENDMDL
MODEL 8
REMARK VINA RESULT:      -5.3      5.717      9.246
REMARK  Name = 
REMARK  6 active torsions:
REMARK  status: ('A' for Active; 'I' for Inactive)
REMARK    1  A    between atoms: C_1  and  N_2
REMARK    2  A    between atoms: N_5  and  C_6
REMARK    3  A    between atoms: C_6  and  O_7
REMARK    4  A    between atoms: O_7  and  C_8
REMARK    5  A    between atoms: C_20  and  C_21
REMARK    6  A    between atoms: N_22  and  O_23
REMARK                            x       y       z     vdW  Elec       q    Type
REMARK                         _______ _______ _______ _____ _____    ______ ____
ROOT
ATOM      1  O   UNL     1       0.325  12.556  20.525  0.00  0.00    +0.000 OA
ENDROOT
BRANCH   1   2
ATOM      2  C   UNL     1      -0.895  12.599  19.790  0.00  0.00    +0.000 C 
ATOM      3  C   UNL     1      -0.829  11.806  18.456  0.00  0.00    +0.000 C 
ATOM      4  C   UNL     1      -0.436  10.315  18.565  0.00  0.00    +0.000 C 
ATOM      5  C   UNL     1       1.068  10.073  18.709  0.00  0.00    +0.000 C 
ATOM      6  C   UNL     1       1.479   8.759  19.381  0.00  0.00    +0.000 C 
ATOM      7  C   UNL     1       0.905   8.511  20.788  0.00  0.00    +0.000 C 
ATOM      8  C   UNL     1       1.281   9.574  21.831  0.00  0.00    +0.000 C 
ATOM      9  C   UNL     1       0.405   9.524  23.095  0.00  0.00    +0.000 C 
ATOM     10  C   UNL     1      -0.999  10.121  22.892  0.00  0.00    +0.000 C 
ATOM     11  C   UNL     1      -1.012  11.654  22.992  0.00  0.00    +0.000 C 
ATOM     12  C   UNL     1      -2.084  12.367  22.155  0.00  0.00    +0.000 C 
ATOM     13  C   UNL     1      -2.089  12.091  20.645  0.00  0.00    +0.000 C 
ENDBRANCH   1   2
BRANCH   1  14
ATOM     14  C   UNL     1       0.844  13.804  20.941  0.00  0.00    +0.000 C 
BRANCH  14  19
ATOM     15  C   UNL     1       5.335  14.992  19.228  0.00  0.00    +0.000 C 
ATOM     16  N   UNL     1       3.921  14.614  19.281  0.00  0.00    +0.000 N 
ATOM     17  C   UNL     1       3.141  14.333  18.177  0.00  0.00    +0.000 A 
ATOM     18  C   UNL     1       1.905  14.000  18.647  0.00  0.00    +0.000 A 
ATOM     19  N   UNL     1       1.952  14.106  20.029  0.00  0.00    +0.000 N 
ATOM     20  C   UNL     1       3.204  14.458  20.428  0.00  0.00    +0.000 A 
BRANCH  20  21
ATOM     21  C   UNL     1       3.658  14.635  21.750  0.00  0.00    +0.000 C 
ATOM     22  N   UNL     1       4.347  13.774  22.440  0.00  0.00    +0.000 NA
BRANCH  22  23
ATOM     23  O   UNL     1       4.619  14.325  23.696  0.00  0.00    +0.000 OA
ATOM     24  H   UNL     1       5.211  13.667  24.114  0.00  0.00    +0.000 HD
ENDBRANCH  22  23
ENDBRANCH  20  21
ENDBRANCH  14  19
ENDBRANCH   1  14
TORSDOF 5
ENDMDL
MODEL 9
REMARK VINA RESULT:      -5.2      9.546     12.069
REMARK  Name = 
REMARK  6 active torsions:
REMARK  status: ('A' for Active; 'I' for Inactive)
REMARK    1  A    between atoms: C_1  and  N_2
REMARK    2  A    between atoms: N_5  and  C_6
REMARK    3  A    between atoms: C_6  and  O_7
REMARK    4  A    between atoms: O_7  and  C_8
REMARK    5  A    between atoms: C_20  and  C_21
REMARK    6  A    between atoms: N_22  and  O_23
REMARK                            x       y       z     vdW  Elec       q    Type
REMARK                         _______ _______ _______ _____ _____    ______ ____
ROOT
ATOM      1  O   UNL     1      -2.433  13.670  20.417  0.00  0.00    +0.000 OA
ENDROOT
BRANCH   1   2
ATOM      2  C   UNL     1      -1.720  14.765  20.985  0.00  0.00    +0.000 C 
ATOM      3  C   UNL     1      -1.504  14.621  22.516  0.00  0.00    +0.000 C 
ATOM      4  C   UNL     1      -0.782  13.338  22.987  0.00  0.00    +0.000 C 
ATOM      5  C   UNL     1      -1.684  12.104  23.063  0.00  0.00    +0.000 C 
ATOM      6  C   UNL     1      -0.983  10.747  22.949  0.00  0.00    +0.000 C 
ATOM      7  C   UNL     1      -0.129  10.532  21.686  0.00  0.00    +0.000 C 
ATOM      8  C   UNL     1      -0.902  10.642  20.363  0.00  0.00    +0.000 C 
ATOM      9  C   UNL     1       0.012  10.809  19.137  0.00  0.00    +0.000 C 
ATOM     10  C   UNL     1       0.596  12.226  18.994  0.00  0.00    +0.000 C 
ATOM     11  C   UNL     1      -0.389  13.211  18.345  0.00  0.00    +0.000 C 
ATOM     12  C   UNL     1      -0.245  14.678  18.777  0.00  0.00    +0.000 C 
ATOM     13  C   UNL     1      -0.353  14.978  20.278  0.00  0.00    +0.000 C 
ENDBRANCH   1   2
BRANCH   1  14
ATOM     14  C   UNL     1      -3.829  13.652  20.646  0.00  0.00    +0.000 C 
BRANCH  14  19
ATOM     15  C   UNL     1      -6.887  10.277  18.702  0.00  0.00    +0.000 C 
ATOM     16  N   UNL     1      -5.708  11.112  18.943  0.00  0.00    +0.000 N 
ATOM     17  C   UNL     1      -4.561  11.092  18.174  0.00  0.00    +0.000 A 
ATOM     18  C   UNL     1      -3.720  12.024  18.705  0.00  0.00    +0.000 A 
ATOM     19  N   UNL     1      -4.364  12.579  19.801  0.00  0.00    +0.000 N 
ATOM     20  C   UNL     1      -5.605  12.039  19.936  0.00  0.00    +0.000 A 
BRANCH  20  21
ATOM     21  C   UNL     1      -6.574  12.362  20.905  0.00  0.00    +0.000 C 
ATOM     22  N   UNL     1      -6.738  11.763  22.047  0.00  0.00    +0.000 NA
BRANCH  22  23
ATOM     23  O   UNL     1      -7.788  12.384  22.731  0.00  0.00    +0.000 OA
ATOM     24  H   UNL     1      -7.585  12.212  23.673  0.00  0.00    +0.000 HD
ENDBRANCH  22  23
ENDBRANCH  20  21
ENDBRANCH  14  19
ENDBRANCH   1  14
TORSDOF 5
ENDMDL
