MODEL 1
REMARK VINA RESULT:      -8.3      0.000      0.000
REMARK  Name = 
REMARK  8 active torsions:
REMARK  status: ('A' for Active; 'I' for Inactive)
REMARK    1  A    between atoms: C_2  and  C_3
REMARK    2  A    between atoms: C_3  and  O_4
REMARK    3  A    between atoms: O_4  and  C_5
REMARK    4  A    between atoms: C_10  and  N_11
REMARK    5  A    between atoms: N_14  and  N_15
REMARK    6  A    between atoms: C_16  and  C_17
REMARK    7  A    between atoms: C_20  and  O_21
REMARK    8  A    between atoms: C_22  and  N_23
REMARK                            x       y       z     vdW  Elec       q    Type
REMARK                         _______ _______ _______ _____ _____    ______ ____
ROOT
ATOM      1  O   UNL     1       7.956   5.680  19.778  0.00  0.00    +0.000 OA
ATOM      2  C   UNL     1       7.538   5.959  18.654  0.00  0.00    +0.000 C 
ATOM      3  N   UNL     1       7.751   7.159  17.995  0.00  0.00    +0.000 N 
ATOM      4  H   UNL     1       7.317   7.341  17.096  0.00  0.00    +0.000 HD
ENDROOT
BRANCH   3   5
ATOM      5  N   UNL     1       8.497   8.124  18.595  0.00  0.00    +0.000 NA
ATOM      6  C   UNL     1       8.384   9.312  18.101  0.00  0.00    +0.000 C 
BRANCH   6   7
ATOM      7  C   UNL     1       9.125  10.450  18.676  0.00  0.00    +0.000 A 
ATOM      8  C   UNL     1       9.389  10.507  20.053  0.00  0.00    +0.000 A 
ATOM      9  C   UNL     1      10.092  11.591  20.593  0.00  0.00    +0.000 A 
ATOM     10  C   UNL     1      10.529  12.617  19.758  0.00  0.00    +0.000 A 
ATOM     11  C   UNL     1      10.245  12.554  18.392  0.00  0.00    +0.000 A 
ATOM     12  C   UNL     1       9.550  11.474  17.832  0.00  0.00    +0.000 A 
BRANCH  11  13
ATOM     13  N   UNL     1      10.665  13.618  17.506  0.00  0.00    +0.000 N 
ATOM     14  O   UNL     1      10.229  14.755  17.724  0.00  0.00    +0.000 OA
ATOM     15  O   UNL     1      11.369  13.288  16.538  0.00  0.00    +0.000 OA
ENDBRANCH  11  13
BRANCH  10  16
ATOM     16  O   UNL     1      11.250  13.651  20.275  0.00  0.00    +0.000 OA
ATOM     17  H   UNL     1      12.190  13.406  20.333  0.00  0.00    +0.000 HD
ENDBRANCH  10  16
ENDBRANCH   6   7
ENDBRANCH   3   5
BRANCH   2  18
ATOM     18  C   UNL     1       6.776   4.942  17.817  0.00  0.00    +0.000 C 
BRANCH  18  19
ATOM     19  O   UNL     1       5.949   4.091  18.606  0.00  0.00    +0.000 OA
BRANCH  19  20
ATOM     20  C   UNL     1       4.602   4.334  18.502  0.00  0.00    +0.000 A 
ATOM     21  C   UNL     1       4.077   5.553  18.064  0.00  0.00    +0.000 A 
ATOM     22  C   UNL     1       2.694   5.754  17.970  0.00  0.00    +0.000 A 
ATOM     23  C   UNL     1       1.810   4.723  18.281  0.00  0.00    +0.000 A 
ATOM     24  C   UNL     1       2.306   3.486  18.682  0.00  0.00    +0.000 A 
ATOM     25  C   UNL     1       3.694   3.306  18.793  0.00  0.00    +0.000 A 
BRANCH  25  26
ATOM     26  N   UNL     1       4.162   2.025  19.284  0.00  0.00    +0.000 N 
ATOM     27  O   UNL     1       4.726   2.012  20.388  0.00  0.00    +0.000 OA
ATOM     28  O   UNL     1       3.893   1.026  18.600  0.00  0.00    +0.000 OA
ENDBRANCH  25  26
ENDBRANCH  19  20
ENDBRANCH  18  19
ENDBRANCH   2  18
TORSDOF 8
ENDMDL
MODEL 2
REMARK VINA RESULT:      -7.8      2.312      3.134
REMARK  Name = 
REMARK  8 active torsions:
REMARK  status: ('A' for Active; 'I' for Inactive)
REMARK    1  A    between atoms: C_2  and  C_3
REMARK    2  A    between atoms: C_3  and  O_4
REMARK    3  A    between atoms: O_4  and  C_5
REMARK    4  A    between atoms: C_10  and  N_11
REMARK    5  A    between atoms: N_14  and  N_15
REMARK    6  A    between atoms: C_16  and  C_17
REMARK    7  A    between atoms: C_20  and  O_21
REMARK    8  A    between atoms: C_22  and  N_23
REMARK                            x       y       z     vdW  Elec       q    Type
REMARK                         _______ _______ _______ _____ _____    ______ ____
ROOT
ATOM      1  O   UNL     1       7.377   7.549  16.851  0.00  0.00    +0.000 OA
ATOM      2  C   UNL     1       7.835   7.387  17.983  0.00  0.00    +0.000 C 
ATOM      3  N   UNL     1       8.539   8.336  18.706  0.00  0.00    +0.000 N 
ATOM      4  H   UNL     1       8.943   8.105  19.608  0.00  0.00    +0.000 HD
ENDROOT
BRANCH   3   5
ATOM      5  N   UNL     1       8.743   9.566  18.166  0.00  0.00    +0.000 NA
ATOM      6  C   UNL     1       9.449  10.383  18.875  0.00  0.00    +0.000 C 
BRANCH   6   7
ATOM      7  C   UNL     1       9.759  11.740  18.390  0.00  0.00    +0.000 A 
ATOM      8  C   UNL     1      10.882  11.971  17.581  0.00  0.00    +0.000 A 
ATOM      9  C   UNL     1      11.170  13.263  17.125  0.00  0.00    +0.000 A 
ATOM     10  C   UNL     1      10.338  14.323  17.480  0.00  0.00    +0.000 A 
ATOM     11  C   UNL     1       9.234  14.081  18.299  0.00  0.00    +0.000 A 
ATOM     12  C   UNL     1       8.924  12.793  18.758  0.00  0.00    +0.000 A 
BRANCH  11  13
ATOM     13  N   UNL     1       8.368  15.168  18.702  0.00  0.00    +0.000 N 
ATOM     14  O   UNL     1       7.754  15.774  17.816  0.00  0.00    +0.000 OA
ATOM     15  O   UNL     1       8.375  15.465  19.908  0.00  0.00    +0.000 OA
ENDBRANCH  11  13
BRANCH  10  16
ATOM     16  O   UNL     1      10.594  15.574  17.002  0.00  0.00    +0.000 OA
ATOM     17  H   UNL     1      11.515  15.630  16.691  0.00  0.00    +0.000 HD
ENDBRANCH  10  16
ENDBRANCH   6   7
ENDBRANCH   3   5
BRANCH   2  18
ATOM     18  C   UNL     1       7.598   6.098  18.757  0.00  0.00    +0.000 C 
BRANCH  18  19
ATOM     19  O   UNL     1       7.274   5.000  17.907  0.00  0.00    +0.000 OA
BRANCH  19  20
ATOM     20  C   UNL     1       5.972   4.571  17.986  0.00  0.00    +0.000 A 
ATOM     21  C   UNL     1       5.321   4.322  19.198  0.00  0.00    +0.000 A 
ATOM     22  C   UNL     1       3.990   3.890  19.230  0.00  0.00    +0.000 A 
ATOM     23  C   UNL     1       3.273   3.732  18.046  0.00  0.00    +0.000 A 
ATOM     24  C   UNL     1       3.882   4.011  16.827  0.00  0.00    +0.000 A 
ATOM     25  C   UNL     1       5.225   4.423  16.808  0.00  0.00    +0.000 A 
BRANCH  25  26
ATOM     26  N   UNL     1       5.840   4.632  15.514  0.00  0.00    +0.000 N 
ATOM     27  O   UNL     1       6.364   3.649  14.968  0.00  0.00    +0.000 OA
ATOM     28  O   UNL     1       5.728   5.760  15.011  0.00  0.00    +0.000 OA
ENDBRANCH  25  26
ENDBRANCH  19  20
ENDBRANCH  18  19
ENDBRANCH   2  18
TORSDOF 8
ENDMDL
MODEL 3
REMARK VINA RESULT:      -7.7      2.115      2.535
REMARK  Name = 
REMARK  8 active torsions:
REMARK  status: ('A' for Active; 'I' for Inactive)
REMARK    1  A    between atoms: C_2  and  C_3
REMARK    2  A    between atoms: C_3  and  O_4
REMARK    3  A    between atoms: O_4  and  C_5
REMARK    4  A    between atoms: C_10  and  N_11
REMARK    5  A    between atoms: N_14  and  N_15
REMARK    6  A    between atoms: C_16  and  C_17
REMARK    7  A    between atoms: C_20  and  O_21
REMARK    8  A    between atoms: C_22  and  N_23
REMARK                            x       y       z     vdW  Elec       q    Type
REMARK                         _______ _______ _______ _____ _____    ______ ____
ROOT
ATOM      1  O   UNL     1       8.046   6.295  18.839  0.00  0.00    +0.000 OA
ATOM      2  C   UNL     1       7.381   6.818  17.943  0.00  0.00    +0.000 C 
ATOM      3  N   UNL     1       7.588   8.087  17.428  0.00  0.00    +0.000 N 
ATOM      4  H   UNL     1       6.956   8.476  16.736  0.00  0.00    +0.000 HD
ENDROOT
BRANCH   3   5
ATOM      5  N   UNL     1       8.613   8.840  17.908  0.00  0.00    +0.000 NA
ATOM      6  C   UNL     1       8.374  10.104  18.032  0.00  0.00    +0.000 C 
BRANCH   6   7
ATOM      7  C   UNL     1       9.398  11.024  18.562  0.00  0.00    +0.000 A 
ATOM      8  C   UNL     1       9.750  10.995  19.920  0.00  0.00    +0.000 A 
ATOM      9  C   UNL     1      10.721  11.872  20.416  0.00  0.00    +0.000 A 
ATOM     10  C   UNL     1      11.339  12.778  19.556  0.00  0.00    +0.000 A 
ATOM     11  C   UNL     1      10.966  12.807  18.210  0.00  0.00    +0.000 A 
ATOM     12  C   UNL     1      10.001  11.931  17.694  0.00  0.00    +0.000 A 
BRANCH  11  13
ATOM     13  N   UNL     1      11.573  13.754  17.301  0.00  0.00    +0.000 N 
ATOM     14  O   UNL     1      11.304  14.952  17.454  0.00  0.00    +0.000 OA
ATOM     15  O   UNL     1      12.254  13.279  16.378  0.00  0.00    +0.000 OA
ENDBRANCH  11  13
BRANCH  10  16
ATOM     16  O   UNL     1      12.315  13.604  20.029  0.00  0.00    +0.000 OA
ATOM     17  H   UNL     1      12.891  13.119  20.645  0.00  0.00    +0.000 HD
ENDBRANCH  10  16
ENDBRANCH   6   7
ENDBRANCH   3   5
BRANCH   2  18
ATOM     18  C   UNL     1       6.267   6.059  17.237  0.00  0.00    +0.000 C 
BRANCH  18  19
ATOM     19  O   UNL     1       4.969   6.478  17.653  0.00  0.00    +0.000 OA
BRANCH  19  20
ATOM     20  C   UNL     1       4.015   5.491  17.655  0.00  0.00    +0.000 A 
ATOM     21  C   UNL     1       4.262   4.188  17.211  0.00  0.00    +0.000 A 
ATOM     22  C   UNL     1       3.258   3.213  17.236  0.00  0.00    +0.000 A 
ATOM     23  C   UNL     1       1.994   3.516  17.738  0.00  0.00    +0.000 A 
ATOM     24  C   UNL     1       1.731   4.794  18.223  0.00  0.00    +0.000 A 
ATOM     25  C   UNL     1       2.741   5.768  18.172  0.00  0.00    +0.000 A 
BRANCH  25  26
ATOM     26  N   UNL     1       2.401   7.103  18.620  0.00  0.00    +0.000 N 
ATOM     27  O   UNL     1       2.204   7.962  17.748  0.00  0.00    +0.000 OA
ATOM     28  O   UNL     1       2.256   7.269  19.841  0.00  0.00    +0.000 OA
ENDBRANCH  25  26
ENDBRANCH  19  20
ENDBRANCH  18  19
ENDBRANCH   2  18
TORSDOF 8
ENDMDL
MODEL 4
REMARK VINA RESULT:      -7.7      2.254      2.968
REMARK  Name = 
REMARK  8 active torsions:
REMARK  status: ('A' for Active; 'I' for Inactive)
REMARK    1  A    between atoms: C_2  and  C_3
REMARK    2  A    between atoms: C_3  and  O_4
REMARK    3  A    between atoms: O_4  and  C_5
REMARK    4  A    between atoms: C_10  and  N_11
REMARK    5  A    between atoms: N_14  and  N_15
REMARK    6  A    between atoms: C_16  and  C_17
REMARK    7  A    between atoms: C_20  and  O_21
REMARK    8  A    between atoms: C_22  and  N_23
REMARK                            x       y       z     vdW  Elec       q    Type
REMARK                         _______ _______ _______ _____ _____    ______ ____
ROOT
ATOM      1  O   UNL     1       6.294   7.240  16.699  0.00  0.00    +0.000 OA
ATOM      2  C   UNL     1       6.934   6.852  17.676  0.00  0.00    +0.000 C 
ATOM      3  N   UNL     1       7.981   7.537  18.273  0.00  0.00    +0.000 N 
ATOM      4  H   UNL     1       8.505   7.121  19.036  0.00  0.00    +0.000 HD
ENDROOT
BRANCH   3   5
ATOM      5  N   UNL     1       8.345   8.751  17.783  0.00  0.00    +0.000 NA
ATOM      6  C   UNL     1       8.822   9.587  18.644  0.00  0.00    +0.000 C 
BRANCH   6   7
ATOM      7  C   UNL     1       9.273  10.929  18.234  0.00  0.00    +0.000 A 
ATOM      8  C   UNL     1      10.600  11.145  17.830  0.00  0.00    +0.000 A 
ATOM      9  C   UNL     1      11.021  12.422  17.443  0.00  0.00    +0.000 A 
ATOM     10  C   UNL     1      10.119  13.484  17.461  0.00  0.00    +0.000 A 
ATOM     11  C   UNL     1       8.806  13.258  17.881  0.00  0.00    +0.000 A 
ATOM     12  C   UNL     1       8.364  11.984  18.265  0.00  0.00    +0.000 A 
BRANCH  11  13
ATOM     13  N   UNL     1       7.855  14.346  17.933  0.00  0.00    +0.000 N 
ATOM     14  O   UNL     1       8.200  15.385  18.510  0.00  0.00    +0.000 OA
ATOM     15  O   UNL     1       6.727  14.120  17.467  0.00  0.00    +0.000 OA
ENDBRANCH  11  13
BRANCH  10  16
ATOM     16  O   UNL     1      10.516  14.719  17.044  0.00  0.00    +0.000 OA
ATOM     17  H   UNL     1       9.739  15.275  16.862  0.00  0.00    +0.000 HD
ENDBRANCH  10  16
ENDBRANCH   6   7
ENDBRANCH   3   5
BRANCH   2  18
ATOM     18  C   UNL     1       6.575   5.560  18.398  0.00  0.00    +0.000 C 
BRANCH  18  19
ATOM     19  O   UNL     1       5.336   5.649  19.095  0.00  0.00    +0.000 OA
BRANCH  19  20
ATOM     20  C   UNL     1       4.315   4.902  18.560  0.00  0.00    +0.000 A 
ATOM     21  C   UNL     1       4.449   3.550  18.231  0.00  0.00    +0.000 A 
ATOM     22  C   UNL     1       3.379   2.827  17.691  0.00  0.00    +0.000 A 
ATOM     23  C   UNL     1       2.141   3.437  17.503  0.00  0.00    +0.000 A 
ATOM     24  C   UNL     1       1.967   4.771  17.858  0.00  0.00    +0.000 A 
ATOM     25  C   UNL     1       3.055   5.491  18.379  0.00  0.00    +0.000 A 
BRANCH  25  26
ATOM     26  N   UNL     1       2.849   6.895  18.667  0.00  0.00    +0.000 N 
ATOM     27  O   UNL     1       2.430   7.188  19.797  0.00  0.00    +0.000 OA
ATOM     28  O   UNL     1       3.181   7.706  17.790  0.00  0.00    +0.000 OA
ENDBRANCH  25  26
ENDBRANCH  19  20
ENDBRANCH  18  19
ENDBRANCH   2  18
TORSDOF 8
ENDMDL
MODEL 5
REMARK VINA RESULT:      -7.6      0.710      1.036
REMARK  Name = 
REMARK  8 active torsions:
REMARK  status: ('A' for Active; 'I' for Inactive)
REMARK    1  A    between atoms: C_2  and  C_3
REMARK    2  A    between atoms: C_3  and  O_4
REMARK    3  A    between atoms: O_4  and  C_5
REMARK    4  A    between atoms: C_10  and  N_11
REMARK    5  A    between atoms: N_14  and  N_15
REMARK    6  A    between atoms: C_16  and  C_17
REMARK    7  A    between atoms: C_20  and  O_21
REMARK    8  A    between atoms: C_22  and  N_23
REMARK                            x       y       z     vdW  Elec       q    Type
REMARK                         _______ _______ _______ _____ _____    ______ ____
ROOT
ATOM      1  O   UNL     1       7.266   6.016  19.722  0.00  0.00    +0.000 OA
ATOM      2  C   UNL     1       7.184   6.114  18.498  0.00  0.00    +0.000 C 
ATOM      3  N   UNL     1       7.717   7.143  17.738  0.00  0.00    +0.000 N 
ATOM      4  H   UNL     1       7.550   7.190  16.739  0.00  0.00    +0.000 HD
ENDROOT
BRANCH   3   5
ATOM      5  N   UNL     1       8.415   8.133  18.357  0.00  0.00    +0.000 NA
ATOM      6  C   UNL     1       8.171   9.334  17.948  0.00  0.00    +0.000 C 
BRANCH   6   7
ATOM      7  C   UNL     1       8.848  10.495  18.554  0.00  0.00    +0.000 A 
ATOM      8  C   UNL     1       9.663  10.338  19.685  0.00  0.00    +0.000 A 
ATOM      9  C   UNL     1      10.301  11.445  20.255  0.00  0.00    +0.000 A 
ATOM     10  C   UNL     1      10.124  12.710  19.696  0.00  0.00    +0.000 A 
ATOM     11  C   UNL     1       9.297  12.854  18.580  0.00  0.00    +0.000 A 
ATOM     12  C   UNL     1       8.656  11.755  17.991  0.00  0.00    +0.000 A 
BRANCH  11  13
ATOM     13  N   UNL     1       9.076  14.158  17.995  0.00  0.00    +0.000 N 
ATOM     14  O   UNL     1       7.906  14.516  17.811  0.00  0.00    +0.000 OA
ATOM     15  O   UNL     1      10.087  14.786  17.641  0.00  0.00    +0.000 OA
ENDBRANCH  11  13
BRANCH  10  16
ATOM     16  O   UNL     1      10.778  13.782  20.225  0.00  0.00    +0.000 OA
ATOM     17  H   UNL     1      10.326  14.083  21.032  0.00  0.00    +0.000 HD
ENDBRANCH  10  16
ENDBRANCH   6   7
ENDBRANCH   3   5
BRANCH   2  18
ATOM     18  C   UNL     1       6.522   5.030  17.658  0.00  0.00    +0.000 C 
BRANCH  18  19
ATOM     19  O   UNL     1       5.807   4.085  18.448  0.00  0.00    +0.000 OA
BRANCH  19  20
ATOM     20  C   UNL     1       4.442   4.238  18.441  0.00  0.00    +0.000 A 
ATOM     21  C   UNL     1       3.807   5.402  17.997  0.00  0.00    +0.000 A 
ATOM     22  C   UNL     1       2.411   5.512  18.004  0.00  0.00    +0.000 A 
ATOM     23  C   UNL     1       1.623   4.442  18.424  0.00  0.00    +0.000 A 
ATOM     24  C   UNL     1       2.227   3.258  18.833  0.00  0.00    +0.000 A 
ATOM     25  C   UNL     1       3.628   3.169  18.842  0.00  0.00    +0.000 A 
BRANCH  25  26
ATOM     26  N   UNL     1       4.215   1.943  19.344  0.00  0.00    +0.000 N 
ATOM     27  O   UNL     1       4.065   0.919  18.660  0.00  0.00    +0.000 OA
ATOM     28  O   UNL     1       4.891   2.024  20.380  0.00  0.00    +0.000 OA
ENDBRANCH  25  26
ENDBRANCH  19  20
ENDBRANCH  18  19
ENDBRANCH   2  18
TORSDOF 8
ENDMDL
MODEL 6
REMARK VINA RESULT:      -7.6      1.661      2.176
REMARK  Name = 
REMARK  8 active torsions:
REMARK  status: ('A' for Active; 'I' for Inactive)
REMARK    1  A    between atoms: C_2  and  C_3
REMARK    2  A    between atoms: C_3  and  O_4
REMARK    3  A    between atoms: O_4  and  C_5
REMARK    4  A    between atoms: C_10  and  N_11
REMARK    5  A    between atoms: N_14  and  N_15
REMARK    6  A    between atoms: C_16  and  C_17
REMARK    7  A    between atoms: C_20  and  O_21
REMARK    8  A    between atoms: C_22  and  N_23
REMARK                            x       y       z     vdW  Elec       q    Type
REMARK                         _______ _______ _______ _____ _____    ______ ____
ROOT
ATOM      1  O   UNL     1       6.351   7.137  16.587  0.00  0.00    +0.000 OA
ATOM      2  C   UNL     1       6.930   6.769  17.609  0.00  0.00    +0.000 C 
ATOM      3  N   UNL     1       7.932   7.471  18.260  0.00  0.00    +0.000 N 
ATOM      4  H   UNL     1       8.409   7.071  19.061  0.00  0.00    +0.000 HD
ENDROOT
BRANCH   3   5
ATOM      5  N   UNL     1       8.320   8.680  17.774  0.00  0.00    +0.000 NA
ATOM      6  C   UNL     1       8.782   9.515  18.644  0.00  0.00    +0.000 C 
BRANCH   6   7
ATOM      7  C   UNL     1       9.255  10.852  18.239  0.00  0.00    +0.000 A 
ATOM      8  C   UNL     1      10.595  11.056  17.875  0.00  0.00    +0.000 A 
ATOM      9  C   UNL     1      11.037  12.327  17.494  0.00  0.00    +0.000 A 
ATOM     10  C   UNL     1      10.142  13.395  17.478  0.00  0.00    +0.000 A 
ATOM     11  C   UNL     1       8.816  13.181  17.858  0.00  0.00    +0.000 A 
ATOM     12  C   UNL     1       8.353  11.913  18.235  0.00  0.00    +0.000 A 
BRANCH  11  13
ATOM     13  N   UNL     1       7.872  14.277  17.874  0.00  0.00    +0.000 N 
ATOM     14  O   UNL     1       8.240  15.347  18.372  0.00  0.00    +0.000 OA
ATOM     15  O   UNL     1       6.727  14.029  17.461  0.00  0.00    +0.000 OA
ENDBRANCH  11  13
BRANCH  10  16
ATOM     16  O   UNL     1      10.562  14.625  17.066  0.00  0.00    +0.000 OA
ATOM     17  H   UNL     1      11.453  14.561  16.680  0.00  0.00    +0.000 HD
ENDBRANCH  10  16
ENDBRANCH   6   7
ENDBRANCH   3   5
BRANCH   2  18
ATOM     18  C   UNL     1       6.534   5.487  18.327  0.00  0.00    +0.000 C 
BRANCH  18  19
ATOM     19  O   UNL     1       5.304   4.948  17.848  0.00  0.00    +0.000 OA
BRANCH  19  20
ATOM     20  C   UNL     1       4.218   5.176  18.657  0.00  0.00    +0.000 A 
ATOM     21  C   UNL     1       3.611   6.429  18.786  0.00  0.00    +0.000 A 
ATOM     22  C   UNL     1       2.502   6.613  19.620  0.00  0.00    +0.000 A 
ATOM     23  C   UNL     1       1.956   5.535  20.315  0.00  0.00    +0.000 A 
ATOM     24  C   UNL     1       2.515   4.269  20.174  0.00  0.00    +0.000 A 
ATOM     25  C   UNL     1       3.641   4.103  19.351  0.00  0.00    +0.000 A 
BRANCH  25  26
ATOM     26  N   UNL     1       4.233   2.782  19.291  0.00  0.00    +0.000 N 
ATOM     27  O   UNL     1       3.794   2.001  18.434  0.00  0.00    +0.000 OA
ATOM     28  O   UNL     1       5.188   2.557  20.049  0.00  0.00    +0.000 OA
ENDBRANCH  25  26
ENDBRANCH  19  20
ENDBRANCH  18  19
ENDBRANCH   2  18
TORSDOF 8
ENDMDL
MODEL 7
REMARK VINA RESULT:      -7.5      6.074      8.281
REMARK  Name = 
REMARK  8 active torsions:
REMARK  status: ('A' for Active; 'I' for Inactive)
REMARK    1  A    between atoms: C_2  and  C_3
REMARK    2  A    between atoms: C_3  and  O_4
REMARK    3  A    between atoms: O_4  and  C_5
REMARK    4  A    between atoms: C_10  and  N_11
REMARK    5  A    between atoms: N_14  and  N_15
REMARK    6  A    between atoms: C_16  and  C_17
REMARK    7  A    between atoms: C_20  and  O_21
REMARK    8  A    between atoms: C_22  and  N_23
REMARK                            x       y       z     vdW  Elec       q    Type
REMARK                         _______ _______ _______ _____ _____    ______ ____
ROOT
ATOM      1  O   UNL     1       1.918   4.609  21.218  0.00  0.00    +0.000 OA
ATOM      2  C   UNL     1       2.552   5.227  20.362  0.00  0.00    +0.000 C 
ATOM      3  N   UNL     1       2.431   6.582  20.098  0.00  0.00    +0.000 N 
ATOM      4  H   UNL     1       2.939   7.008  19.331  0.00  0.00    +0.000 HD
ENDROOT
BRANCH   3   5
ATOM      5  N   UNL     1       1.569   7.329  20.838  0.00  0.00    +0.000 NA
ATOM      6  C   UNL     1       1.439   8.562  20.477  0.00  0.00    +0.000 C 
BRANCH   6   7
ATOM      7  C   UNL     1       0.518   9.470  21.185  0.00  0.00    +0.000 A 
ATOM      8  C   UNL     1       0.211   9.263  22.539  0.00  0.00    +0.000 A 
ATOM      9  C   UNL     1      -0.665  10.128  23.205  0.00  0.00    +0.000 A 
ATOM     10  C   UNL     1      -1.235  11.198  22.518  0.00  0.00    +0.000 A 
ATOM     11  C   UNL     1      -0.933  11.383  21.168  0.00  0.00    +0.000 A 
ATOM     12  C   UNL     1      -0.052  10.531  20.486  0.00  0.00    +0.000 A 
BRANCH  11  13
ATOM     13  N   UNL     1      -1.530  12.471  20.425  0.00  0.00    +0.000 N 
ATOM     14  O   UNL     1      -1.291  13.625  20.801  0.00  0.00    +0.000 OA
ATOM     15  O   UNL     1      -2.313  12.156  19.513  0.00  0.00    +0.000 OA
ENDBRANCH  11  13
BRANCH  10  16
ATOM     16  O   UNL     1      -2.055  12.066  23.177  0.00  0.00    +0.000 OA
ATOM     17  H   UNL     1      -2.982  11.789  23.074  0.00  0.00    +0.000 HD
ENDBRANCH  10  16
ENDBRANCH   6   7
ENDBRANCH   3   5
BRANCH   2  18
ATOM     18  C   UNL     1       3.628   4.548  19.526  0.00  0.00    +0.000 C 
BRANCH  18  19
ATOM     19  O   UNL     1       4.574   5.472  18.996  0.00  0.00    +0.000 OA
BRANCH  19  20
ATOM     20  C   UNL     1       5.239   5.040  17.875  0.00  0.00    +0.000 A 
ATOM     21  C   UNL     1       4.595   4.441  16.788  0.00  0.00    +0.000 A 
ATOM     22  C   UNL     1       5.315   4.019  15.663  0.00  0.00    +0.000 A 
ATOM     23  C   UNL     1       6.691   4.222  15.591  0.00  0.00    +0.000 A 
ATOM     24  C   UNL     1       7.352   4.852  16.641  0.00  0.00    +0.000 A 
ATOM     25  C   UNL     1       6.622   5.250  17.772  0.00  0.00    +0.000 A 
BRANCH  25  26
ATOM     26  N   UNL     1       7.362   5.836  18.871  0.00  0.00    +0.000 N 
ATOM     27  O   UNL     1       7.931   6.918  18.660  0.00  0.00    +0.000 OA
ATOM     28  O   UNL     1       7.307   5.252  19.963  0.00  0.00    +0.000 OA
ENDBRANCH  25  26
ENDBRANCH  19  20
ENDBRANCH  18  19
ENDBRANCH   2  18
TORSDOF 8
ENDMDL
MODEL 8
REMARK VINA RESULT:      -7.4      6.727      9.450
REMARK  Name = 
REMARK  8 active torsions:
REMARK  status: ('A' for Active; 'I' for Inactive)
REMARK    1  A    between atoms: C_2  and  C_3
REMARK    2  A    between atoms: C_3  and  O_4
REMARK    3  A    between atoms: O_4  and  C_5
REMARK    4  A    between atoms: C_10  and  N_11
REMARK    5  A    between atoms: N_14  and  N_15
REMARK    6  A    between atoms: C_16  and  C_17
REMARK    7  A    between atoms: C_20  and  O_21
REMARK    8  A    between atoms: C_22  and  N_23
REMARK                            x       y       z     vdW  Elec       q    Type
REMARK                         _______ _______ _______ _____ _____    ______ ____
ROOT
ATOM      1  O   UNL     1       1.104   9.520  20.301  0.00  0.00    +0.000 OA
ATOM      2  C   UNL     1       0.989  10.223  19.297  0.00  0.00    +0.000 C 
ATOM      3  N   UNL     1       1.248   9.814  17.998  0.00  0.00    +0.000 N 
ATOM      4  H   UNL     1       1.195  10.472  17.228  0.00  0.00    +0.000 HD
ENDROOT
BRANCH   3   5
ATOM      5  N   UNL     1       1.640   8.533  17.771  0.00  0.00    +0.000 NA
ATOM      6  C   UNL     1       2.912   8.315  17.826  0.00  0.00    +0.000 C 
BRANCH   6   7
ATOM      7  C   UNL     1       3.463   6.963  17.618  0.00  0.00    +0.000 A 
ATOM      8  C   UNL     1       2.798   5.835  18.122  0.00  0.00    +0.000 A 
ATOM      9  C   UNL     1       3.327   4.555  17.922  0.00  0.00    +0.000 A 
ATOM     10  C   UNL     1       4.521   4.402  17.221  0.00  0.00    +0.000 A 
ATOM     11  C   UNL     1       5.180   5.535  16.739  0.00  0.00    +0.000 A 
ATOM     12  C   UNL     1       4.662   6.824  16.923  0.00  0.00    +0.000 A 
BRANCH  11  13
ATOM     13  N   UNL     1       6.434   5.406  16.029  0.00  0.00    +0.000 N 
ATOM     14  O   UNL     1       6.442   5.672  14.821  0.00  0.00    +0.000 OA
ATOM     15  O   UNL     1       7.393   4.953  16.674  0.00  0.00    +0.000 OA
ENDBRANCH  11  13
BRANCH  10  16
ATOM     16  O   UNL     1       5.015   3.153  16.989  0.00  0.00    +0.000 OA
ATOM     17  H   UNL     1       5.238   2.722  17.832  0.00  0.00    +0.000 HD
ENDBRANCH  10  16
ENDBRANCH   6   7
ENDBRANCH   3   5
BRANCH   2  18
ATOM     18  C   UNL     1       0.461  11.648  19.382  0.00  0.00    +0.000 C 
BRANCH  18  19
ATOM     19  O   UNL     1      -0.447  11.960  18.328  0.00  0.00    +0.000 OA
BRANCH  19  20
ATOM     20  C   UNL     1      -1.765  12.044  18.705  0.00  0.00    +0.000 A 
ATOM     21  C   UNL     1      -2.194  12.756  19.829  0.00  0.00    +0.000 A 
ATOM     22  C   UNL     1      -3.550  12.817  20.172  0.00  0.00    +0.000 A 
ATOM     23  C   UNL     1      -4.507  12.194  19.374  0.00  0.00    +0.000 A 
ATOM     24  C   UNL     1      -4.112  11.512  18.227  0.00  0.00    +0.000 A 
ATOM     25  C   UNL     1      -2.747  11.440  17.907  0.00  0.00    +0.000 A 
BRANCH  25  26
ATOM     26  N   UNL     1      -2.376  10.659  16.745  0.00  0.00    +0.000 N 
ATOM     27  O   UNL     1      -2.635  11.139  15.631  0.00  0.00    +0.000 OA
ATOM     28  O   UNL     1      -1.755   9.605  16.948  0.00  0.00    +0.000 OA
ENDBRANCH  25  26
ENDBRANCH  19  20
ENDBRANCH  18  19
ENDBRANCH   2  18
TORSDOF 8
ENDMDL
MODEL 9
REMARK VINA RESULT:      -7.4      1.270      1.589
REMARK  Name = 
REMARK  8 active torsions:
REMARK  status: ('A' for Active; 'I' for Inactive)
REMARK    1  A    between atoms: C_2  and  C_3
REMARK    2  A    between atoms: C_3  and  O_4
REMARK    3  A    between atoms: O_4  and  C_5
REMARK    4  A    between atoms: C_10  and  N_11
REMARK    5  A    between atoms: N_14  and  N_15
REMARK    6  A    between atoms: C_16  and  C_17
REMARK    7  A    between atoms: C_20  and  O_21
REMARK    8  A    between atoms: C_22  and  N_23
REMARK                            x       y       z     vdW  Elec       q    Type
REMARK                         _______ _______ _______ _____ _____    ______ ____
ROOT
ATOM      1  O   UNL     1       7.605   6.015  18.627  0.00  0.00    +0.000 OA
ATOM      2  C   UNL     1       7.378   6.502  17.519  0.00  0.00    +0.000 C 
ATOM      3  N   UNL     1       7.600   7.823  17.163  0.00  0.00    +0.000 N 
ATOM      4  H   UNL     1       7.325   8.166  16.249  0.00  0.00    +0.000 HD
ENDROOT
BRANCH   3   5
ATOM      5  N   UNL     1       8.131   8.677  18.077  0.00  0.00    +0.000 NA
ATOM      6  C   UNL     1       8.479   9.837  17.629  0.00  0.00    +0.000 C 
BRANCH   6   7
ATOM      7  C   UNL     1       9.049  10.861  18.524  0.00  0.00    +0.000 A 
ATOM      8  C   UNL     1       9.475  10.521  19.818  0.00  0.00    +0.000 A 
ATOM      9  C   UNL     1      10.013  11.498  20.663  0.00  0.00    +0.000 A 
ATOM     10  C   UNL     1      10.124  12.813  20.218  0.00  0.00    +0.000 A 
ATOM     11  C   UNL     1       9.681  13.140  18.934  0.00  0.00    +0.000 A 
ATOM     12  C   UNL     1       9.147  12.174  18.070  0.00  0.00    +0.000 A 
BRANCH  11  13
ATOM     13  N   UNL     1       9.762  14.502  18.455  0.00  0.00    +0.000 N 
ATOM     14  O   UNL     1       9.132  15.369  19.074  0.00  0.00    +0.000 OA
ATOM     15  O   UNL     1      10.392  14.684  17.401  0.00  0.00    +0.000 OA
ENDBRANCH  11  13
BRANCH  10  16
ATOM     16  O   UNL     1      10.687  13.757  21.024  0.00  0.00    +0.000 OA
ATOM     17  H   UNL     1      11.192  13.327  21.736  0.00  0.00    +0.000 HD
ENDBRANCH  10  16
ENDBRANCH   6   7
ENDBRANCH   3   5
BRANCH   2  18
ATOM     18  C   UNL     1       6.880   5.646  16.363  0.00  0.00    +0.000 C 
BRANCH  18  19
ATOM     19  O   UNL     1       5.740   4.865  16.712  0.00  0.00    +0.000 OA
BRANCH  19  20
ATOM     20  C   UNL     1       4.746   5.550  17.367  0.00  0.00    +0.000 A 
ATOM     21  C   UNL     1       4.321   6.827  16.987  0.00  0.00    +0.000 A 
ATOM     22  C   UNL     1       3.300   7.486  17.682  0.00  0.00    +0.000 A 
ATOM     23  C   UNL     1       2.661   6.864  18.752  0.00  0.00    +0.000 A 
ATOM     24  C   UNL     1       3.036   5.578  19.127  0.00  0.00    +0.000 A 
ATOM     25  C   UNL     1       4.076   4.936  18.435  0.00  0.00    +0.000 A 
BRANCH  25  26
ATOM     26  N   UNL     1       4.483   3.628  18.906  0.00  0.00    +0.000 N 
ATOM     27  O   UNL     1       3.875   2.647  18.453  0.00  0.00    +0.000 OA
ATOM     28  O   UNL     1       5.460   3.581  19.668  0.00  0.00    +0.000 OA
ENDBRANCH  25  26
ENDBRANCH  19  20
ENDBRANCH  18  19
ENDBRANCH   2  18
TORSDOF 8
ENDMDL
