MODEL 1
REMARK VINA RESULT:      -6.6      0.000      0.000
REMARK  Name = 
REMARK  10 active torsions:
REMARK  status: ('A' for Active; 'I' for Inactive)
REMARK    1  A    between atoms: C_1  and  O_2
REMARK    2  A    between atoms: O_2  and  C_3
REMARK    3  A    between atoms: C_3  and  C_4
REMARK    4  A    between atoms: C_4  and  N_5
REMARK    5  A    between atoms: C_9  and  C_10
REMARK    6  A    between atoms: C_10  and  N_11
REMARK    7  A    between atoms: C_14  and  C_15
REMARK    8  A    between atoms: C_14  and  O_16
REMARK    9  A    between atoms: C_17  and  C_18
REMARK   10  A    between atoms: C_17  and  C_19
REMARK                            x       y       z     vdW  Elec       q    Type
REMARK                         _______ _______ _______ _____ _____    ______ ____
ROOT
ATOM      1  N   UNL     1       4.493   5.106  18.616  0.00  0.00    +0.000 NA
ATOM      2  C   UNL     1       3.682   5.658  19.693  0.00  0.00    +0.000 C 
ATOM      3  C   UNL     1       2.402   4.923  20.080  0.00  0.00    +0.000 C 
ATOM      4  C   UNL     1       2.342   3.396  19.861  0.00  0.00    +0.000 C 
ATOM      5  C   UNL     1       0.851   3.018  19.724  0.00  0.00    +0.000 C 
ATOM      6  C   UNL     1       3.229   2.851  18.685  0.00  0.00    +0.000 C 
ATOM      7  C   UNL     1       2.553   2.870  17.295  0.00  0.00    +0.000 C 
ATOM      8  C   UNL     1       3.587   1.354  18.937  0.00  0.00    +0.000 C 
ATOM      9  C   UNL     1       4.564   3.645  18.631  0.00  0.00    +0.000 C 
ENDROOT
BRANCH   4  10
ATOM     10  O   UNL     1       2.801   2.750  21.069  0.00  0.00    +0.000 OA
ATOM     11  H   UNL     1       3.418   3.324  21.547  0.00  0.00    +0.000 HD
ENDBRANCH   4  10
BRANCH   1  12
ATOM     12  C   UNL     1       4.288   5.755  17.321  0.00  0.00    +0.000 C 
BRANCH  12  17
ATOM     13  N   UNL     1       6.642   5.587  16.278  0.00  0.00    +0.000 N 
ATOM     14  C   UNL     1       7.180   4.931  15.198  0.00  0.00    +0.000 A 
ATOM     15  C   UNL     1       6.153   4.262  14.605  0.00  0.00    +0.000 A 
ATOM     16  N   UNL     1       4.981   4.478  15.277  0.00  0.00    +0.000 NA
ATOM     17  C   UNL     1       5.290   5.277  16.295  0.00  0.00    +0.000 A 
BRANCH  13  18
ATOM     18  C   UNL     1       7.390   6.226  17.350  0.00  0.00    +0.000 C 
BRANCH  18  19
ATOM     19  C   UNL     1       7.381   7.756  17.460  0.00  0.00    +0.000 C 
BRANCH  19  21
ATOM     20  C   UNL     1       8.605   9.651  18.264  0.00  0.00    +0.000 C 
ATOM     21  O   UNL     1       8.361   8.258  18.375  0.00  0.00    +0.000 OA
ENDBRANCH  19  21
ENDBRANCH  18  19
ENDBRANCH  13  18
ENDBRANCH  12  17
ENDBRANCH   1  12
TORSDOF 6
ENDMDL
MODEL 2
REMARK VINA RESULT:      -6.6      2.032      6.248
REMARK  Name = 
REMARK  10 active torsions:
REMARK  status: ('A' for Active; 'I' for Inactive)
REMARK    1  A    between atoms: C_1  and  O_2
REMARK    2  A    between atoms: O_2  and  C_3
REMARK    3  A    between atoms: C_3  and  C_4
REMARK    4  A    between atoms: C_4  and  N_5
REMARK    5  A    between atoms: C_9  and  C_10
REMARK    6  A    between atoms: C_10  and  N_11
REMARK    7  A    between atoms: C_14  and  C_15
REMARK    8  A    between atoms: C_14  and  O_16
REMARK    9  A    between atoms: C_17  and  C_18
REMARK   10  A    between atoms: C_17  and  C_19
REMARK                            x       y       z     vdW  Elec       q    Type
REMARK                         _______ _______ _______ _____ _____    ______ ____
ROOT
ATOM      1  N   UNL     1       4.258   4.592  18.206  0.00  0.00    +0.000 NA
ATOM      2  C   UNL     1       4.618   3.374  17.493  0.00  0.00    +0.000 C 
ATOM      3  C   UNL     1       5.571   3.488  16.307  0.00  0.00    +0.000 C 
ATOM      4  C   UNL     1       6.601   4.638  16.306  0.00  0.00    +0.000 C 
ATOM      5  C   UNL     1       6.972   4.909  14.832  0.00  0.00    +0.000 C 
ATOM      6  C   UNL     1       6.163   5.932  17.082  0.00  0.00    +0.000 C 
ATOM      7  C   UNL     1       5.339   6.943  16.252  0.00  0.00    +0.000 C 
ATOM      8  C   UNL     1       7.423   6.726  17.546  0.00  0.00    +0.000 C 
ATOM      9  C   UNL     1       5.371   5.529  18.357  0.00  0.00    +0.000 C 
ENDROOT
BRANCH   4  10
ATOM     10  O   UNL     1       7.810   4.159  16.933  0.00  0.00    +0.000 OA
ATOM     11  H   UNL     1       8.250   3.504  16.371  0.00  0.00    +0.000 HD
ENDBRANCH   4  10
BRANCH   1  12
ATOM     12  C   UNL     1       2.961   5.148  17.819  0.00  0.00    +0.000 C 
BRANCH  12  17
ATOM     13  N   UNL     1       2.072   5.898  20.123  0.00  0.00    +0.000 N 
ATOM     14  C   UNL     1       1.732   7.102  20.687  0.00  0.00    +0.000 A 
ATOM     15  C   UNL     1       1.928   8.045  19.724  0.00  0.00    +0.000 A 
ATOM     16  N   UNL     1       2.381   7.471  18.568  0.00  0.00    +0.000 NA
ATOM     17  C   UNL     1       2.472   6.168  18.823  0.00  0.00    +0.000 A 
BRANCH  13  18
ATOM     18  C   UNL     1       2.262   4.643  20.837  0.00  0.00    +0.000 C 
BRANCH  18  19
ATOM     19  C   UNL     1       1.166   3.572  20.771  0.00  0.00    +0.000 C 
BRANCH  19  21
ATOM     20  C   UNL     1       1.079   2.259  18.769  0.00  0.00    +0.000 C 
ATOM     21  O   UNL     1       1.584   2.384  20.089  0.00  0.00    +0.000 OA
ENDBRANCH  19  21
ENDBRANCH  18  19
ENDBRANCH  13  18
ENDBRANCH  12  17
ENDBRANCH   1  12
TORSDOF 6
ENDMDL
MODEL 3
REMARK VINA RESULT:      -6.6      3.791      5.768
REMARK  Name = 
REMARK  10 active torsions:
REMARK  status: ('A' for Active; 'I' for Inactive)
REMARK    1  A    between atoms: C_1  and  O_2
REMARK    2  A    between atoms: O_2  and  C_3
REMARK    3  A    between atoms: C_3  and  C_4
REMARK    4  A    between atoms: C_4  and  N_5
REMARK    5  A    between atoms: C_9  and  C_10
REMARK    6  A    between atoms: C_10  and  N_11
REMARK    7  A    between atoms: C_14  and  C_15
REMARK    8  A    between atoms: C_14  and  O_16
REMARK    9  A    between atoms: C_17  and  C_18
REMARK   10  A    between atoms: C_17  and  C_19
REMARK                            x       y       z     vdW  Elec       q    Type
REMARK                         _______ _______ _______ _____ _____    ______ ____
ROOT
ATOM      1  N   UNL     1       2.825   5.898  18.566  0.00  0.00    +0.000 NA
ATOM      2  C   UNL     1       4.260   5.659  18.490  0.00  0.00    +0.000 C 
ATOM      3  C   UNL     1       4.805   4.355  19.065  0.00  0.00    +0.000 C 
ATOM      4  C   UNL     1       3.882   3.117  19.071  0.00  0.00    +0.000 C 
ATOM      5  C   UNL     1       4.381   2.187  20.198  0.00  0.00    +0.000 C 
ATOM      6  C   UNL     1       2.344   3.427  19.161  0.00  0.00    +0.000 C 
ATOM      7  C   UNL     1       1.794   3.590  20.597  0.00  0.00    +0.000 C 
ATOM      8  C   UNL     1       1.526   2.248  18.549  0.00  0.00    +0.000 C 
ATOM      9  C   UNL     1       2.021   4.699  18.328  0.00  0.00    +0.000 C 
ENDROOT
BRANCH   4  10
ATOM     10  O   UNL     1       4.093   2.392  17.840  0.00  0.00    +0.000 OA
ATOM     11  H   UNL     1       3.388   1.743  17.702  0.00  0.00    +0.000 HD
ENDBRANCH   4  10
BRANCH   1  12
ATOM     12  C   UNL     1       2.423   6.766  19.674  0.00  0.00    +0.000 C 
BRANCH  12  17
ATOM     13  N   UNL     1       1.039   8.940  19.814  0.00  0.00    +0.000 N 
ATOM     14  C   UNL     1       0.930  10.072  19.045  0.00  0.00    +0.000 A 
ATOM     15  C   UNL     1       1.770   9.899  17.986  0.00  0.00    +0.000 A 
ATOM     16  N   UNL     1       2.404   8.689  18.063  0.00  0.00    +0.000 NA
ATOM     17  C   UNL     1       1.960   8.118  19.180  0.00  0.00    +0.000 A 
BRANCH  13  18
ATOM     18  C   UNL     1       0.525   8.772  21.165  0.00  0.00    +0.000 C 
BRANCH  18  19
ATOM     19  C   UNL     1       1.356   9.282  22.350  0.00  0.00    +0.000 C 
BRANCH  19  21
ATOM     20  C   UNL     1      -0.743  10.143  23.119  0.00  0.00    +0.000 C 
ATOM     21  O   UNL     1       0.553   9.682  23.466  0.00  0.00    +0.000 OA
ENDBRANCH  19  21
ENDBRANCH  18  19
ENDBRANCH  13  18
ENDBRANCH  12  17
ENDBRANCH   1  12
TORSDOF 6
ENDMDL
MODEL 4
REMARK VINA RESULT:      -6.4      1.098      1.297
REMARK  Name = 
REMARK  10 active torsions:
REMARK  status: ('A' for Active; 'I' for Inactive)
REMARK    1  A    between atoms: C_1  and  O_2
REMARK    2  A    between atoms: O_2  and  C_3
REMARK    3  A    between atoms: C_3  and  C_4
REMARK    4  A    between atoms: C_4  and  N_5
REMARK    5  A    between atoms: C_9  and  C_10
REMARK    6  A    between atoms: C_10  and  N_11
REMARK    7  A    between atoms: C_14  and  C_15
REMARK    8  A    between atoms: C_14  and  O_16
REMARK    9  A    between atoms: C_17  and  C_18
REMARK   10  A    between atoms: C_17  and  C_19
REMARK                            x       y       z     vdW  Elec       q    Type
REMARK                         _______ _______ _______ _____ _____    ______ ____
ROOT
ATOM      1  N   UNL     1       4.429   3.985  17.935  0.00  0.00    +0.000 NA
ATOM      2  C   UNL     1       4.702   4.443  19.291  0.00  0.00    +0.000 C 
ATOM      3  C   UNL     1       3.520   4.639  20.236  0.00  0.00    +0.000 C 
ATOM      4  C   UNL     1       2.263   3.769  20.024  0.00  0.00    +0.000 C 
ATOM      5  C   UNL     1       1.072   4.542  20.632  0.00  0.00    +0.000 C 
ATOM      6  C   UNL     1       2.009   3.306  18.544  0.00  0.00    +0.000 C 
ATOM      7  C   UNL     1       1.213   4.307  17.675  0.00  0.00    +0.000 C 
ATOM      8  C   UNL     1       1.157   1.999  18.533  0.00  0.00    +0.000 C 
ATOM      9  C   UNL     1       3.367   2.982  17.862  0.00  0.00    +0.000 C 
ENDROOT
BRANCH   4  10
ATOM     10  O   UNL     1       2.403   2.573  20.821  0.00  0.00    +0.000 OA
ATOM     11  H   UNL     1       2.316   2.780  21.763  0.00  0.00    +0.000 HD
ENDBRANCH   4  10
BRANCH   1  12
ATOM     12  C   UNL     1       4.412   5.054  16.936  0.00  0.00    +0.000 C 
BRANCH  12  17
ATOM     13  N   UNL     1       6.824   4.990  16.022  0.00  0.00    +0.000 N 
ATOM     14  C   UNL     1       7.397   4.663  14.818  0.00  0.00    +0.000 A 
ATOM     15  C   UNL     1       6.373   4.329  13.984  0.00  0.00    +0.000 A 
ATOM     16  N   UNL     1       5.170   4.437  14.626  0.00  0.00    +0.000 NA
ATOM     17  C   UNL     1       5.455   4.831  15.865  0.00  0.00    +0.000 A 
BRANCH  13  18
ATOM     18  C   UNL     1       7.529   5.170  17.283  0.00  0.00    +0.000 C 
BRANCH  18  19
ATOM     19  C   UNL     1       7.453   6.527  17.994  0.00  0.00    +0.000 C 
BRANCH  19  21
ATOM     20  C   UNL     1       7.970   8.850  17.721  0.00  0.00    +0.000 C 
ATOM     21  O   UNL     1       7.581   7.637  17.097  0.00  0.00    +0.000 OA
ENDBRANCH  19  21
ENDBRANCH  18  19
ENDBRANCH  13  18
ENDBRANCH  12  17
ENDBRANCH   1  12
TORSDOF 6
ENDMDL
MODEL 5
REMARK VINA RESULT:      -6.4      2.003      6.158
REMARK  Name = 
REMARK  10 active torsions:
REMARK  status: ('A' for Active; 'I' for Inactive)
REMARK    1  A    between atoms: C_1  and  O_2
REMARK    2  A    between atoms: O_2  and  C_3
REMARK    3  A    between atoms: C_3  and  C_4
REMARK    4  A    between atoms: C_4  and  N_5
REMARK    5  A    between atoms: C_9  and  C_10
REMARK    6  A    between atoms: C_10  and  N_11
REMARK    7  A    between atoms: C_14  and  C_15
REMARK    8  A    between atoms: C_14  and  O_16
REMARK    9  A    between atoms: C_17  and  C_18
REMARK   10  A    between atoms: C_17  and  C_19
REMARK                            x       y       z     vdW  Elec       q    Type
REMARK                         _______ _______ _______ _____ _____    ______ ____
ROOT
ATOM      1  N   UNL     1       4.316   4.415  18.063  0.00  0.00    +0.000 NA
ATOM      2  C   UNL     1       4.686   3.284  17.223  0.00  0.00    +0.000 C 
ATOM      3  C   UNL     1       5.655   3.530  16.070  0.00  0.00    +0.000 C 
ATOM      4  C   UNL     1       6.684   4.672  16.211  0.00  0.00    +0.000 C 
ATOM      5  C   UNL     1       7.074   5.107  14.782  0.00  0.00    +0.000 C 
ATOM      6  C   UNL     1       6.235   5.871  17.122  0.00  0.00    +0.000 C 
ATOM      7  C   UNL     1       5.422   6.969  16.400  0.00  0.00    +0.000 C 
ATOM      8  C   UNL     1       7.489   6.606  17.689  0.00  0.00    +0.000 C 
ATOM      9  C   UNL     1       5.427   5.328  18.333  0.00  0.00    +0.000 C 
ENDROOT
BRANCH   4  10
ATOM     10  O   UNL     1       7.885   4.125  16.797  0.00  0.00    +0.000 OA
ATOM     11  H   UNL     1       7.691   3.720  17.655  0.00  0.00    +0.000 HD
ENDBRANCH   4  10
BRANCH   1  12
ATOM     12  C   UNL     1       3.024   5.012  17.725  0.00  0.00    +0.000 C 
BRANCH  12  17
ATOM     13  N   UNL     1       1.808   5.332  19.978  0.00  0.00    +0.000 N 
ATOM     14  C   UNL     1       1.507   6.410  20.774  0.00  0.00    +0.000 A 
ATOM     15  C   UNL     1       1.987   7.509  20.129  0.00  0.00    +0.000 A 
ATOM     16  N   UNL     1       2.581   7.157  18.948  0.00  0.00    +0.000 NA
ATOM     17  C   UNL     1       2.474   5.833  18.869  0.00  0.00    +0.000 A 
BRANCH  13  18
ATOM     18  C   UNL     1       1.716   3.932  20.365  0.00  0.00    +0.000 C 
BRANCH  18  19
ATOM     19  C   UNL     1       2.093   3.525  21.795  0.00  0.00    +0.000 C 
BRANCH  19  21
ATOM     20  C   UNL     1       3.853   2.287  20.743  0.00  0.00    +0.000 C 
ATOM     21  O   UNL     1       2.963   2.389  21.844  0.00  0.00    +0.000 OA
ENDBRANCH  19  21
ENDBRANCH  18  19
ENDBRANCH  13  18
ENDBRANCH  12  17
ENDBRANCH   1  12
TORSDOF 6
ENDMDL
MODEL 6
REMARK VINA RESULT:      -6.4      1.990      3.239
REMARK  Name = 
REMARK  10 active torsions:
REMARK  status: ('A' for Active; 'I' for Inactive)
REMARK    1  A    between atoms: C_1  and  O_2
REMARK    2  A    between atoms: O_2  and  C_3
REMARK    3  A    between atoms: C_3  and  C_4
REMARK    4  A    between atoms: C_4  and  N_5
REMARK    5  A    between atoms: C_9  and  C_10
REMARK    6  A    between atoms: C_10  and  N_11
REMARK    7  A    between atoms: C_14  and  C_15
REMARK    8  A    between atoms: C_14  and  O_16
REMARK    9  A    between atoms: C_17  and  C_18
REMARK   10  A    between atoms: C_17  and  C_19
REMARK                            x       y       z     vdW  Elec       q    Type
REMARK                         _______ _______ _______ _____ _____    ______ ____
ROOT
ATOM      1  N   UNL     1       3.969   4.930  19.282  0.00  0.00    +0.000 NA
ATOM      2  C   UNL     1       2.882   5.377  18.421  0.00  0.00    +0.000 C 
ATOM      3  C   UNL     1       1.686   4.449  18.230  0.00  0.00    +0.000 C 
ATOM      4  C   UNL     1       1.327   3.475  19.374  0.00  0.00    +0.000 C 
ATOM      5  C   UNL     1       0.560   2.295  18.738  0.00  0.00    +0.000 C 
ATOM      6  C   UNL     1       2.534   3.018  20.269  0.00  0.00    +0.000 C 
ATOM      7  C   UNL     1       3.309   1.789  19.741  0.00  0.00    +0.000 C 
ATOM      8  C   UNL     1       2.020   2.593  21.679  0.00  0.00    +0.000 C 
ATOM      9  C   UNL     1       3.512   4.209  20.470  0.00  0.00    +0.000 C 
ENDROOT
BRANCH   4  10
ATOM     10  O   UNL     1       0.382   4.133  20.245  0.00  0.00    +0.000 OA
ATOM     11  H   UNL     1      -0.304   4.581  19.728  0.00  0.00    +0.000 HD
ENDBRANCH   4  10
BRANCH   1  12
ATOM     12  C   UNL     1       5.112   4.373  18.558  0.00  0.00    +0.000 C 
BRANCH  12  17
ATOM     13  N   UNL     1       6.446   6.293  17.464  0.00  0.00    +0.000 N 
ATOM     14  C   UNL     1       7.577   6.999  17.793  0.00  0.00    +0.000 A 
ATOM     15  C   UNL     1       8.026   6.478  18.968  0.00  0.00    +0.000 A 
ATOM     16  N   UNL     1       7.213   5.463  19.391  0.00  0.00    +0.000 NA
ATOM     17  C   UNL     1       6.252   5.363  18.476  0.00  0.00    +0.000 A 
BRANCH  13  18
ATOM     18  C   UNL     1       5.486   6.650  16.430  0.00  0.00    +0.000 C 
BRANCH  18  19
ATOM     19  C   UNL     1       5.353   5.753  15.193  0.00  0.00    +0.000 C 
BRANCH  19  21
ATOM     20  C   UNL     1       7.052   4.714  13.862  0.00  0.00    +0.000 C 
ATOM     21  O   UNL     1       6.379   4.757  15.110  0.00  0.00    +0.000 OA
ENDBRANCH  19  21
ENDBRANCH  18  19
ENDBRANCH  13  18
ENDBRANCH  12  17
ENDBRANCH   1  12
TORSDOF 6
ENDMDL
MODEL 7
REMARK VINA RESULT:      -6.3      2.339      5.906
REMARK  Name = 
REMARK  10 active torsions:
REMARK  status: ('A' for Active; 'I' for Inactive)
REMARK    1  A    between atoms: C_1  and  O_2
REMARK    2  A    between atoms: O_2  and  C_3
REMARK    3  A    between atoms: C_3  and  C_4
REMARK    4  A    between atoms: C_4  and  N_5
REMARK    5  A    between atoms: C_9  and  C_10
REMARK    6  A    between atoms: C_10  and  N_11
REMARK    7  A    between atoms: C_14  and  C_15
REMARK    8  A    between atoms: C_14  and  O_16
REMARK    9  A    between atoms: C_17  and  C_18
REMARK   10  A    between atoms: C_17  and  C_19
REMARK                            x       y       z     vdW  Elec       q    Type
REMARK                         _______ _______ _______ _____ _____    ______ ____
ROOT
ATOM      1  N   UNL     1       4.450   4.464  18.016  0.00  0.00    +0.000 NA
ATOM      2  C   UNL     1       4.906   3.302  17.266  0.00  0.00    +0.000 C 
ATOM      3  C   UNL     1       5.756   3.536  16.020  0.00  0.00    +0.000 C 
ATOM      4  C   UNL     1       6.637   4.802  15.965  0.00  0.00    +0.000 C 
ATOM      5  C   UNL     1       6.872   5.123  14.473  0.00  0.00    +0.000 C 
ATOM      6  C   UNL     1       6.099   6.030  16.785  0.00  0.00    +0.000 C 
ATOM      7  C   UNL     1       5.105   6.937  16.024  0.00  0.00    +0.000 C 
ATOM      8  C   UNL     1       7.282   6.969  17.174  0.00  0.00    +0.000 C 
ATOM      9  C   UNL     1       5.449   5.529  18.104  0.00  0.00    +0.000 C 
ENDROOT
BRANCH   4  10
ATOM     10  O   UNL     1       7.934   4.472  16.505  0.00  0.00    +0.000 OA
ATOM     11  H   UNL     1       7.898   4.421  17.472  0.00  0.00    +0.000 HD
ENDBRANCH   4  10
BRANCH   1  12
ATOM     12  C   UNL     1       3.072   4.860  17.723  0.00  0.00    +0.000 C 
BRANCH  12  17
ATOM     13  N   UNL     1       1.768   4.104  19.818  0.00  0.00    +0.000 N 
ATOM     14  C   UNL     1       0.805   3.159  20.073  0.00  0.00    +0.000 A 
ATOM     15  C   UNL     1       0.571   2.521  18.893  0.00  0.00    +0.000 A 
ATOM     16  N   UNL     1       1.360   3.036  17.900  0.00  0.00    +0.000 NA
ATOM     17  C   UNL     1       2.076   4.001  18.470  0.00  0.00    +0.000 A 
BRANCH  13  18
ATOM     18  C   UNL     1       2.159   5.188  20.708  0.00  0.00    +0.000 C 
BRANCH  18  19
ATOM     19  C   UNL     1       1.231   6.399  20.863  0.00  0.00    +0.000 C 
BRANCH  19  21
ATOM     20  C   UNL     1       1.208   8.794  20.929  0.00  0.00    +0.000 C 
ATOM     21  O   UNL     1       1.829   7.623  20.422  0.00  0.00    +0.000 OA
ENDBRANCH  19  21
ENDBRANCH  18  19
ENDBRANCH  13  18
ENDBRANCH  12  17
ENDBRANCH   1  12
TORSDOF 6
ENDMDL
MODEL 8
REMARK VINA RESULT:      -6.3      1.177      2.155
REMARK  Name = 
REMARK  10 active torsions:
REMARK  status: ('A' for Active; 'I' for Inactive)
REMARK    1  A    between atoms: C_1  and  O_2
REMARK    2  A    between atoms: O_2  and  C_3
REMARK    3  A    between atoms: C_3  and  C_4
REMARK    4  A    between atoms: C_4  and  N_5
REMARK    5  A    between atoms: C_9  and  C_10
REMARK    6  A    between atoms: C_10  and  N_11
REMARK    7  A    between atoms: C_14  and  C_15
REMARK    8  A    between atoms: C_14  and  O_16
REMARK    9  A    between atoms: C_17  and  C_18
REMARK   10  A    between atoms: C_17  and  C_19
REMARK                            x       y       z     vdW  Elec       q    Type
REMARK                         _______ _______ _______ _____ _____    ______ ____
ROOT
ATOM      1  N   UNL     1       3.206   4.299  17.310  0.00  0.00    +0.000 NA
ATOM      2  C   UNL     1       3.793   2.976  17.475  0.00  0.00    +0.000 C 
ATOM      3  C   UNL     1       3.802   2.360  18.871  0.00  0.00    +0.000 C 
ATOM      4  C   UNL     1       2.681   2.762  19.854  0.00  0.00    +0.000 C 
ATOM      5  C   UNL     1       3.230   2.539  21.280  0.00  0.00    +0.000 C 
ATOM      6  C   UNL     1       2.085   4.200  19.639  0.00  0.00    +0.000 C 
ATOM      7  C   UNL     1       2.845   5.337  20.361  0.00  0.00    +0.000 C 
ATOM      8  C   UNL     1       0.633   4.265  20.207  0.00  0.00    +0.000 C 
ATOM      9  C   UNL     1       2.003   4.506  18.118  0.00  0.00    +0.000 C 
ENDROOT
BRANCH   4  10
ATOM     10  O   UNL     1       1.592   1.828  19.701  0.00  0.00    +0.000 OA
ATOM     11  H   UNL     1       1.563   1.482  18.796  0.00  0.00    +0.000 HD
ENDBRANCH   4  10
BRANCH   1  12
ATOM     12  C   UNL     1       4.184   5.386  17.272  0.00  0.00    +0.000 C 
BRANCH  12  17
ATOM     13  N   UNL     1       6.652   5.114  16.570  0.00  0.00    +0.000 N 
ATOM     14  C   UNL     1       7.299   4.777  15.407  0.00  0.00    +0.000 A 
ATOM     15  C   UNL     1       6.329   4.579  14.472  0.00  0.00    +0.000 A 
ATOM     16  N   UNL     1       5.088   4.783  15.011  0.00  0.00    +0.000 NA
ATOM     17  C   UNL     1       5.294   5.100  16.287  0.00  0.00    +0.000 A 
BRANCH  13  18
ATOM     18  C   UNL     1       7.253   5.175  17.895  0.00  0.00    +0.000 C 
BRANCH  18  19
ATOM     19  C   UNL     1       7.749   6.525  18.428  0.00  0.00    +0.000 C 
BRANCH  19  21
ATOM     20  C   UNL     1       8.127   8.833  17.913  0.00  0.00    +0.000 C 
ATOM     21  O   UNL     1       7.581   7.594  17.491  0.00  0.00    +0.000 OA
ENDBRANCH  19  21
ENDBRANCH  18  19
ENDBRANCH  13  18
ENDBRANCH  12  17
ENDBRANCH   1  12
TORSDOF 6
ENDMDL
MODEL 9
REMARK VINA RESULT:      -6.2      1.469      2.433
REMARK  Name = 
REMARK  10 active torsions:
REMARK  status: ('A' for Active; 'I' for Inactive)
REMARK    1  A    between atoms: C_1  and  O_2
REMARK    2  A    between atoms: O_2  and  C_3
REMARK    3  A    between atoms: C_3  and  C_4
REMARK    4  A    between atoms: C_4  and  N_5
REMARK    5  A    between atoms: C_9  and  C_10
REMARK    6  A    between atoms: C_10  and  N_11
REMARK    7  A    between atoms: C_14  and  C_15
REMARK    8  A    between atoms: C_14  and  O_16
REMARK    9  A    between atoms: C_17  and  C_18
REMARK   10  A    between atoms: C_17  and  C_19
REMARK                            x       y       z     vdW  Elec       q    Type
REMARK                         _______ _______ _______ _____ _____    ______ ____
ROOT
ATOM      1  N   UNL     1       3.178   3.453  17.563  0.00  0.00    +0.000 NA
ATOM      2  C   UNL     1       2.350   2.267  17.736  0.00  0.00    +0.000 C 
ATOM      3  C   UNL     1       1.797   1.970  19.126  0.00  0.00    +0.000 C 
ATOM      4  C   UNL     1       1.536   3.158  20.077  0.00  0.00    +0.000 C 
ATOM      5  C   UNL     1       1.597   2.605  21.518  0.00  0.00    +0.000 C 
ATOM      6  C   UNL     1       2.458   4.411  19.856  0.00  0.00    +0.000 C 
ATOM      7  C   UNL     1       3.807   4.369  20.609  0.00  0.00    +0.000 C 
ATOM      8  C   UNL     1       1.746   5.696  20.379  0.00  0.00    +0.000 C 
ATOM      9  C   UNL     1       2.712   4.606  18.335  0.00  0.00    +0.000 C 
ENDROOT
BRANCH   4  10
ATOM     10  O   UNL     1       0.174   3.599  19.884  0.00  0.00    +0.000 OA
ATOM     11  H   UNL     1       0.135   4.565  19.822  0.00  0.00    +0.000 HD
ENDBRANCH   4  10
BRANCH   1  12
ATOM     12  C   UNL     1       4.616   3.183  17.564  0.00  0.00    +0.000 C 
BRANCH  12  17
ATOM     13  N   UNL     1       6.478   4.729  16.669  0.00  0.00    +0.000 N 
ATOM     14  C   UNL     1       6.799   5.250  15.440  0.00  0.00    +0.000 A 
ATOM     15  C   UNL     1       5.848   4.803  14.573  0.00  0.00    +0.000 A 
ATOM     16  N   UNL     1       4.935   4.016  15.220  0.00  0.00    +0.000 NA
ATOM     17  C   UNL     1       5.330   3.971  16.490  0.00  0.00    +0.000 A 
BRANCH  13  18
ATOM     18  C   UNL     1       7.334   4.726  17.846  0.00  0.00    +0.000 C 
BRANCH  18  19
ATOM     19  C   UNL     1       7.237   5.888  18.843  0.00  0.00    +0.000 C 
BRANCH  19  21
ATOM     20  C   UNL     1       7.779   7.952  17.754  0.00  0.00    +0.000 C 
ATOM     21  O   UNL     1       8.215   6.908  18.610  0.00  0.00    +0.000 OA
ENDBRANCH  19  21
ENDBRANCH  18  19
ENDBRANCH  13  18
ENDBRANCH  12  17
ENDBRANCH   1  12
TORSDOF 6
ENDMDL
