MODEL 1
REMARK VINA RESULT:      -8.3      0.000      0.000
REMARK  Name = 
REMARK  2 active torsions:
REMARK  status: ('A' for Active; 'I' for Inactive)
REMARK    1  A    between atoms: C_8  and  C_9
REMARK    2  A    between atoms: C_21  and  O_22
REMARK                            x       y       z     vdW  Elec       q    Type
REMARK                         _______ _______ _______ _____ _____    ______ ____
ROOT
ATOM      1  O   UNL     1       5.030   3.280  18.641  0.00  0.00    +0.000 OA
ATOM      2  C   UNL     1       4.196   4.109  18.976  0.00  0.00    +0.000 C 
ATOM      3  N   UNL     1       3.388   3.909  20.059  0.00  0.00    +0.000 N 
ATOM      4  C   UNL     1       2.589   4.949  20.427  0.00  0.00    +0.000 C 
ATOM      5  O   UNL     1       1.885   4.909  21.424  0.00  0.00    +0.000 OA
ATOM      6  C   UNL     1       2.850   5.920  19.411  0.00  0.00    +0.000 A 
ATOM      7  C   UNL     1       3.803   5.410  18.480  0.00  0.00    +0.000 A 
ATOM      8  C   UNL     1       4.256   6.093  17.324  0.00  0.00    +0.000 A 
ATOM      9  C   UNL     1       3.739   7.397  17.143  0.00  0.00    +0.000 A 
ATOM     10  C   UNL     1       2.842   7.914  18.078  0.00  0.00    +0.000 A 
ATOM     11  N   UNL     1       2.210   9.133  18.175  0.00  0.00    +0.000 N 
ATOM     12  C   UNL     1       1.397   9.185  19.297  0.00  0.00    +0.000 A 
ATOM     13  C   UNL     1       0.590  10.237  19.757  0.00  0.00    +0.000 A 
ATOM     14  C   UNL     1      -0.146  10.036  20.927  0.00  0.00    +0.000 A 
ATOM     15  C   UNL     1      -0.065   8.827  21.602  0.00  0.00    +0.000 A 
ATOM     16  C   UNL     1       0.741   7.783  21.146  0.00  0.00    +0.000 A 
ATOM     17  C   UNL     1       1.493   7.952  19.967  0.00  0.00    +0.000 A 
ATOM     18  C   UNL     1       2.388   7.234  19.170  0.00  0.00    +0.000 A 
ATOM     19  H   UNL     1       3.452   3.074  20.618  0.00  0.00    +0.000 HD
ATOM     20  H   UNL     1       2.327   9.897  17.524  0.00  0.00    +0.000 HD
ENDROOT
BRANCH   8  21
ATOM     21  C   UNL     1       5.231   5.510  16.377  0.00  0.00    +0.000 A 
ATOM     22  C   UNL     1       6.612   5.711  16.480  0.00  0.00    +0.000 A 
ATOM     23  C   UNL     1       7.462   5.191  15.512  0.00  0.00    +0.000 A 
ATOM     24  N   UNL     1       7.052   4.413  14.493  0.00  0.00    +0.000 NA
ATOM     25  C   UNL     1       5.732   4.162  14.432  0.00  0.00    +0.000 A 
ATOM     26  C   UNL     1       4.804   4.683  15.325  0.00  0.00    +0.000 A 
ENDBRANCH   8  21
BRANCH  15  27
ATOM     27  O   UNL     1      -0.778   8.611  22.748  0.00  0.00    +0.000 OA
ATOM     28  H   UNL     1      -0.177   8.279  23.434  0.00  0.00    +0.000 HD
ENDBRANCH  15  27
TORSDOF 2
ENDMDL
MODEL 2
REMARK VINA RESULT:      -7.3      1.402      1.991
REMARK  Name = 
REMARK  2 active torsions:
REMARK  status: ('A' for Active; 'I' for Inactive)
REMARK    1  A    between atoms: C_8  and  C_9
REMARK    2  A    between atoms: C_21  and  O_22
REMARK                            x       y       z     vdW  Elec       q    Type
REMARK                         _______ _______ _______ _____ _____    ______ ____
ROOT
ATOM      1  O   UNL     1       3.967   4.416  19.834  0.00  0.00    +0.000 OA
ATOM      2  C   UNL     1       3.221   5.384  19.842  0.00  0.00    +0.000 C 
ATOM      3  N   UNL     1       2.279   5.550  20.817  0.00  0.00    +0.000 N 
ATOM      4  C   UNL     1       1.593   6.727  20.813  0.00  0.00    +0.000 C 
ATOM      5  O   UNL     1       0.784   7.013  21.681  0.00  0.00    +0.000 OA
ATOM      6  C   UNL     1       2.093   7.376  19.642  0.00  0.00    +0.000 A 
ATOM      7  C   UNL     1       3.065   6.551  19.001  0.00  0.00    +0.000 A 
ATOM      8  C   UNL     1       3.731   6.870  17.792  0.00  0.00    +0.000 A 
ATOM      9  C   UNL     1       3.418   8.133  17.236  0.00  0.00    +0.000 A 
ATOM     10  C   UNL     1       2.502   8.959  17.886  0.00  0.00    +0.000 A 
ATOM     11  N   UNL     1       2.035  10.222  17.602  0.00  0.00    +0.000 N 
ATOM     12  C   UNL     1       1.117  10.640  18.554  0.00  0.00    +0.000 A 
ATOM     13  C   UNL     1       0.415  11.853  18.634  0.00  0.00    +0.000 A 
ATOM     14  C   UNL     1      -0.466  12.031  19.703  0.00  0.00    +0.000 A 
ATOM     15  C   UNL     1      -0.625  11.030  20.651  0.00  0.00    +0.000 A 
ATOM     16  C   UNL     1       0.078   9.827  20.573  0.00  0.00    +0.000 A 
ATOM     17  C   UNL     1       0.970   9.613  19.504  0.00  0.00    +0.000 A 
ATOM     18  C   UNL     1       1.842   8.628  19.034  0.00  0.00    +0.000 A 
ATOM     19  H   UNL     1       2.168   4.881  21.562  0.00  0.00    +0.000 HD
ATOM     20  H   UNL     1       2.324  10.780  16.812  0.00  0.00    +0.000 HD
ENDROOT
BRANCH   8  21
ATOM     21  C   UNL     1       4.716   5.969  17.156  0.00  0.00    +0.000 A 
ATOM     22  C   UNL     1       4.357   4.786  16.498  0.00  0.00    +0.000 A 
ATOM     23  C   UNL     1       5.342   3.952  15.986  0.00  0.00    +0.000 A 
ATOM     24  N   UNL     1       6.656   4.245  16.001  0.00  0.00    +0.000 NA
ATOM     25  C   UNL     1       6.997   5.415  16.572  0.00  0.00    +0.000 A 
ATOM     26  C   UNL     1       6.085   6.284  17.156  0.00  0.00    +0.000 A 
ENDBRANCH   8  21
BRANCH  15  27
ATOM     27  O   UNL     1      -1.482  11.186  21.703  0.00  0.00    +0.000 OA
ATOM     28  H   UNL     1      -2.143  11.858  21.473  0.00  0.00    +0.000 HD
ENDBRANCH  15  27
TORSDOF 2
ENDMDL
MODEL 3
REMARK VINA RESULT:      -7.2      2.983      4.752
REMARK  Name = 
REMARK  2 active torsions:
REMARK  status: ('A' for Active; 'I' for Inactive)
REMARK    1  A    between atoms: C_8  and  C_9
REMARK    2  A    between atoms: C_21  and  O_22
REMARK                            x       y       z     vdW  Elec       q    Type
REMARK                         _______ _______ _______ _____ _____    ______ ____
ROOT
ATOM      1  O   UNL     1       3.080   7.856  16.855  0.00  0.00    +0.000 OA
ATOM      2  C   UNL     1       2.548   8.566  17.696  0.00  0.00    +0.000 C 
ATOM      3  N   UNL     1       2.356   9.902  17.485  0.00  0.00    +0.000 N 
ATOM      4  C   UNL     1       1.633  10.573  18.424  0.00  0.00    +0.000 C 
ATOM      5  O   UNL     1       1.336  11.750  18.299  0.00  0.00    +0.000 OA
ATOM      6  C   UNL     1       1.391   9.568  19.411  0.00  0.00    +0.000 A 
ATOM      7  C   UNL     1       1.982   8.333  19.008  0.00  0.00    +0.000 A 
ATOM      8  C   UNL     1       1.970   7.139  19.770  0.00  0.00    +0.000 A 
ATOM      9  C   UNL     1       1.266   7.203  20.996  0.00  0.00    +0.000 A 
ATOM     10  C   UNL     1       0.649   8.397  21.369  0.00  0.00    +0.000 A 
ATOM     11  N   UNL     1      -0.110   8.740  22.464  0.00  0.00    +0.000 N 
ATOM     12  C   UNL     1      -0.512  10.066  22.397  0.00  0.00    +0.000 A 
ATOM     13  C   UNL     1      -1.293  10.801  23.302  0.00  0.00    +0.000 A 
ATOM     14  C   UNL     1      -1.557  12.140  23.004  0.00  0.00    +0.000 A 
ATOM     15  C   UNL     1      -1.057  12.707  21.840  0.00  0.00    +0.000 A 
ATOM     16  C   UNL     1      -0.285  11.973  20.939  0.00  0.00    +0.000 A 
ATOM     17  C   UNL     1       0.004  10.622  21.212  0.00  0.00    +0.000 A 
ATOM     18  C   UNL     1       0.695   9.551  20.641  0.00  0.00    +0.000 A 
ATOM     19  H   UNL     1       2.645  10.346  16.629  0.00  0.00    +0.000 HD
ATOM     20  H   UNL     1      -0.355   8.112  23.217  0.00  0.00    +0.000 HD
ENDROOT
BRANCH   8  21
ATOM     21  C   UNL     1       2.618   5.890  19.316  0.00  0.00    +0.000 A 
ATOM     22  C   UNL     1       1.964   4.929  18.535  0.00  0.00    +0.000 A 
ATOM     23  C   UNL     1       2.613   3.746  18.206  0.00  0.00    +0.000 A 
ATOM     24  N   UNL     1       3.894   3.479  18.521  0.00  0.00    +0.000 NA
ATOM     25  C   UNL     1       4.546   4.432  19.213  0.00  0.00    +0.000 A 
ATOM     26  C   UNL     1       3.961   5.621  19.630  0.00  0.00    +0.000 A 
ENDBRANCH   8  21
BRANCH  15  27
ATOM     27  O   UNL     1      -1.304  14.015  21.532  0.00  0.00    +0.000 OA
ATOM     28  H   UNL     1      -1.104  14.563  22.306  0.00  0.00    +0.000 HD
ENDBRANCH  15  27
TORSDOF 2
ENDMDL
MODEL 4
REMARK VINA RESULT:      -7.2      3.821      9.204
REMARK  Name = 
REMARK  2 active torsions:
REMARK  status: ('A' for Active; 'I' for Inactive)
REMARK    1  A    between atoms: C_8  and  C_9
REMARK    2  A    between atoms: C_21  and  O_22
REMARK                            x       y       z     vdW  Elec       q    Type
REMARK                         _______ _______ _______ _____ _____    ______ ____
ROOT
ATOM      1  O   UNL     1      -2.711  12.242  23.461  0.00  0.00    +0.000 OA
ATOM      2  C   UNL     1      -1.869  11.600  22.850  0.00  0.00    +0.000 C 
ATOM      3  N   UNL     1      -1.163  10.596  23.450  0.00  0.00    +0.000 N 
ATOM      4  C   UNL     1      -0.351   9.854  22.647  0.00  0.00    +0.000 C 
ATOM      5  O   UNL     1       0.267   8.886  23.062  0.00  0.00    +0.000 OA
ATOM      6  C   UNL     1      -0.481  10.505  21.382  0.00  0.00    +0.000 A 
ATOM      7  C   UNL     1      -1.377  11.611  21.489  0.00  0.00    +0.000 A 
ATOM      8  C   UNL     1      -1.701  12.500  20.435  0.00  0.00    +0.000 A 
ATOM      9  C   UNL     1      -1.110  12.205  19.183  0.00  0.00    +0.000 A 
ATOM     10  C   UNL     1      -0.270  11.098  19.066  0.00  0.00    +0.000 A 
ATOM     11  N   UNL     1       0.407  10.563  17.994  0.00  0.00    +0.000 N 
ATOM     12  C   UNL     1       1.127   9.438  18.371  0.00  0.00    +0.000 A 
ATOM     13  C   UNL     1       1.941   8.606  17.587  0.00  0.00    +0.000 A 
ATOM     14  C   UNL     1       2.568   7.525  18.212  0.00  0.00    +0.000 A 
ATOM     15  C   UNL     1       2.376   7.296  19.568  0.00  0.00    +0.000 A 
ATOM     16  C   UNL     1       1.562   8.122  20.344  0.00  0.00    +0.000 A 
ATOM     17  C   UNL     1       0.919   9.223  19.745  0.00  0.00    +0.000 A 
ATOM     18  C   UNL     1       0.060  10.267  20.098  0.00  0.00    +0.000 A 
ATOM     19  H   UNL     1      -1.313  10.351  24.415  0.00  0.00    +0.000 HD
ATOM     20  H   UNL     1       0.381  10.929  17.054  0.00  0.00    +0.000 HD
ENDROOT
BRANCH   8  21
ATOM     21  C   UNL     1      -2.620  13.646  20.604  0.00  0.00    +0.000 A 
ATOM     22  C   UNL     1      -4.014  13.520  20.566  0.00  0.00    +0.000 A 
ATOM     23  C   UNL     1      -4.814  14.652  20.661  0.00  0.00    +0.000 A 
ATOM     24  N   UNL     1      -4.337  15.893  20.879  0.00  0.00    +0.000 NA
ATOM     25  C   UNL     1      -3.000  16.004  20.984  0.00  0.00    +0.000 A 
ATOM     26  C   UNL     1      -2.122  14.936  20.849  0.00  0.00    +0.000 A 
ENDBRANCH   8  21
BRANCH  15  27
ATOM     27  O   UNL     1       2.981   6.245  20.197  0.00  0.00    +0.000 OA
ATOM     28  H   UNL     1       3.926   6.252  19.982  0.00  0.00    +0.000 HD
ENDBRANCH  15  27
TORSDOF 2
ENDMDL
MODEL 5
REMARK VINA RESULT:      -7.0      1.936      6.855
REMARK  Name = 
REMARK  2 active torsions:
REMARK  status: ('A' for Active; 'I' for Inactive)
REMARK    1  A    between atoms: C_8  and  C_9
REMARK    2  A    between atoms: C_21  and  O_22
REMARK                            x       y       z     vdW  Elec       q    Type
REMARK                         _______ _______ _______ _____ _____    ______ ____
ROOT
ATOM      1  O   UNL     1      -0.415   9.300  21.336  0.00  0.00    +0.000 OA
ATOM      2  C   UNL     1       0.467   8.574  20.900  0.00  0.00    +0.000 C 
ATOM      3  N   UNL     1       0.828   7.425  21.545  0.00  0.00    +0.000 N 
ATOM      4  C   UNL     1       1.723   6.621  20.907  0.00  0.00    +0.000 C 
ATOM      5  O   UNL     1       2.058   5.535  21.354  0.00  0.00    +0.000 OA
ATOM      6  C   UNL     1       2.048   7.378  19.739  0.00  0.00    +0.000 A 
ATOM      7  C   UNL     1       1.321   8.605  19.733  0.00  0.00    +0.000 A 
ATOM      8  C   UNL     1       1.435   9.612  18.742  0.00  0.00    +0.000 A 
ATOM      9  C   UNL     1       2.309   9.319  17.669  0.00  0.00    +0.000 A 
ATOM     10  C   UNL     1       2.985   8.099  17.651  0.00  0.00    +0.000 A 
ATOM     11  N   UNL     1       3.857   7.540  16.744  0.00  0.00    +0.000 N 
ATOM     12  C   UNL     1       4.277   6.287  17.164  0.00  0.00    +0.000 A 
ATOM     13  C   UNL     1       5.156   5.392  16.534  0.00  0.00    +0.000 A 
ATOM     14  C   UNL     1       5.424   4.178  17.172  0.00  0.00    +0.000 A 
ATOM     15  C   UNL     1       4.826   3.883  18.389  0.00  0.00    +0.000 A 
ATOM     16  C   UNL     1       3.949   4.772  19.011  0.00  0.00    +0.000 A 
ATOM     17  C   UNL     1       3.661   6.006  18.397  0.00  0.00    +0.000 A 
ATOM     18  C   UNL     1       2.892   7.150  18.627  0.00  0.00    +0.000 A 
ATOM     19  H   UNL     1       0.379   7.137  22.398  0.00  0.00    +0.000 HD
ATOM     20  H   UNL     1       4.149   7.975  15.881  0.00  0.00    +0.000 HD
ENDROOT
BRANCH   8  21
ATOM     21  C   UNL     1       0.674  10.879  18.794  0.00  0.00    +0.000 A 
ATOM     22  C   UNL     1      -0.642  11.000  18.332  0.00  0.00    +0.000 A 
ATOM     23  C   UNL     1      -1.270  12.239  18.347  0.00  0.00    +0.000 A 
ATOM     24  N   UNL     1      -0.720  13.354  18.865  0.00  0.00    +0.000 NA
ATOM     25  C   UNL     1       0.519  13.223  19.372  0.00  0.00    +0.000 A 
ATOM     26  C   UNL     1       1.242  12.037  19.352  0.00  0.00    +0.000 A 
ENDBRANCH   8  21
BRANCH  15  27
ATOM     27  O   UNL     1       5.076   2.702  19.028  0.00  0.00    +0.000 OA
ATOM     28  H   UNL     1       4.268   2.411  19.479  0.00  0.00    +0.000 HD
ENDBRANCH  15  27
TORSDOF 2
ENDMDL
MODEL 6
REMARK VINA RESULT:      -7.0      2.158      3.505
REMARK  Name = 
REMARK  2 active torsions:
REMARK  status: ('A' for Active; 'I' for Inactive)
REMARK    1  A    between atoms: C_8  and  C_9
REMARK    2  A    between atoms: C_21  and  O_22
REMARK                            x       y       z     vdW  Elec       q    Type
REMARK                         _______ _______ _______ _____ _____    ______ ____
ROOT
ATOM      1  O   UNL     1       2.263   5.244  20.839  0.00  0.00    +0.000 OA
ATOM      2  C   UNL     1       1.857   6.389  20.701  0.00  0.00    +0.000 C 
ATOM      3  N   UNL     1       1.117   7.005  21.670  0.00  0.00    +0.000 N 
ATOM      4  C   UNL     1       0.832   8.323  21.478  0.00  0.00    +0.000 C 
ATOM      5  O   UNL     1       0.244   8.991  22.314  0.00  0.00    +0.000 OA
ATOM      6  C   UNL     1       1.384   8.578  20.185  0.00  0.00    +0.000 A 
ATOM      7  C   UNL     1       1.983   7.392  19.666  0.00  0.00    +0.000 A 
ATOM      8  C   UNL     1       2.588   7.279  18.389  0.00  0.00    +0.000 A 
ATOM      9  C   UNL     1       2.625   8.467  17.622  0.00  0.00    +0.000 A 
ATOM     10  C   UNL     1       2.080   9.638  18.148  0.00  0.00    +0.000 A 
ATOM     11  N   UNL     1       1.999  10.921  17.655  0.00  0.00    +0.000 N 
ATOM     12  C   UNL     1       1.357  11.761  18.554  0.00  0.00    +0.000 A 
ATOM     13  C   UNL     1       1.075  13.130  18.438  0.00  0.00    +0.000 A 
ATOM     14  C   UNL     1       0.407  13.754  19.494  0.00  0.00    +0.000 A 
ATOM     15  C   UNL     1       0.045  13.025  20.618  0.00  0.00    +0.000 A 
ATOM     16  C   UNL     1       0.331  11.664  20.734  0.00  0.00    +0.000 A 
ATOM     17  C   UNL     1       0.999  11.004  19.684  0.00  0.00    +0.000 A 
ATOM     18  C   UNL     1       1.471   9.728  19.367  0.00  0.00    +0.000 A 
ATOM     19  H   UNL     1       0.882   6.538  22.530  0.00  0.00    +0.000 HD
ATOM     20  H   UNL     1       2.364  11.220  16.762  0.00  0.00    +0.000 HD
ENDROOT
BRANCH   8  21
ATOM     21  C   UNL     1       3.176   6.018  17.888  0.00  0.00    +0.000 A 
ATOM     22  C   UNL     1       2.423   4.858  17.668  0.00  0.00    +0.000 A 
ATOM     23  C   UNL     1       3.056   3.689  17.264  0.00  0.00    +0.000 A 
ATOM     24  N   UNL     1       4.369   3.605  16.978  0.00  0.00    +0.000 NA
ATOM     25  C   UNL     1       5.080   4.738  17.123  0.00  0.00    +0.000 A 
ATOM     26  C   UNL     1       4.542   5.937  17.572  0.00  0.00    +0.000 A 
ENDBRANCH   8  21
BRANCH  15  27
ATOM     27  O   UNL     1      -0.609  13.617  21.661  0.00  0.00    +0.000 OA
ATOM     28  H   UNL     1      -1.423  13.121  21.843  0.00  0.00    +0.000 HD
ENDBRANCH  15  27
TORSDOF 2
ENDMDL
MODEL 7
REMARK VINA RESULT:      -7.0      9.206     11.532
REMARK  Name = 
REMARK  2 active torsions:
REMARK  status: ('A' for Active; 'I' for Inactive)
REMARK    1  A    between atoms: C_8  and  C_9
REMARK    2  A    between atoms: C_21  and  O_22
REMARK                            x       y       z     vdW  Elec       q    Type
REMARK                         _______ _______ _______ _____ _____    ______ ____
ROOT
ATOM      1  O   UNL     1       6.479  15.226  23.642  0.00  0.00    +0.000 OA
ATOM      2  C   UNL     1       7.092  14.985  22.612  0.00  0.00    +0.000 C 
ATOM      3  N   UNL     1       7.145  15.886  21.586  0.00  0.00    +0.000 N 
ATOM      4  C   UNL     1       7.964  15.578  20.542  0.00  0.00    +0.000 C 
ATOM      5  O   UNL     1       8.147  16.344  19.610  0.00  0.00    +0.000 OA
ATOM      6  C   UNL     1       8.442  14.278  20.892  0.00  0.00    +0.000 A 
ATOM      7  C   UNL     1       7.886  13.871  22.141  0.00  0.00    +0.000 A 
ATOM      8  C   UNL     1       8.116  12.619  22.764  0.00  0.00    +0.000 A 
ATOM      9  C   UNL     1       9.010  11.755  22.089  0.00  0.00    +0.000 A 
ATOM     10  C   UNL     1       9.590  12.171  20.891  0.00  0.00    +0.000 A 
ATOM     11  N   UNL     1      10.496  11.570  20.047  0.00  0.00    +0.000 N 
ATOM     12  C   UNL     1      10.780  12.384  18.959  0.00  0.00    +0.000 A 
ATOM     13  C   UNL     1      11.646  12.148  17.880  0.00  0.00    +0.000 A 
ATOM     14  C   UNL     1      11.755  13.136  16.899  0.00  0.00    +0.000 A 
ATOM     15  C   UNL     1      11.025  14.311  17.009  0.00  0.00    +0.000 A 
ATOM     16  C   UNL     1      10.168  14.546  18.085  0.00  0.00    +0.000 A 
ATOM     17  C   UNL     1      10.032  13.568  19.089  0.00  0.00    +0.000 A 
ATOM     18  C   UNL     1       9.336  13.367  20.284  0.00  0.00    +0.000 A 
ATOM     19  H   UNL     1       6.683  16.778  21.645  0.00  0.00    +0.000 HD
ATOM     20  H   UNL     1      10.910  10.661  20.197  0.00  0.00    +0.000 HD
ENDROOT
BRANCH   8  21
ATOM     21  C   UNL     1       7.496  12.236  24.051  0.00  0.00    +0.000 A 
ATOM     22  C   UNL     1       8.052  12.561  25.294  0.00  0.00    +0.000 A 
ATOM     23  C   UNL     1       7.451  12.106  26.461  0.00  0.00    +0.000 A 
ATOM     24  N   UNL     1       6.290  11.424  26.492  0.00  0.00    +0.000 NA
ATOM     25  C   UNL     1       5.719  11.171  25.300  0.00  0.00    +0.000 A 
ATOM     26  C   UNL     1       6.275  11.541  24.082  0.00  0.00    +0.000 A 
ENDBRANCH   8  21
BRANCH  15  27
ATOM     27  O   UNL     1      11.118  15.289  16.059  0.00  0.00    +0.000 OA
ATOM     28  H   UNL     1      10.312  15.828  16.084  0.00  0.00    +0.000 HD
ENDBRANCH  15  27
TORSDOF 2
ENDMDL
MODEL 8
REMARK VINA RESULT:      -6.9      2.312      3.773
REMARK  Name = 
REMARK  2 active torsions:
REMARK  status: ('A' for Active; 'I' for Inactive)
REMARK    1  A    between atoms: C_8  and  C_9
REMARK    2  A    between atoms: C_21  and  O_22
REMARK                            x       y       z     vdW  Elec       q    Type
REMARK                         _______ _______ _______ _____ _____    ______ ____
ROOT
ATOM      1  O   UNL     1       1.842   5.538  20.990  0.00  0.00    +0.000 OA
ATOM      2  C   UNL     1       1.511   6.700  20.800  0.00  0.00    +0.000 C 
ATOM      3  N   UNL     1       0.750   7.382  21.708  0.00  0.00    +0.000 N 
ATOM      4  C   UNL     1       0.552   8.708  21.467  0.00  0.00    +0.000 C 
ATOM      5  O   UNL     1      -0.046   9.429  22.250  0.00  0.00    +0.000 OA
ATOM      6  C   UNL     1       1.194   8.897  20.205  0.00  0.00    +0.000 A 
ATOM      7  C   UNL     1       1.755   7.666  19.751  0.00  0.00    +0.000 A 
ATOM      8  C   UNL     1       2.427   7.485  18.517  0.00  0.00    +0.000 A 
ATOM      9  C   UNL     1       2.576   8.648  17.725  0.00  0.00    +0.000 A 
ATOM     10  C   UNL     1       2.068   9.862  18.189  0.00  0.00    +0.000 A 
ATOM     11  N   UNL     1       2.089  11.133  17.662  0.00  0.00    +0.000 N 
ATOM     12  C   UNL     1       1.444  12.031  18.500  0.00  0.00    +0.000 A 
ATOM     13  C   UNL     1       1.247  13.410  18.334  0.00  0.00    +0.000 A 
ATOM     14  C   UNL     1       0.554  14.098  19.333  0.00  0.00    +0.000 A 
ATOM     15  C   UNL     1       0.085  13.420  20.450  0.00  0.00    +0.000 A 
ATOM     16  C   UNL     1       0.285  12.049  20.615  0.00  0.00    +0.000 A 
ATOM     17  C   UNL     1       0.977  11.325  19.624  0.00  0.00    +0.000 A 
ATOM     18  C   UNL     1       1.394  10.017  19.366  0.00  0.00    +0.000 A 
ATOM     19  H   UNL     1       0.439   6.951  22.563  0.00  0.00    +0.000 HD
ATOM     20  H   UNL     1       2.523  11.387  16.786  0.00  0.00    +0.000 HD
ENDROOT
BRANCH   8  21
ATOM     21  C   UNL     1       2.971   6.180  18.082  0.00  0.00    +0.000 A 
ATOM     22  C   UNL     1       4.343   5.919  17.985  0.00  0.00    +0.000 A 
ATOM     23  C   UNL     1       4.782   4.693  17.501  0.00  0.00    +0.000 A 
ATOM     24  N   UNL     1       3.961   3.673  17.186  0.00  0.00    +0.000 NA
ATOM     25  C   UNL     1       2.645   3.900  17.345  0.00  0.00    +0.000 A 
ATOM     26  C   UNL     1       2.115   5.111  17.772  0.00  0.00    +0.000 A 
ENDBRANCH   8  21
BRANCH  15  27
ATOM     27  O   UNL     1      -0.596  14.075  21.437  0.00  0.00    +0.000 OA
ATOM     28  H   UNL     1      -0.804  14.973  21.132  0.00  0.00    +0.000 HD
ENDBRANCH  15  27
TORSDOF 2
ENDMDL
MODEL 9
REMARK VINA RESULT:      -6.7      3.066      4.483
REMARK  Name = 
REMARK  2 active torsions:
REMARK  status: ('A' for Active; 'I' for Inactive)
REMARK    1  A    between atoms: C_8  and  C_9
REMARK    2  A    between atoms: C_21  and  O_22
REMARK                            x       y       z     vdW  Elec       q    Type
REMARK                         _______ _______ _______ _____ _____    ______ ____
ROOT
ATOM      1  O   UNL     1       3.328   6.265  17.168  0.00  0.00    +0.000 OA
ATOM      2  C   UNL     1       2.880   7.176  17.851  0.00  0.00    +0.000 C 
ATOM      3  N   UNL     1       2.937   8.475  17.432  0.00  0.00    +0.000 N 
ATOM      4  C   UNL     1       2.290   9.395  18.200  0.00  0.00    +0.000 C 
ATOM      5  O   UNL     1       2.211  10.570  17.880  0.00  0.00    +0.000 OA
ATOM      6  C   UNL     1       1.822   8.611  19.300  0.00  0.00    +0.000 A 
ATOM      7  C   UNL     1       2.210   7.249  19.131  0.00  0.00    +0.000 A 
ATOM      8  C   UNL     1       1.947   6.208  20.056  0.00  0.00    +0.000 A 
ATOM      9  C   UNL     1       1.198   6.579  21.197  0.00  0.00    +0.000 A 
ATOM     10  C   UNL     1       0.778   7.902  21.340  0.00  0.00    +0.000 A 
ATOM     11  N   UNL     1       0.030   8.533  22.308  0.00  0.00    +0.000 N 
ATOM     12  C   UNL     1      -0.130   9.880  22.015  0.00  0.00    +0.000 A 
ATOM     13  C   UNL     1      -0.820  10.866  22.736  0.00  0.00    +0.000 A 
ATOM     14  C   UNL     1      -0.830  12.166  22.225  0.00  0.00    +0.000 A 
ATOM     15  C   UNL     1      -0.174  12.452  21.035  0.00  0.00    +0.000 A 
ATOM     16  C   UNL     1       0.508  11.469  20.317  0.00  0.00    +0.000 A 
ATOM     17  C   UNL     1       0.541  10.150  20.808  0.00  0.00    +0.000 A 
ATOM     18  C   UNL     1       1.065   8.903  20.458  0.00  0.00    +0.000 A 
ATOM     19  H   UNL     1       3.347   8.726  16.547  0.00  0.00    +0.000 HD
ATOM     20  H   UNL     1      -0.363   8.080  23.120  0.00  0.00    +0.000 HD
ENDROOT
BRANCH   8  21
ATOM     21  C   UNL     1       2.392   4.814  19.844  0.00  0.00    +0.000 A 
ATOM     22  C   UNL     1       3.714   4.395  20.038  0.00  0.00    +0.000 A 
ATOM     23  C   UNL     1       4.073   3.084  19.750  0.00  0.00    +0.000 A 
ATOM     24  N   UNL     1       3.202   2.133  19.367  0.00  0.00    +0.000 NA
ATOM     25  C   UNL     1       1.918   2.518  19.248  0.00  0.00    +0.000 A 
ATOM     26  C   UNL     1       1.478   3.818  19.462  0.00  0.00    +0.000 A 
ENDBRANCH   8  21
BRANCH  15  27
ATOM     27  O   UNL     1      -0.172  13.718  20.520  0.00  0.00    +0.000 OA
ATOM     28  H   UNL     1      -0.969  14.181  20.822  0.00  0.00    +0.000 HD
ENDBRANCH  15  27
TORSDOF 2
ENDMDL
