MODEL 1
REMARK VINA RESULT:      -7.5      0.000      0.000
REMARK  Name = 
REMARK  6 active torsions:
REMARK  status: ('A' for Active; 'I' for Inactive)
REMARK    1  A    between atoms: C_2  and  C_3
REMARK    2  A    between atoms: C_3  and  C_4
REMARK    3  A    between atoms: C_4  and  O_5
REMARK    4  A    between atoms: C_7  and  C_8
REMARK    5  A    between atoms: C_18  and  O_19
REMARK    6  A    between atoms: C_20  and  O_21
REMARK                            x       y       z     vdW  Elec       q    Type
REMARK                         _______ _______ _______ _____ _____    ______ ____
ROOT
ATOM      1  C   UNL     1       6.450   5.532  16.822  0.00  0.00    +0.000 C 
ATOM      2  O   UNL     1       5.094   5.775  17.275  0.00  0.00    +0.000 OA
ATOM      3  C   UNL     1       5.151   5.773  18.724  0.00  0.00    +0.000 C 
ATOM      4  C   UNL     1       6.282   4.798  19.117  0.00  0.00    +0.000 C 
ATOM      5  C   UNL     1       6.982   4.477  17.794  0.00  0.00    +0.000 C 
ENDROOT
BRANCH   3   6
ATOM      6  C   UNL     1       3.815   5.375  19.239  0.00  0.00    +0.000 A 
ATOM      7  C   UNL     1       2.862   6.074  19.966  0.00  0.00    +0.000 A 
ATOM      8  C   UNL     1       1.747   5.223  20.153  0.00  0.00    +0.000 A 
ATOM      9  C   UNL     1       2.057   4.023  19.548  0.00  0.00    +0.000 A 
ATOM     10  C   UNL     1       1.351   2.795  19.386  0.00  0.00    +0.000 A 
ATOM     11  N   UNL     1       0.070   2.600  19.814  0.00  0.00    +0.000 N 
ATOM     12  N   UNL     1       1.961   1.808  18.803  0.00  0.00    +0.000 NA
ATOM     13  C   UNL     1       3.243   2.003  18.345  0.00  0.00    +0.000 A 
ATOM     14  N   UNL     1       3.945   3.094  18.408  0.00  0.00    +0.000 NA
ATOM     15  N   UNL     1       3.311   4.108  19.026  0.00  0.00    +0.000 N 
ATOM     16  H   UNL     1      -0.246   3.165  20.591  0.00  0.00    +0.000 HD
ATOM     17  H   UNL     1      -0.193   1.621  19.873  0.00  0.00    +0.000 HD
ENDBRANCH   3   6
BRANCH   1  19
ATOM     18  N   UNL     1       7.868   7.745  17.022  0.00  0.00    +0.000 NA
ATOM     19  C   UNL     1       7.237   6.788  16.893  0.00  0.00    +0.000 C 
ENDBRANCH   1  19
BRANCH   4  20
ATOM     20  O   UNL     1       7.247   5.331  20.032  0.00  0.00    +0.000 OA
ATOM     21  H   UNL     1       7.339   6.292  19.896  0.00  0.00    +0.000 HD
ENDBRANCH   4  20
BRANCH   5  22
ATOM     22  O   UNL     1       8.402   4.437  17.900  0.00  0.00    +0.000 OA
ATOM     23  H   UNL     1       8.704   3.732  17.284  0.00  0.00    +0.000 HD
ENDBRANCH   5  22
BRANCH   1  24
ATOM     24  C   UNL     1       6.434   5.006  15.378  0.00  0.00    +0.000 C 
BRANCH  24  25
ATOM     25  O   UNL     1       7.542   5.462  14.595  0.00  0.00    +0.000 OA
ATOM     26  H   UNL     1       7.219   5.696  13.705  0.00  0.00    +0.000 HD
ENDBRANCH  24  25
ENDBRANCH   1  24
TORSDOF 6
ENDMDL
MODEL 2
REMARK VINA RESULT:      -7.4      2.849      6.226
REMARK  Name = 
REMARK  6 active torsions:
REMARK  status: ('A' for Active; 'I' for Inactive)
REMARK    1  A    between atoms: C_2  and  C_3
REMARK    2  A    between atoms: C_3  and  C_4
REMARK    3  A    between atoms: C_4  and  O_5
REMARK    4  A    between atoms: C_7  and  C_8
REMARK    5  A    between atoms: C_18  and  O_19
REMARK    6  A    between atoms: C_20  and  O_21
REMARK                            x       y       z     vdW  Elec       q    Type
REMARK                         _______ _______ _______ _____ _____    ______ ____
ROOT
ATOM      1  C   UNL     1       2.223   2.930  19.650  0.00  0.00    +0.000 C 
ATOM      2  O   UNL     1       3.448   3.448  19.071  0.00  0.00    +0.000 OA
ATOM      3  C   UNL     1       3.561   4.817  19.535  0.00  0.00    +0.000 C 
ATOM      4  C   UNL     1       2.119   5.343  19.706  0.00  0.00    +0.000 C 
ATOM      5  C   UNL     1       1.242   4.100  19.547  0.00  0.00    +0.000 C 
ENDROOT
BRANCH   3   6
ATOM      6  C   UNL     1       4.360   5.579  18.539  0.00  0.00    +0.000 A 
ATOM      7  C   UNL     1       4.006   6.177  17.338  0.00  0.00    +0.000 A 
ATOM      8  C   UNL     1       5.157   6.810  16.812  0.00  0.00    +0.000 A 
ATOM      9  C   UNL     1       6.184   6.568  17.699  0.00  0.00    +0.000 A 
ATOM     10  C   UNL     1       7.560   6.944  17.734  0.00  0.00    +0.000 A 
ATOM     11  N   UNL     1       8.144   7.752  16.802  0.00  0.00    +0.000 N 
ATOM     12  N   UNL     1       8.296   6.489  18.702  0.00  0.00    +0.000 NA
ATOM     13  C   UNL     1       7.710   5.696  19.661  0.00  0.00    +0.000 A 
ATOM     14  N   UNL     1       6.463   5.340  19.734  0.00  0.00    +0.000 NA
ATOM     15  N   UNL     1       5.709   5.803  18.719  0.00  0.00    +0.000 N 
ATOM     16  H   UNL     1       7.730   7.763  15.880  0.00  0.00    +0.000 HD
ATOM     17  H   UNL     1       9.157   7.707  16.807  0.00  0.00    +0.000 HD
ENDBRANCH   3   6
BRANCH   1  19
ATOM     18  N   UNL     1       2.568   2.224  22.166  0.00  0.00    +0.000 NA
ATOM     19  C   UNL     1       2.460   2.539  21.062  0.00  0.00    +0.000 C 
ENDBRANCH   1  19
BRANCH   4  20
ATOM     20  O   UNL     1       1.843   5.943  20.977  0.00  0.00    +0.000 OA
ATOM     21  H   UNL     1       2.476   6.664  21.149  0.00  0.00    +0.000 HD
ENDBRANCH   4  20
BRANCH   5  22
ATOM     22  O   UNL     1       0.162   4.046  20.474  0.00  0.00    +0.000 OA
ATOM     23  H   UNL     1      -0.086   4.979  20.661  0.00  0.00    +0.000 HD
ENDBRANCH   5  22
BRANCH   1  24
ATOM     24  C   UNL     1       1.735   1.716  18.845  0.00  0.00    +0.000 C 
BRANCH  24  25
ATOM     25  O   UNL     1       0.389   1.847  18.378  0.00  0.00    +0.000 OA
ATOM     26  H   UNL     1       0.267   1.258  17.610  0.00  0.00    +0.000 HD
ENDBRANCH  24  25
ENDBRANCH   1  24
TORSDOF 6
ENDMDL
MODEL 3
REMARK VINA RESULT:      -7.3      2.749      5.827
REMARK  Name = 
REMARK  6 active torsions:
REMARK  status: ('A' for Active; 'I' for Inactive)
REMARK    1  A    between atoms: C_2  and  C_3
REMARK    2  A    between atoms: C_3  and  C_4
REMARK    3  A    between atoms: C_4  and  O_5
REMARK    4  A    between atoms: C_7  and  C_8
REMARK    5  A    between atoms: C_18  and  O_19
REMARK    6  A    between atoms: C_20  and  O_21
REMARK                            x       y       z     vdW  Elec       q    Type
REMARK                         _______ _______ _______ _____ _____    ______ ____
ROOT
ATOM      1  C   UNL     1       2.964   2.966  19.362  0.00  0.00    +0.000 C 
ATOM      2  O   UNL     1       4.325   3.222  18.931  0.00  0.00    +0.000 OA
ATOM      3  C   UNL     1       4.601   4.602  19.280  0.00  0.00    +0.000 C 
ATOM      4  C   UNL     1       3.257   5.357  19.181  0.00  0.00    +0.000 C 
ATOM      5  C   UNL     1       2.214   4.251  19.005  0.00  0.00    +0.000 C 
ENDROOT
BRANCH   3   6
ATOM      6  C   UNL     1       5.643   5.115  18.352  0.00  0.00    +0.000 A 
ATOM      7  C   UNL     1       6.746   5.929  18.564  0.00  0.00    +0.000 A 
ATOM      8  C   UNL     1       7.428   6.067  17.332  0.00  0.00    +0.000 A 
ATOM      9  C   UNL     1       6.714   5.346  16.399  0.00  0.00    +0.000 A 
ATOM     10  C   UNL     1       6.894   5.091  15.008  0.00  0.00    +0.000 A 
ATOM     11  N   UNL     1       7.969   5.534  14.294  0.00  0.00    +0.000 N 
ATOM     12  N   UNL     1       5.984   4.404  14.386  0.00  0.00    +0.000 NA
ATOM     13  C   UNL     1       4.910   3.931  15.103  0.00  0.00    +0.000 A 
ATOM     14  N   UNL     1       4.686   4.075  16.374  0.00  0.00    +0.000 NA
ATOM     15  N   UNL     1       5.626   4.800  17.009  0.00  0.00    +0.000 N 
ATOM     16  H   UNL     1       8.432   6.368  14.630  0.00  0.00    +0.000 HD
ATOM     17  H   UNL     1       7.826   5.511  13.289  0.00  0.00    +0.000 HD
ENDBRANCH   3   6
BRANCH   1  19
ATOM     18  N   UNL     1       2.847   2.534  21.960  0.00  0.00    +0.000 NA
ATOM     19  C   UNL     1       2.939   2.708  20.823  0.00  0.00    +0.000 C 
ENDBRANCH   1  19
BRANCH   4  20
ATOM     20  O   UNL     1       2.916   6.133  20.336  0.00  0.00    +0.000 OA
ATOM     21  H   UNL     1       1.947   6.215  20.407  0.00  0.00    +0.000 HD
ENDBRANCH   4  20
BRANCH   5  22
ATOM     22  O   UNL     1       1.025   4.468  19.758  0.00  0.00    +0.000 OA
ATOM     23  H   UNL     1       1.188   4.077  20.646  0.00  0.00    +0.000 HD
ENDBRANCH   5  22
BRANCH   1  24
ATOM     24  C   UNL     1       2.394   1.755  18.607  0.00  0.00    +0.000 C 
BRANCH  24  25
ATOM     25  O   UNL     1       0.964   1.722  18.583  0.00  0.00    +0.000 OA
ATOM     26  H   UNL     1       0.674   0.792  18.544  0.00  0.00    +0.000 HD
ENDBRANCH  24  25
ENDBRANCH   1  24
TORSDOF 6
ENDMDL
MODEL 4
REMARK VINA RESULT:      -7.3      3.601      4.978
REMARK  Name = 
REMARK  6 active torsions:
REMARK  status: ('A' for Active; 'I' for Inactive)
REMARK    1  A    between atoms: C_2  and  C_3
REMARK    2  A    between atoms: C_3  and  C_4
REMARK    3  A    between atoms: C_4  and  O_5
REMARK    4  A    between atoms: C_7  and  C_8
REMARK    5  A    between atoms: C_18  and  O_19
REMARK    6  A    between atoms: C_20  and  O_21
REMARK                            x       y       z     vdW  Elec       q    Type
REMARK                         _______ _______ _______ _____ _____    ______ ____
ROOT
ATOM      1  C   UNL     1       3.346   3.796  17.853  0.00  0.00    +0.000 C 
ATOM      2  O   UNL     1       2.511   4.965  18.060  0.00  0.00    +0.000 OA
ATOM      3  C   UNL     1       3.323   5.909  18.802  0.00  0.00    +0.000 C 
ATOM      4  C   UNL     1       4.277   5.071  19.682  0.00  0.00    +0.000 C 
ATOM      5  C   UNL     1       4.095   3.637  19.177  0.00  0.00    +0.000 C 
ENDROOT
BRANCH   3   6
ATOM      6  C   UNL     1       2.413   6.789  19.581  0.00  0.00    +0.000 A 
ATOM      7  C   UNL     1       1.756   6.597  20.787  0.00  0.00    +0.000 A 
ATOM      8  C   UNL     1       1.050   7.786  21.091  0.00  0.00    +0.000 A 
ATOM      9  C   UNL     1       1.285   8.664  20.055  0.00  0.00    +0.000 A 
ATOM     10  C   UNL     1       0.871  10.003  19.790  0.00  0.00    +0.000 A 
ATOM     11  N   UNL     1       0.121  10.745  20.655  0.00  0.00    +0.000 N 
ATOM     12  N   UNL     1       1.224  10.543  18.663  0.00  0.00    +0.000 NA
ATOM     13  C   UNL     1       2.003   9.813  17.796  0.00  0.00    +0.000 A 
ATOM     14  N   UNL     1       2.462   8.610  17.971  0.00  0.00    +0.000 NA
ATOM     15  N   UNL     1       2.080   8.051  19.135  0.00  0.00    +0.000 N 
ATOM     16  H   UNL     1      -0.480  10.239  21.292  0.00  0.00    +0.000 HD
ATOM     17  H   UNL     1      -0.313  11.554  20.223  0.00  0.00    +0.000 HD
ENDBRANCH   3   6
BRANCH   1  19
ATOM     18  N   UNL     1       5.061   4.208  15.894  0.00  0.00    +0.000 NA
ATOM     19  C   UNL     1       4.278   4.037  16.724  0.00  0.00    +0.000 C 
ENDBRANCH   1  19
BRANCH   4  20
ATOM     20  O   UNL     1       5.661   5.425  19.576  0.00  0.00    +0.000 OA
ATOM     21  H   UNL     1       5.842   6.223  20.104  0.00  0.00    +0.000 HD
ENDBRANCH   4  20
BRANCH   5  22
ATOM     22  O   UNL     1       5.317   2.912  19.080  0.00  0.00    +0.000 OA
ATOM     23  H   UNL     1       6.033   3.549  19.298  0.00  0.00    +0.000 HD
ENDBRANCH   5  22
BRANCH   1  24
ATOM     24  C   UNL     1       2.468   2.571  17.554  0.00  0.00    +0.000 C 
BRANCH  24  25
ATOM     25  O   UNL     1       2.704   1.473  18.441  0.00  0.00    +0.000 OA
ATOM     26  H   UNL     1       2.015   0.799  18.293  0.00  0.00    +0.000 HD
ENDBRANCH  24  25
ENDBRANCH   1  24
TORSDOF 6
ENDMDL
MODEL 5
REMARK VINA RESULT:      -7.2      3.659      5.589
REMARK  Name = 
REMARK  6 active torsions:
REMARK  status: ('A' for Active; 'I' for Inactive)
REMARK    1  A    between atoms: C_2  and  C_3
REMARK    2  A    between atoms: C_3  and  C_4
REMARK    3  A    between atoms: C_4  and  O_5
REMARK    4  A    between atoms: C_7  and  C_8
REMARK    5  A    between atoms: C_18  and  O_19
REMARK    6  A    between atoms: C_20  and  O_21
REMARK                            x       y       z     vdW  Elec       q    Type
REMARK                         _______ _______ _______ _____ _____    ______ ____
ROOT
ATOM      1  C   UNL     1       3.378   2.831  19.113  0.00  0.00    +0.000 C 
ATOM      2  O   UNL     1       3.742   4.144  18.616  0.00  0.00    +0.000 OA
ATOM      3  C   UNL     1       3.272   5.090  19.609  0.00  0.00    +0.000 C 
ATOM      4  C   UNL     1       2.011   4.468  20.248  0.00  0.00    +0.000 C 
ATOM      5  C   UNL     1       1.985   3.034  19.713  0.00  0.00    +0.000 C 
ENDROOT
BRANCH   3   6
ATOM      6  C   UNL     1       3.018   6.387  18.930  0.00  0.00    +0.000 A 
ATOM      7  C   UNL     1       3.437   6.882  17.703  0.00  0.00    +0.000 A 
ATOM      8  C   UNL     1       2.862   8.164  17.532  0.00  0.00    +0.000 A 
ATOM      9  C   UNL     1       2.120   8.421  18.665  0.00  0.00    +0.000 A 
ATOM     10  C   UNL     1       1.311   9.520  19.080  0.00  0.00    +0.000 A 
ATOM     11  N   UNL     1       1.066  10.612  18.300  0.00  0.00    +0.000 N 
ATOM     12  N   UNL     1       0.781   9.480  20.265  0.00  0.00    +0.000 NA
ATOM     13  C   UNL     1       1.000   8.371  21.048  0.00  0.00    +0.000 A 
ATOM     14  N   UNL     1       1.683   7.310  20.739  0.00  0.00    +0.000 NA
ATOM     15  N   UNL     1       2.240   7.365  19.515  0.00  0.00    +0.000 N 
ATOM     16  H   UNL     1       1.761  10.844  17.603  0.00  0.00    +0.000 HD
ATOM     17  H   UNL     1       0.711  11.409  18.818  0.00  0.00    +0.000 HD
ENDBRANCH   3   6
BRANCH   1  19
ATOM     18  N   UNL     1       5.089   1.980  20.929  0.00  0.00    +0.000 NA
ATOM     19  C   UNL     1       4.356   2.393  20.139  0.00  0.00    +0.000 C 
ENDBRANCH   1  19
BRANCH   4  20
ATOM     20  O   UNL     1       2.018   4.426  21.680  0.00  0.00    +0.000 OA
ATOM     21  H   UNL     1       1.146   4.690  22.024  0.00  0.00    +0.000 HD
ENDBRANCH   4  20
BRANCH   5  22
ATOM     22  O   UNL     1       1.621   2.069  20.695  0.00  0.00    +0.000 OA
ATOM     23  H   UNL     1       2.458   1.791  21.131  0.00  0.00    +0.000 HD
ENDBRANCH   5  22
BRANCH   1  24
ATOM     24  C   UNL     1       3.348   1.822  17.954  0.00  0.00    +0.000 C 
BRANCH  24  25
ATOM     25  O   UNL     1       4.083   0.624  18.225  0.00  0.00    +0.000 OA
ATOM     26  H   UNL     1       5.025   0.853  18.329  0.00  0.00    +0.000 HD
ENDBRANCH  24  25
ENDBRANCH   1  24
TORSDOF 6
ENDMDL
MODEL 6
REMARK VINA RESULT:      -7.2      2.711      6.032
REMARK  Name = 
REMARK  6 active torsions:
REMARK  status: ('A' for Active; 'I' for Inactive)
REMARK    1  A    between atoms: C_2  and  C_3
REMARK    2  A    between atoms: C_3  and  C_4
REMARK    3  A    between atoms: C_4  and  O_5
REMARK    4  A    between atoms: C_7  and  C_8
REMARK    5  A    between atoms: C_18  and  O_19
REMARK    6  A    between atoms: C_20  and  O_21
REMARK                            x       y       z     vdW  Elec       q    Type
REMARK                         _______ _______ _______ _____ _____    ______ ____
ROOT
ATOM      1  C   UNL     1       3.744   2.395  19.975  0.00  0.00    +0.000 C 
ATOM      2  O   UNL     1       4.472   3.623  19.716  0.00  0.00    +0.000 OA
ATOM      3  C   UNL     1       3.553   4.488  19.003  0.00  0.00    +0.000 C 
ATOM      4  C   UNL     1       2.630   3.564  18.178  0.00  0.00    +0.000 C 
ATOM      5  C   UNL     1       2.951   2.157  18.688  0.00  0.00    +0.000 C 
ENDROOT
BRANCH   3   6
ATOM      6  C   UNL     1       4.352   5.427  18.173  0.00  0.00    +0.000 A 
ATOM      7  C   UNL     1       4.038   6.132  17.019  0.00  0.00    +0.000 A 
ATOM      8  C   UNL     1       5.163   6.918  16.671  0.00  0.00    +0.000 A 
ATOM      9  C   UNL     1       6.135   6.660  17.613  0.00  0.00    +0.000 A 
ATOM     10  C   UNL     1       7.462   7.144  17.813  0.00  0.00    +0.000 A 
ATOM     11  N   UNL     1       8.039   8.104  17.032  0.00  0.00    +0.000 N 
ATOM     12  N   UNL     1       8.159   6.643  18.787  0.00  0.00    +0.000 NA
ATOM     13  C   UNL     1       7.577   5.695  19.595  0.00  0.00    +0.000 A 
ATOM     14  N   UNL     1       6.367   5.228  19.517  0.00  0.00    +0.000 NA
ATOM     15  N   UNL     1       5.655   5.742  18.496  0.00  0.00    +0.000 N 
ATOM     16  H   UNL     1       7.700   8.189  16.083  0.00  0.00    +0.000 HD
ATOM     17  H   UNL     1       9.048   8.145  17.122  0.00  0.00    +0.000 HD
ENDBRANCH   3   6
BRANCH   1  19
ATOM     18  N   UNL     1       2.156   2.795  22.040  0.00  0.00    +0.000 NA
ATOM     19  C   UNL     1       2.849   2.577  21.144  0.00  0.00    +0.000 C 
ENDBRANCH   1  19
BRANCH   4  20
ATOM     20  O   UNL     1       1.228   3.807  18.345  0.00  0.00    +0.000 OA
ATOM     21  H   UNL     1       0.743   2.962  18.356  0.00  0.00    +0.000 HD
ENDBRANCH   4  20
BRANCH   5  22
ATOM     22  O   UNL     1       1.797   1.337  18.852  0.00  0.00    +0.000 OA
ATOM     23  H   UNL     1       1.565   1.008  17.954  0.00  0.00    +0.000 HD
ENDBRANCH   5  22
BRANCH   1  24
ATOM     24  C   UNL     1       4.731   1.248  20.245  0.00  0.00    +0.000 C 
BRANCH  24  25
ATOM     25  O   UNL     1       5.446   1.392  21.476  0.00  0.00    +0.000 OA
ATOM     26  H   UNL     1       6.401   1.321  21.292  0.00  0.00    +0.000 HD
ENDBRANCH  24  25
ENDBRANCH   1  24
TORSDOF 6
ENDMDL
MODEL 7
REMARK VINA RESULT:      -7.2      4.050      5.782
REMARK  Name = 
REMARK  6 active torsions:
REMARK  status: ('A' for Active; 'I' for Inactive)
REMARK    1  A    between atoms: C_2  and  C_3
REMARK    2  A    between atoms: C_3  and  C_4
REMARK    3  A    between atoms: C_4  and  O_5
REMARK    4  A    between atoms: C_7  and  C_8
REMARK    5  A    between atoms: C_18  and  O_19
REMARK    6  A    between atoms: C_20  and  O_21
REMARK                            x       y       z     vdW  Elec       q    Type
REMARK                         _______ _______ _______ _____ _____    ______ ____
ROOT
ATOM      1  C   UNL     1       2.933   4.074  18.415  0.00  0.00    +0.000 C 
ATOM      2  O   UNL     1       3.018   5.477  18.058  0.00  0.00    +0.000 OA
ATOM      3  C   UNL     1       2.807   6.215  19.288  0.00  0.00    +0.000 C 
ATOM      4  C   UNL     1       1.860   5.358  20.157  0.00  0.00    +0.000 C 
ATOM      5  C   UNL     1       1.783   4.017  19.423  0.00  0.00    +0.000 C 
ENDROOT
BRANCH   3   6
ATOM      6  C   UNL     1       2.251   7.549  18.938  0.00  0.00    +0.000 A 
ATOM      7  C   UNL     1       2.189   8.233  17.733  0.00  0.00    +0.000 A 
ATOM      8  C   UNL     1       1.510   9.454  17.962  0.00  0.00    +0.000 A 
ATOM      9  C   UNL     1       1.190   9.486  19.302  0.00  0.00    +0.000 A 
ATOM     10  C   UNL     1       0.505  10.428  20.125  0.00  0.00    +0.000 A 
ATOM     11  N   UNL     1      -0.063  11.573  19.648  0.00  0.00    +0.000 N 
ATOM     12  N   UNL     1       0.421  10.185  21.398  0.00  0.00    +0.000 NA
ATOM     13  C   UNL     1       0.967   9.020  21.885  0.00  0.00    +0.000 A 
ATOM     14  N   UNL     1       1.567   8.088  21.208  0.00  0.00    +0.000 NA
ATOM     15  N   UNL     1       1.663   8.354  19.891  0.00  0.00    +0.000 N 
ATOM     16  H   UNL     1       0.333  11.965  18.803  0.00  0.00    +0.000 HD
ATOM     17  H   UNL     1      -0.267  12.256  20.370  0.00  0.00    +0.000 HD
ENDBRANCH   3   6
BRANCH   1  19
ATOM     18  N   UNL     1       5.168   3.233  19.531  0.00  0.00    +0.000 NA
ATOM     19  C   UNL     1       4.213   3.630  19.020  0.00  0.00    +0.000 C 
ENDBRANCH   1  19
BRANCH   4  20
ATOM     20  O   UNL     1       2.314   5.126  21.496  0.00  0.00    +0.000 OA
ATOM     21  H   UNL     1       3.207   4.737  21.481  0.00  0.00    +0.000 HD
ENDBRANCH   4  20
BRANCH   5  22
ATOM     22  O   UNL     1       1.820   2.891  20.295  0.00  0.00    +0.000 OA
ATOM     23  H   UNL     1       2.366   2.210  19.842  0.00  0.00    +0.000 HD
ENDBRANCH   5  22
BRANCH   1  24
ATOM     24  C   UNL     1       2.625   3.233  17.166  0.00  0.00    +0.000 C 
BRANCH  24  25
ATOM     25  O   UNL     1       2.174   1.909  17.469  0.00  0.00    +0.000 OA
ATOM     26  H   UNL     1       2.847   1.469  18.019  0.00  0.00    +0.000 HD
ENDBRANCH  24  25
ENDBRANCH   1  24
TORSDOF 6
ENDMDL
MODEL 8
REMARK VINA RESULT:      -7.1      4.013      5.261
REMARK  Name = 
REMARK  6 active torsions:
REMARK  status: ('A' for Active; 'I' for Inactive)
REMARK    1  A    between atoms: C_2  and  C_3
REMARK    2  A    between atoms: C_3  and  C_4
REMARK    3  A    between atoms: C_4  and  O_5
REMARK    4  A    between atoms: C_7  and  C_8
REMARK    5  A    between atoms: C_18  and  O_19
REMARK    6  A    between atoms: C_20  and  O_21
REMARK                            x       y       z     vdW  Elec       q    Type
REMARK                         _______ _______ _______ _____ _____    ______ ____
ROOT
ATOM      1  C   UNL     1       4.133   5.054  18.180  0.00  0.00    +0.000 C 
ATOM      2  O   UNL     1       3.796   6.459  18.049  0.00  0.00    +0.000 OA
ATOM      3  C   UNL     1       3.082   6.813  19.261  0.00  0.00    +0.000 C 
ATOM      4  C   UNL     1       2.333   5.542  19.716  0.00  0.00    +0.000 C 
ATOM      5  C   UNL     1       2.889   4.433  18.819  0.00  0.00    +0.000 C 
ENDROOT
BRANCH   3   6
ATOM      6  C   UNL     1       2.184   7.956  18.951  0.00  0.00    +0.000 A 
ATOM      7  C   UNL     1       1.892   8.602  17.759  0.00  0.00    +0.000 A 
ATOM      8  C   UNL     1       0.929   9.603  18.031  0.00  0.00    +0.000 A 
ATOM      9  C   UNL     1       0.673   9.550  19.384  0.00  0.00    +0.000 A 
ATOM     10  C   UNL     1      -0.196  10.281  20.248  0.00  0.00    +0.000 A 
ATOM     11  N   UNL     1      -1.063  11.239  19.809  0.00  0.00    +0.000 N 
ATOM     12  N   UNL     1      -0.157  10.024  21.520  0.00  0.00    +0.000 NA
ATOM     13  C   UNL     1       0.695   9.041  21.968  0.00  0.00    +0.000 A 
ATOM     14  N   UNL     1       1.486   8.298  21.255  0.00  0.00    +0.000 NA
ATOM     15  N   UNL     1       1.450   8.580  19.938  0.00  0.00    +0.000 N 
ATOM     16  H   UNL     1      -0.821  11.721  18.953  0.00  0.00    +0.000 HD
ATOM     17  H   UNL     1      -1.405  11.844  20.548  0.00  0.00    +0.000 HD
ENDBRANCH   3   6
BRANCH   1  19
ATOM     18  N   UNL     1       6.279   4.853  19.698  0.00  0.00    +0.000 NA
ATOM     19  C   UNL     1       5.327   4.902  19.048  0.00  0.00    +0.000 C 
ENDBRANCH   1  19
BRANCH   4  20
ATOM     20  O   UNL     1       2.543   5.176  21.085  0.00  0.00    +0.000 OA
ATOM     21  H   UNL     1       1.736   5.350  21.603  0.00  0.00    +0.000 HD
ENDBRANCH   4  20
BRANCH   5  22
ATOM     22  O   UNL     1       3.130   3.212  19.511  0.00  0.00    +0.000 OA
ATOM     23  H   UNL     1       3.446   3.462  20.408  0.00  0.00    +0.000 HD
ENDBRANCH   5  22
BRANCH   1  24
ATOM     24  C   UNL     1       4.413   4.451  16.795  0.00  0.00    +0.000 C 
BRANCH  24  25
ATOM     25  O   UNL     1       5.575   3.617  16.763  0.00  0.00    +0.000 OA
ATOM     26  H   UNL     1       5.411   2.831  17.316  0.00  0.00    +0.000 HD
ENDBRANCH  24  25
ENDBRANCH   1  24
TORSDOF 6
ENDMDL
MODEL 9
REMARK VINA RESULT:      -7.1      2.868      6.198
REMARK  Name = 
REMARK  6 active torsions:
REMARK  status: ('A' for Active; 'I' for Inactive)
REMARK    1  A    between atoms: C_2  and  C_3
REMARK    2  A    between atoms: C_3  and  C_4
REMARK    3  A    between atoms: C_4  and  O_5
REMARK    4  A    between atoms: C_7  and  C_8
REMARK    5  A    between atoms: C_18  and  O_19
REMARK    6  A    between atoms: C_20  and  O_21
REMARK                            x       y       z     vdW  Elec       q    Type
REMARK                         _______ _______ _______ _____ _____    ______ ____
ROOT
ATOM      1  C   UNL     1       1.827   3.222  19.744  0.00  0.00    +0.000 C 
ATOM      2  O   UNL     1       2.932   2.847  18.881  0.00  0.00    +0.000 OA
ATOM      3  C   UNL     1       3.863   3.958  18.920  0.00  0.00    +0.000 C 
ATOM      4  C   UNL     1       3.017   5.233  19.130  0.00  0.00    +0.000 C 
ATOM      5  C   UNL     1       1.615   4.708  19.449  0.00  0.00    +0.000 C 
ENDROOT
BRANCH   3   6
ATOM      6  C   UNL     1       4.636   3.958  17.650  0.00  0.00    +0.000 A 
ATOM      7  C   UNL     1       4.545   3.163  16.517  0.00  0.00    +0.000 A 
ATOM      8  C   UNL     1       5.502   3.628  15.583  0.00  0.00    +0.000 A 
ATOM      9  C   UNL     1       6.159   4.683  16.178  0.00  0.00    +0.000 A 
ATOM     10  C   UNL     1       7.200   5.559  15.750  0.00  0.00    +0.000 A 
ATOM     11  N   UNL     1       7.749   5.522  14.501  0.00  0.00    +0.000 N 
ATOM     12  N   UNL     1       7.652   6.436  16.594  0.00  0.00    +0.000 NA
ATOM     13  C   UNL     1       7.086   6.498  17.847  0.00  0.00    +0.000 A 
ATOM     14  N   UNL     1       6.110   5.775  18.308  0.00  0.00    +0.000 NA
ATOM     15  N   UNL     1       5.657   4.859  17.431  0.00  0.00    +0.000 N 
ATOM     16  H   UNL     1       7.717   4.638  14.011  0.00  0.00    +0.000 HD
ATOM     17  H   UNL     1       8.638   6.006  14.435  0.00  0.00    +0.000 HD
ENDBRANCH   3   6
BRANCH   1  19
ATOM     18  N   UNL     1       2.410   2.826  22.284  0.00  0.00    +0.000 NA
ATOM     19  C   UNL     1       2.197   2.994  21.163  0.00  0.00    +0.000 C 
ENDBRANCH   1  19
BRANCH   4  20
ATOM     20  O   UNL     1       3.451   6.074  20.205  0.00  0.00    +0.000 OA
ATOM     21  H   UNL     1       2.825   6.012  20.950  0.00  0.00    +0.000 HD
ENDBRANCH   4  20
BRANCH   5  22
ATOM     22  O   UNL     1       0.964   5.428  20.492  0.00  0.00    +0.000 OA
ATOM     23  H   UNL     1       0.337   6.044  20.051  0.00  0.00    +0.000 HD
ENDBRANCH   5  22
BRANCH   1  24
ATOM     24  C   UNL     1       0.581   2.396  19.389  0.00  0.00    +0.000 C 
BRANCH  24  25
ATOM     25  O   UNL     1       0.689   1.714  18.136  0.00  0.00    +0.000 OA
ATOM     26  H   UNL     1       1.237   2.251  17.534  0.00  0.00    +0.000 HD
ENDBRANCH  24  25
ENDBRANCH   1  24
TORSDOF 6
ENDMDL
