MODEL 1
REMARK VINA RESULT:      -7.9      0.000      0.000
REMARK  Name = 
REMARK  9 active torsions:
REMARK  status: ('A' for Active; 'I' for Inactive)
REMARK    1  A    between atoms: C_1  and  C_2
REMARK    2  A    between atoms: C_2  and  C_3
REMARK    3  A    between atoms: C_3  and  C_4
REMARK    4  A    between atoms: C_4  and  N_5
REMARK    5  A    between atoms: C_6  and  S_7
REMARK    6  A    between atoms: S_7  and  C_8
REMARK    7  A    between atoms: C_8  and  C_9
REMARK    8  A    between atoms: C_24  and  C_25
REMARK    9  A    between atoms: C_29  and  C_30
REMARK                            x       y       z     vdW  Elec       q    Type
REMARK                         _______ _______ _______ _____ _____    ______ ____
ROOT
ATOM      1  S   UNL     1       2.132   6.067  19.915  0.00  0.00    +0.000 S 
ENDROOT
BRANCH   1   3
ATOM      2  N   UNL     1       1.299   8.694  19.751  0.00  0.00    +0.000 N 
ATOM      3  C   UNL     1       1.986   7.640  19.193  0.00  0.00    +0.000 A 
ATOM      4  N   UNL     1       2.444   7.992  18.015  0.00  0.00    +0.000 NA
ATOM      5  N   UNL     1       2.060   9.294  17.788  0.00  0.00    +0.000 NA
ATOM      6  C   UNL     1       1.435   9.741  18.861  0.00  0.00    +0.000 A 
BRANCH   6   7
ATOM      7  C   UNL     1       0.926  11.137  18.997  0.00  0.00    +0.000 A 
ATOM      8  C   UNL     1       1.618  12.323  19.361  0.00  0.00    +0.000 A 
ATOM      9  C   UNL     1       0.690  13.338  19.333  0.00  0.00    +0.000 A 
ATOM     10  O   UNL     1      -0.529  12.855  18.990  0.00  0.00    +0.000 OA
ATOM     11  C   UNL     1      -0.384  11.515  18.778  0.00  0.00    +0.000 A 
ATOM     12  C   UNL     1      -1.619  10.771  18.452  0.00  0.00    +0.000 C 
ENDBRANCH   6   7
BRANCH   2  13
ATOM     13  C   UNL     1       0.365   8.649  20.860  0.00  0.00    +0.000 C 
BRANCH  13  14
ATOM     14  C   UNL     1       0.940   9.238  22.156  0.00  0.00    +0.000 C 
BRANCH  14  16
ATOM     15  C   UNL     1      -0.761  11.027  22.728  0.00  0.00    +0.000 C 
ATOM     16  C   UNL     1      -0.150   9.697  23.127  0.00  0.00    +0.000 C 
ENDBRANCH  14  16
ENDBRANCH  13  14
ENDBRANCH   2  13
ENDBRANCH   1   3
BRANCH   1  17
ATOM     17  C   UNL     1       3.899   5.697  19.638  0.00  0.00    +0.000 C 
BRANCH  17  18
ATOM     18  C   UNL     1       4.171   5.123  18.232  0.00  0.00    +0.000 C 
ATOM     19  O   UNL     1       3.236   4.688  17.554  0.00  0.00    +0.000 OA
ATOM     20  N   UNL     1       5.487   5.226  17.736  0.00  0.00    +0.000 N 
ATOM     21  C   UNL     1       6.609   5.778  18.515  0.00  0.00    +0.000 C 
ATOM     22  C   UNL     1       7.500   6.739  17.748  0.00  0.00    +0.000 C 
ATOM     23  O   UNL     1       8.184   7.594  18.303  0.00  0.00    +0.000 OA
ATOM     24  N   UNL     1       7.637   6.497  16.413  0.00  0.00    +0.000 N 
ATOM     25  C   UNL     1       6.917   5.500  15.751  0.00  0.00    +0.000 A 
ATOM     26  C   UNL     1       7.267   5.219  14.428  0.00  0.00    +0.000 A 
ATOM     27  C   UNL     1       6.579   4.237  13.723  0.00  0.00    +0.000 A 
ATOM     28  C   UNL     1       5.536   3.549  14.347  0.00  0.00    +0.000 A 
ATOM     29  C   UNL     1       5.167   3.854  15.666  0.00  0.00    +0.000 A 
ATOM     30  C   UNL     1       5.844   4.841  16.390  0.00  0.00    +0.000 A 
ATOM     31  H   UNL     1       8.323   7.057  15.924  0.00  0.00    +0.000 HD
ENDBRANCH  17  18
ENDBRANCH   1  17
TORSDOF 7
ENDMDL
MODEL 2
REMARK VINA RESULT:      -7.6      0.554      1.141
REMARK  Name = 
REMARK  9 active torsions:
REMARK  status: ('A' for Active; 'I' for Inactive)
REMARK    1  A    between atoms: C_1  and  C_2
REMARK    2  A    between atoms: C_2  and  C_3
REMARK    3  A    between atoms: C_3  and  C_4
REMARK    4  A    between atoms: C_4  and  N_5
REMARK    5  A    between atoms: C_6  and  S_7
REMARK    6  A    between atoms: S_7  and  C_8
REMARK    7  A    between atoms: C_8  and  C_9
REMARK    8  A    between atoms: C_24  and  C_25
REMARK    9  A    between atoms: C_29  and  C_30
REMARK                            x       y       z     vdW  Elec       q    Type
REMARK                         _______ _______ _______ _____ _____    ______ ____
ROOT
ATOM      1  S   UNL     1       2.040   6.391  19.921  0.00  0.00    +0.000 S 
ENDROOT
BRANCH   1   3
ATOM      2  N   UNL     1       1.133   8.987  19.678  0.00  0.00    +0.000 N 
ATOM      3  C   UNL     1       1.854   7.938  19.155  0.00  0.00    +0.000 A 
ATOM      4  N   UNL     1       2.311   8.270  17.970  0.00  0.00    +0.000 NA
ATOM      5  N   UNL     1       1.891   9.554  17.705  0.00  0.00    +0.000 NA
ATOM      6  C   UNL     1       1.245  10.012  18.760  0.00  0.00    +0.000 A 
BRANCH   6   7
ATOM      7  C   UNL     1       0.696  11.397  18.853  0.00  0.00    +0.000 A 
ATOM      8  C   UNL     1      -0.624  11.830  19.149  0.00  0.00    +0.000 A 
ATOM      9  C   UNL     1      -0.598  13.206  19.111  0.00  0.00    +0.000 A 
ATOM     10  O   UNL     1       0.645  13.647  18.799  0.00  0.00    +0.000 OA
ATOM     11  C   UNL     1       1.435  12.545  18.648  0.00  0.00    +0.000 A 
ATOM     12  C   UNL     1       2.832  12.798  18.238  0.00  0.00    +0.000 C 
ENDBRANCH   6   7
BRANCH   2  13
ATOM     13  C   UNL     1       0.193   8.945  20.781  0.00  0.00    +0.000 C 
BRANCH  13  14
ATOM     14  C   UNL     1       0.861   9.140  22.150  0.00  0.00    +0.000 C 
BRANCH  14  16
ATOM     15  C   UNL     1      -0.858  10.844  22.902  0.00  0.00    +0.000 C 
ATOM     16  C   UNL     1      -0.134   9.553  23.237  0.00  0.00    +0.000 C 
ENDBRANCH  14  16
ENDBRANCH  13  14
ENDBRANCH   2  13
ENDBRANCH   1   3
BRANCH   1  17
ATOM     17  C   UNL     1       3.812   6.049  19.636  0.00  0.00    +0.000 C 
BRANCH  17  18
ATOM     18  C   UNL     1       4.074   5.392  18.265  0.00  0.00    +0.000 C 
ATOM     19  O   UNL     1       3.129   4.965  17.596  0.00  0.00    +0.000 OA
ATOM     20  N   UNL     1       5.400   5.410  17.783  0.00  0.00    +0.000 N 
ATOM     21  C   UNL     1       6.536   5.950  18.550  0.00  0.00    +0.000 C 
ATOM     22  C   UNL     1       7.480   6.829  17.749  0.00  0.00    +0.000 C 
ATOM     23  O   UNL     1       8.195   7.680  18.270  0.00  0.00    +0.000 OA
ATOM     24  N   UNL     1       7.622   6.513  16.430  0.00  0.00    +0.000 N 
ATOM     25  C   UNL     1       6.866   5.517  15.808  0.00  0.00    +0.000 A 
ATOM     26  C   UNL     1       7.219   5.153  14.506  0.00  0.00    +0.000 A 
ATOM     27  C   UNL     1       6.495   4.169  13.843  0.00  0.00    +0.000 A 
ATOM     28  C   UNL     1       5.414   3.561  14.484  0.00  0.00    +0.000 A 
ATOM     29  C   UNL     1       5.044   3.950  15.781  0.00  0.00    +0.000 A 
ATOM     30  C   UNL     1       5.756   4.941  16.464  0.00  0.00    +0.000 A 
ATOM     31  H   UNL     1       8.339   7.017  15.924  0.00  0.00    +0.000 HD
ENDBRANCH  17  18
ENDBRANCH   1  17
TORSDOF 7
ENDMDL
MODEL 3
REMARK VINA RESULT:      -7.5      2.926      9.089
REMARK  Name = 
REMARK  9 active torsions:
REMARK  status: ('A' for Active; 'I' for Inactive)
REMARK    1  A    between atoms: C_1  and  C_2
REMARK    2  A    between atoms: C_2  and  C_3
REMARK    3  A    between atoms: C_3  and  C_4
REMARK    4  A    between atoms: C_4  and  N_5
REMARK    5  A    between atoms: C_6  and  S_7
REMARK    6  A    between atoms: S_7  and  C_8
REMARK    7  A    between atoms: C_8  and  C_9
REMARK    8  A    between atoms: C_24  and  C_25
REMARK    9  A    between atoms: C_29  and  C_30
REMARK                            x       y       z     vdW  Elec       q    Type
REMARK                         _______ _______ _______ _____ _____    ______ ____
ROOT
ATOM      1  S   UNL     1       1.231   8.870  20.336  0.00  0.00    +0.000 S 
ENDROOT
BRANCH   1   3
ATOM      2  N   UNL     1       2.160   6.436  19.425  0.00  0.00    +0.000 N 
ATOM      3  C   UNL     1       2.053   7.796  19.247  0.00  0.00    +0.000 A 
ATOM      4  N   UNL     1       2.723   8.151  18.176  0.00  0.00    +0.000 NA
ATOM      5  N   UNL     1       3.279   7.014  17.635  0.00  0.00    +0.000 NA
ATOM      6  C   UNL     1       2.881   5.974  18.342  0.00  0.00    +0.000 A 
BRANCH   6   7
ATOM      7  C   UNL     1       3.243   4.564  18.010  0.00  0.00    +0.000 A 
ATOM      8  C   UNL     1       2.460   3.546  17.403  0.00  0.00    +0.000 A 
ATOM      9  C   UNL     1       3.266   2.434  17.320  0.00  0.00    +0.000 A 
ATOM     10  O   UNL     1       4.487   2.694  17.849  0.00  0.00    +0.000 OA
ATOM     11  C   UNL     1       4.475   3.995  18.263  0.00  0.00    +0.000 A 
ATOM     12  C   UNL     1       5.701   4.473  18.935  0.00  0.00    +0.000 C 
ENDBRANCH   6   7
BRANCH   2  13
ATOM     13  C   UNL     1       1.872   5.679  20.628  0.00  0.00    +0.000 C 
BRANCH  13  14
ATOM     14  C   UNL     1       0.751   4.647  20.436  0.00  0.00    +0.000 C 
BRANCH  14  16
ATOM     15  C   UNL     1       2.565   3.201  21.458  0.00  0.00    +0.000 C 
ATOM     16  C   UNL     1       1.177   3.235  20.844  0.00  0.00    +0.000 C 
ENDBRANCH  14  16
ENDBRANCH  13  14
ENDBRANCH   2  13
ENDBRANCH   1   3
BRANCH   1  17
ATOM     17  C   UNL     1       1.097  10.387  19.327  0.00  0.00    +0.000 C 
BRANCH  17  18
ATOM     18  C   UNL     1      -0.209  10.439  18.507  0.00  0.00    +0.000 C 
ATOM     19  O   UNL     1      -0.428   9.585  17.643  0.00  0.00    +0.000 OA
ATOM     20  N   UNL     1      -1.159  11.418  18.867  0.00  0.00    +0.000 N 
ATOM     21  C   UNL     1      -0.932  12.422  19.921  0.00  0.00    +0.000 C 
ATOM     22  C   UNL     1      -2.105  12.626  20.864  0.00  0.00    +0.000 C 
ATOM     23  O   UNL     1      -1.971  13.065  22.003  0.00  0.00    +0.000 OA
ATOM     24  N   UNL     1      -3.347  12.455  20.326  0.00  0.00    +0.000 N 
ATOM     25  C   UNL     1      -3.545  12.006  19.018  0.00  0.00    +0.000 A 
ATOM     26  C   UNL     1      -4.847  12.041  18.512  0.00  0.00    +0.000 A 
ATOM     27  C   UNL     1      -5.097  11.602  17.217  0.00  0.00    +0.000 A 
ATOM     28  C   UNL     1      -4.042  11.121  16.438  0.00  0.00    +0.000 A 
ATOM     29  C   UNL     1      -2.741  11.060  16.960  0.00  0.00    +0.000 A 
ATOM     30  C   UNL     1      -2.468  11.492  18.262  0.00  0.00    +0.000 A 
ATOM     31  H   UNL     1      -4.129  12.707  20.915  0.00  0.00    +0.000 HD
ENDBRANCH  17  18
ENDBRANCH   1  17
TORSDOF 7
ENDMDL
MODEL 4
REMARK VINA RESULT:      -7.5      3.163      5.181
REMARK  Name = 
REMARK  9 active torsions:
REMARK  status: ('A' for Active; 'I' for Inactive)
REMARK    1  A    between atoms: C_1  and  C_2
REMARK    2  A    between atoms: C_2  and  C_3
REMARK    3  A    between atoms: C_3  and  C_4
REMARK    4  A    between atoms: C_4  and  N_5
REMARK    5  A    between atoms: C_6  and  S_7
REMARK    6  A    between atoms: S_7  and  C_8
REMARK    7  A    between atoms: C_8  and  C_9
REMARK    8  A    between atoms: C_24  and  C_25
REMARK    9  A    between atoms: C_29  and  C_30
REMARK                            x       y       z     vdW  Elec       q    Type
REMARK                         _______ _______ _______ _____ _____    ______ ____
ROOT
ATOM      1  S   UNL     1       1.126   9.286  20.003  0.00  0.00    +0.000 S 
ENDROOT
BRANCH   1   3
ATOM      2  N   UNL     1      -0.537  11.044  21.331  0.00  0.00    +0.000 N 
ATOM      3  C   UNL     1       0.321   9.969  21.382  0.00  0.00    +0.000 A 
ATOM      4  N   UNL     1       0.482   9.596  22.629  0.00  0.00    +0.000 NA
ATOM      5  N   UNL     1      -0.279  10.431  23.417  0.00  0.00    +0.000 NA
ATOM      6  C   UNL     1      -0.949  11.254  22.633  0.00  0.00    +0.000 A 
BRANCH   6   7
ATOM      7  C   UNL     1      -1.923  12.265  23.139  0.00  0.00    +0.000 A 
ATOM      8  C   UNL     1      -3.268  12.095  23.561  0.00  0.00    +0.000 A 
ATOM      9  C   UNL     1      -3.718  13.341  23.935  0.00  0.00    +0.000 A 
ATOM     10  O   UNL     1      -2.744  14.268  23.759  0.00  0.00    +0.000 OA
ATOM     11  C   UNL     1      -1.647  13.611  23.280  0.00  0.00    +0.000 A 
ATOM     12  C   UNL     1      -0.477  14.452  22.954  0.00  0.00    +0.000 C 
ENDBRANCH   6   7
BRANCH   2  13
ATOM     13  C   UNL     1      -0.729  11.966  20.229  0.00  0.00    +0.000 C 
BRANCH  13  14
ATOM     14  C   UNL     1      -1.990  11.666  19.405  0.00  0.00    +0.000 C 
BRANCH  14  16
ATOM     15  C   UNL     1      -1.745  10.112  17.418  0.00  0.00    +0.000 C 
ATOM     16  C   UNL     1      -1.698  11.548  17.908  0.00  0.00    +0.000 C 
ENDBRANCH  14  16
ENDBRANCH  13  14
ENDBRANCH   2  13
ENDBRANCH   1   3
BRANCH   1  17
ATOM     17  C   UNL     1       1.598   7.637  20.631  0.00  0.00    +0.000 C 
BRANCH  17  18
ATOM     18  C   UNL     1       2.337   6.790  19.573  0.00  0.00    +0.000 C 
ATOM     19  O   UNL     1       3.116   7.333  18.785  0.00  0.00    +0.000 OA
ATOM     20  N   UNL     1       2.165   5.391  19.630  0.00  0.00    +0.000 N 
ATOM     21  C   UNL     1       1.269   4.721  20.589  0.00  0.00    +0.000 C 
ATOM     22  C   UNL     1       1.862   3.494  21.258  0.00  0.00    +0.000 C 
ATOM     23  O   UNL     1       1.470   3.077  22.344  0.00  0.00    +0.000 OA
ATOM     24  N   UNL     1       2.746   2.770  20.513  0.00  0.00    +0.000 N 
ATOM     25  C   UNL     1       3.180   3.181  19.250  0.00  0.00    +0.000 A 
ATOM     26  C   UNL     1       3.939   2.279  18.501  0.00  0.00    +0.000 A 
ATOM     27  C   UNL     1       4.398   2.641  17.240  0.00  0.00    +0.000 A 
ATOM     28  C   UNL     1       4.101   3.910  16.740  0.00  0.00    +0.000 A 
ATOM     29  C   UNL     1       3.363   4.824  17.506  0.00  0.00    +0.000 A 
ATOM     30  C   UNL     1       2.896   4.481  18.780  0.00  0.00    +0.000 A 
ATOM     31  H   UNL     1       3.048   1.889  20.907  0.00  0.00    +0.000 HD
ENDBRANCH  17  18
ENDBRANCH   1  17
TORSDOF 7
ENDMDL
MODEL 5
REMARK VINA RESULT:      -7.5      2.554      8.808
REMARK  Name = 
REMARK  9 active torsions:
REMARK  status: ('A' for Active; 'I' for Inactive)
REMARK    1  A    between atoms: C_1  and  C_2
REMARK    2  A    between atoms: C_2  and  C_3
REMARK    3  A    between atoms: C_3  and  C_4
REMARK    4  A    between atoms: C_4  and  N_5
REMARK    5  A    between atoms: C_6  and  S_7
REMARK    6  A    between atoms: S_7  and  C_8
REMARK    7  A    between atoms: C_8  and  C_9
REMARK    8  A    between atoms: C_24  and  C_25
REMARK    9  A    between atoms: C_29  and  C_30
REMARK                            x       y       z     vdW  Elec       q    Type
REMARK                         _______ _______ _______ _____ _____    ______ ____
ROOT
ATOM      1  S   UNL     1       1.015   8.229  21.544  0.00  0.00    +0.000 S 
ENDROOT
BRANCH   1   3
ATOM      2  N   UNL     1       2.311   6.489  19.837  0.00  0.00    +0.000 N 
ATOM      3  C   UNL     1       1.797   7.744  20.071  0.00  0.00    +0.000 A 
ATOM      4  N   UNL     1       2.052   8.519  19.044  0.00  0.00    +0.000 NA
ATOM      5  N   UNL     1       2.741   7.771  18.116  0.00  0.00    +0.000 NA
ATOM      6  C   UNL     1       2.834   6.532  18.560  0.00  0.00    +0.000 A 
BRANCH   6   7
ATOM      7  C   UNL     1       3.470   5.425  17.787  0.00  0.00    +0.000 A 
ATOM      8  C   UNL     1       4.796   5.311  17.291  0.00  0.00    +0.000 A 
ATOM      9  C   UNL     1       4.868   4.095  16.652  0.00  0.00    +0.000 A 
ATOM     10  O   UNL     1       3.672   3.459  16.708  0.00  0.00    +0.000 OA
ATOM     11  C   UNL     1       2.822   4.267  17.406  0.00  0.00    +0.000 A 
ATOM     12  C   UNL     1       1.429   3.789  17.532  0.00  0.00    +0.000 C 
ENDBRANCH   6   7
BRANCH   2  13
ATOM     13  C   UNL     1       2.554   5.441  20.810  0.00  0.00    +0.000 C 
BRANCH  13  14
ATOM     14  C   UNL     1       1.428   4.398  20.864  0.00  0.00    +0.000 C 
BRANCH  14  16
ATOM     15  C   UNL     1       3.189   2.584  20.690  0.00  0.00    +0.000 C 
ATOM     16  C   UNL     1       1.911   3.037  21.372  0.00  0.00    +0.000 C 
ENDBRANCH  14  16
ENDBRANCH  13  14
ENDBRANCH   2  13
ENDBRANCH   1   3
BRANCH   1  17
ATOM     17  C   UNL     1      -0.272   9.366  20.921  0.00  0.00    +0.000 C 
BRANCH  17  18
ATOM     18  C   UNL     1       0.161  10.845  20.991  0.00  0.00    +0.000 C 
ATOM     19  O   UNL     1       1.129  11.171  21.685  0.00  0.00    +0.000 OA
ATOM     20  N   UNL     1      -0.516  11.757  20.154  0.00  0.00    +0.000 N 
ATOM     21  C   UNL     1      -1.647  11.380  19.290  0.00  0.00    +0.000 C 
ATOM     22  C   UNL     1      -1.586  11.948  17.883  0.00  0.00    +0.000 C 
ATOM     23  O   UNL     1      -2.163  11.429  16.932  0.00  0.00    +0.000 OA
ATOM     24  N   UNL     1      -0.990  13.169  17.752  0.00  0.00    +0.000 N 
ATOM     25  C   UNL     1      -0.366  13.819  18.819  0.00  0.00    +0.000 A 
ATOM     26  C   UNL     1       0.049  15.138  18.619  0.00  0.00    +0.000 A 
ATOM     27  C   UNL     1       0.679  15.829  19.648  0.00  0.00    +0.000 A 
ATOM     28  C   UNL     1       0.897  15.190  20.870  0.00  0.00    +0.000 A 
ATOM     29  C   UNL     1       0.506  13.856  21.058  0.00  0.00    +0.000 A 
ATOM     30  C   UNL     1      -0.125  13.142  20.034  0.00  0.00    +0.000 A 
ATOM     31  H   UNL     1      -1.055  13.603  16.841  0.00  0.00    +0.000 HD
ENDBRANCH  17  18
ENDBRANCH   1  17
TORSDOF 7
ENDMDL
MODEL 6
REMARK VINA RESULT:      -7.4      3.318      9.540
REMARK  Name = 
REMARK  9 active torsions:
REMARK  status: ('A' for Active; 'I' for Inactive)
REMARK    1  A    between atoms: C_1  and  C_2
REMARK    2  A    between atoms: C_2  and  C_3
REMARK    3  A    between atoms: C_3  and  C_4
REMARK    4  A    between atoms: C_4  and  N_5
REMARK    5  A    between atoms: C_6  and  S_7
REMARK    6  A    between atoms: S_7  and  C_8
REMARK    7  A    between atoms: C_8  and  C_9
REMARK    8  A    between atoms: C_24  and  C_25
REMARK    9  A    between atoms: C_29  and  C_30
REMARK                            x       y       z     vdW  Elec       q    Type
REMARK                         _______ _______ _______ _____ _____    ______ ____
ROOT
ATOM      1  S   UNL     1       0.590  11.470  19.661  0.00  0.00    +0.000 S 
ENDROOT
BRANCH   1   3
ATOM      2  N   UNL     1       1.436   8.867  20.017  0.00  0.00    +0.000 N 
ATOM      3  C   UNL     1       1.267   9.946  19.179  0.00  0.00    +0.000 A 
ATOM      4  N   UNL     1       1.758   9.661  17.996  0.00  0.00    +0.000 NA
ATOM      5  N   UNL     1       2.256   8.379  18.047  0.00  0.00    +0.000 NA
ATOM      6  C   UNL     1       1.997   7.875  19.238  0.00  0.00    +0.000 A 
BRANCH   6   7
ATOM      7  C   UNL     1       2.343   6.477  19.634  0.00  0.00    +0.000 A 
ATOM      8  C   UNL     1       1.728   5.629  20.593  0.00  0.00    +0.000 A 
ATOM      9  C   UNL     1       2.429   4.445  20.569  0.00  0.00    +0.000 A 
ATOM     10  O   UNL     1       3.442   4.513  19.671  0.00  0.00    +0.000 OA
ATOM     11  C   UNL     1       3.385   5.749  19.095  0.00  0.00    +0.000 A 
ATOM     12  C   UNL     1       4.451   6.061  18.120  0.00  0.00    +0.000 C 
ENDBRANCH   6   7
BRANCH   2  13
ATOM     13  C   UNL     1       1.353   8.855  21.464  0.00  0.00    +0.000 C 
BRANCH  13  14
ATOM     14  C   UNL     1      -0.089   8.766  21.985  0.00  0.00    +0.000 C 
BRANCH  14  16
ATOM     15  C   UNL     1      -1.082  10.840  23.049  0.00  0.00    +0.000 C 
ATOM     16  C   UNL     1      -0.298   9.561  23.275  0.00  0.00    +0.000 C 
ENDBRANCH  14  16
ENDBRANCH  13  14
ENDBRANCH   2  13
ENDBRANCH   1   3
BRANCH   1  17
ATOM     17  C   UNL     1      -0.655  11.751  18.353  0.00  0.00    +0.000 C 
BRANCH  17  18
ATOM     18  C   UNL     1      -2.050  12.079  18.925  0.00  0.00    +0.000 C 
ATOM     19  O   UNL     1      -2.163  12.898  19.841  0.00  0.00    +0.000 OA
ATOM     20  N   UNL     1      -3.163  11.494  18.286  0.00  0.00    +0.000 N 
ATOM     21  C   UNL     1      -3.051  10.543  17.166  0.00  0.00    +0.000 C 
ATOM     22  C   UNL     1      -4.012  10.800  16.019  0.00  0.00    +0.000 C 
ATOM     23  O   UNL     1      -3.794  10.417  14.873  0.00  0.00    +0.000 OA
ATOM     24  N   UNL     1      -5.221  11.335  16.355  0.00  0.00    +0.000 N 
ATOM     25  C   UNL     1      -5.531  11.737  17.656  0.00  0.00    +0.000 A 
ATOM     26  C   UNL     1      -6.853  12.100  17.924  0.00  0.00    +0.000 A 
ATOM     27  C   UNL     1      -7.212  12.511  19.203  0.00  0.00    +0.000 A 
ATOM     28  C   UNL     1      -6.241  12.565  20.205  0.00  0.00    +0.000 A 
ATOM     29  C   UNL     1      -4.908  12.228  19.925  0.00  0.00    +0.000 A 
ATOM     30  C   UNL     1      -4.525  11.817  18.644  0.00  0.00    +0.000 A 
ATOM     31  H   UNL     1      -5.907  11.394  15.614  0.00  0.00    +0.000 HD
ENDBRANCH  17  18
ENDBRANCH   1  17
TORSDOF 7
ENDMDL
MODEL 7
REMARK VINA RESULT:      -7.4      3.005      9.408
REMARK  Name = 
REMARK  9 active torsions:
REMARK  status: ('A' for Active; 'I' for Inactive)
REMARK    1  A    between atoms: C_1  and  C_2
REMARK    2  A    between atoms: C_2  and  C_3
REMARK    3  A    between atoms: C_3  and  C_4
REMARK    4  A    between atoms: C_4  and  N_5
REMARK    5  A    between atoms: C_6  and  S_7
REMARK    6  A    between atoms: S_7  and  C_8
REMARK    7  A    between atoms: C_8  and  C_9
REMARK    8  A    between atoms: C_24  and  C_25
REMARK    9  A    between atoms: C_29  and  C_30
REMARK                            x       y       z     vdW  Elec       q    Type
REMARK                         _______ _______ _______ _____ _____    ______ ____
ROOT
ATOM      1  S   UNL     1       1.058   9.303  19.606  0.00  0.00    +0.000 S 
ENDROOT
BRANCH   1   3
ATOM      2  N   UNL     1       2.293   6.884  19.114  0.00  0.00    +0.000 N 
ATOM      3  C   UNL     1       2.109   8.203  18.769  0.00  0.00    +0.000 A 
ATOM      4  N   UNL     1       2.899   8.507  17.766  0.00  0.00    +0.000 NA
ATOM      5  N   UNL     1       3.613   7.376  17.438  0.00  0.00    +0.000 NA
ATOM      6  C   UNL     1       3.197   6.381  18.199  0.00  0.00    +0.000 A 
BRANCH   6   7
ATOM      7  C   UNL     1       3.710   4.985  18.082  0.00  0.00    +0.000 A 
ATOM      8  C   UNL     1       3.103   3.842  17.499  0.00  0.00    +0.000 A 
ATOM      9  C   UNL     1       3.995   2.806  17.652  0.00  0.00    +0.000 A 
ATOM     10  O   UNL     1       5.106   3.231  18.304  0.00  0.00    +0.000 OA
ATOM     11  C   UNL     1       4.935   4.561  18.560  0.00  0.00    +0.000 A 
ATOM     12  C   UNL     1       6.013   5.218  19.329  0.00  0.00    +0.000 C 
ENDBRANCH   6   7
BRANCH   2  13
ATOM     13  C   UNL     1       1.892   6.231  20.345  0.00  0.00    +0.000 C 
BRANCH  13  14
ATOM     14  C   UNL     1       0.856   5.118  20.128  0.00  0.00    +0.000 C 
BRANCH  14  16
ATOM     15  C   UNL     1       2.680   3.772  21.260  0.00  0.00    +0.000 C 
ATOM     16  C   UNL     1       1.216   3.828  20.866  0.00  0.00    +0.000 C 
ENDBRANCH  14  16
ENDBRANCH  13  14
ENDBRANCH   2  13
ENDBRANCH   1   3
BRANCH   1  17
ATOM     17  C   UNL     1       0.126  10.048  18.222  0.00  0.00    +0.000 C 
BRANCH  17  18
ATOM     18  C   UNL     1      -1.172  10.738  18.688  0.00  0.00    +0.000 C 
ATOM     19  O   UNL     1      -1.167  11.439  19.704  0.00  0.00    +0.000 OA
ATOM     20  N   UNL     1      -2.302  10.621  17.850  0.00  0.00    +0.000 N 
ATOM     21  C   UNL     1      -2.317   9.821  16.613  0.00  0.00    +0.000 C 
ATOM     22  C   UNL     1      -2.971  10.504  15.425  0.00  0.00    +0.000 C 
ATOM     23  O   UNL     1      -2.710  10.207  14.263  0.00  0.00    +0.000 OA
ATOM     24  N   UNL     1      -3.997  11.357  15.711  0.00  0.00    +0.000 N 
ATOM     25  C   UNL     1      -4.361  11.684  17.019  0.00  0.00    +0.000 A 
ATOM     26  C   UNL     1      -5.535  12.420  17.200  0.00  0.00    +0.000 A 
ATOM     27  C   UNL     1      -5.940  12.773  18.482  0.00  0.00    +0.000 A 
ATOM     28  C   UNL     1      -5.160  12.395  19.577  0.00  0.00    +0.000 A 
ATOM     29  C   UNL     1      -3.966  11.682  19.390  0.00  0.00    +0.000 A 
ATOM     30  C   UNL     1      -3.539  11.321  18.108  0.00  0.00    +0.000 A 
ATOM     31  H   UNL     1      -4.512  11.719  14.920  0.00  0.00    +0.000 HD
ENDBRANCH  17  18
ENDBRANCH   1  17
TORSDOF 7
ENDMDL
MODEL 8
REMARK VINA RESULT:      -7.4      2.802      9.596
REMARK  Name = 
REMARK  9 active torsions:
REMARK  status: ('A' for Active; 'I' for Inactive)
REMARK    1  A    between atoms: C_1  and  C_2
REMARK    2  A    between atoms: C_2  and  C_3
REMARK    3  A    between atoms: C_3  and  C_4
REMARK    4  A    between atoms: C_4  and  N_5
REMARK    5  A    between atoms: C_6  and  S_7
REMARK    6  A    between atoms: S_7  and  C_8
REMARK    7  A    between atoms: C_8  and  C_9
REMARK    8  A    between atoms: C_24  and  C_25
REMARK    9  A    between atoms: C_29  and  C_30
REMARK                            x       y       z     vdW  Elec       q    Type
REMARK                         _______ _______ _______ _____ _____    ______ ____
ROOT
ATOM      1  S   UNL     1       0.971   8.341  21.327  0.00  0.00    +0.000 S 
ENDROOT
BRANCH   1   3
ATOM      2  N   UNL     1       2.329   6.554  19.721  0.00  0.00    +0.000 N 
ATOM      3  C   UNL     1       1.821   7.819  19.905  0.00  0.00    +0.000 A 
ATOM      4  N   UNL     1       2.141   8.573  18.880  0.00  0.00    +0.000 NA
ATOM      5  N   UNL     1       2.867   7.799  18.003  0.00  0.00    +0.000 NA
ATOM      6  C   UNL     1       2.918   6.567  18.472  0.00  0.00    +0.000 A 
BRANCH   6   7
ATOM      7  C   UNL     1       3.578   5.438  17.752  0.00  0.00    +0.000 A 
ATOM      8  C   UNL     1       4.915   5.314  17.292  0.00  0.00    +0.000 A 
ATOM      9  C   UNL     1       5.008   4.077  16.696  0.00  0.00    +0.000 A 
ATOM     10  O   UNL     1       3.813   3.437  16.745  0.00  0.00    +0.000 OA
ATOM     11  C   UNL     1       2.943   4.264  17.395  0.00  0.00    +0.000 A 
ATOM     12  C   UNL     1       1.550   3.783  17.505  0.00  0.00    +0.000 C 
ENDBRANCH   6   7
BRANCH   2  13
ATOM     13  C   UNL     1       2.505   5.520  20.722  0.00  0.00    +0.000 C 
BRANCH  13  14
ATOM     14  C   UNL     1       1.332   4.529  20.777  0.00  0.00    +0.000 C 
BRANCH  14  16
ATOM     15  C   UNL     1       3.109   2.722  20.804  0.00  0.00    +0.000 C 
ATOM     16  C   UNL     1       1.747   3.157  21.314  0.00  0.00    +0.000 C 
ENDBRANCH  14  16
ENDBRANCH  13  14
ENDBRANCH   2  13
ENDBRANCH   1   3
BRANCH   1  17
ATOM     17  C   UNL     1       0.952  10.154  21.101  0.00  0.00    +0.000 C 
BRANCH  17  18
ATOM     18  C   UNL     1      -0.172  10.838  21.906  0.00  0.00    +0.000 C 
ATOM     19  O   UNL     1      -0.241  10.674  23.128  0.00  0.00    +0.000 OA
ATOM     20  N   UNL     1      -1.018  11.726  21.209  0.00  0.00    +0.000 N 
ATOM     21  C   UNL     1      -0.926  11.965  19.758  0.00  0.00    +0.000 C 
ATOM     22  C   UNL     1      -1.012  13.425  19.351  0.00  0.00    +0.000 C 
ATOM     23  O   UNL     1      -0.543  13.849  18.298  0.00  0.00    +0.000 OA
ATOM     24  N   UNL     1      -1.790  14.225  20.137  0.00  0.00    +0.000 N 
ATOM     25  C   UNL     1      -2.385  13.771  21.316  0.00  0.00    +0.000 A 
ATOM     26  C   UNL     1      -3.304  14.615  21.944  0.00  0.00    +0.000 A 
ATOM     27  C   UNL     1      -3.921  14.211  23.123  0.00  0.00    +0.000 A 
ATOM     28  C   UNL     1      -3.607  12.965  23.670  0.00  0.00    +0.000 A 
ATOM     29  C   UNL     1      -2.662  12.132  23.053  0.00  0.00    +0.000 A 
ATOM     30  C   UNL     1      -2.025  12.522  21.869  0.00  0.00    +0.000 A 
ATOM     31  H   UNL     1      -1.947  15.166  19.801  0.00  0.00    +0.000 HD
ENDBRANCH  17  18
ENDBRANCH   1  17
TORSDOF 7
ENDMDL
MODEL 9
REMARK VINA RESULT:      -7.3      2.402      8.847
REMARK  Name = 
REMARK  9 active torsions:
REMARK  status: ('A' for Active; 'I' for Inactive)
REMARK    1  A    between atoms: C_1  and  C_2
REMARK    2  A    between atoms: C_2  and  C_3
REMARK    3  A    between atoms: C_3  and  C_4
REMARK    4  A    between atoms: C_4  and  N_5
REMARK    5  A    between atoms: C_6  and  S_7
REMARK    6  A    between atoms: S_7  and  C_8
REMARK    7  A    between atoms: C_8  and  C_9
REMARK    8  A    between atoms: C_24  and  C_25
REMARK    9  A    between atoms: C_29  and  C_30
REMARK                            x       y       z     vdW  Elec       q    Type
REMARK                         _______ _______ _______ _____ _____    ______ ____
ROOT
ATOM      1  S   UNL     1       0.984   8.124  21.490  0.00  0.00    +0.000 S 
ENDROOT
BRANCH   1   3
ATOM      2  N   UNL     1       2.344   6.463  19.755  0.00  0.00    +0.000 N 
ATOM      3  C   UNL     1       1.821   7.707  20.027  0.00  0.00    +0.000 A 
ATOM      4  N   UNL     1       2.116   8.529  19.049  0.00  0.00    +0.000 NA
ATOM      5  N   UNL     1       2.840   7.824  18.114  0.00  0.00    +0.000 NA
ATOM      6  C   UNL     1       2.915   6.565  18.502  0.00  0.00    +0.000 A 
BRANCH   6   7
ATOM      7  C   UNL     1       3.580   5.494  17.702  0.00  0.00    +0.000 A 
ATOM      8  C   UNL     1       3.088   4.223  17.304  0.00  0.00    +0.000 A 
ATOM      9  C   UNL     1       4.096   3.626  16.581  0.00  0.00    +0.000 A 
ATOM     10  O   UNL     1       5.179   4.439  16.520  0.00  0.00    +0.000 OA
ATOM     11  C   UNL     1       4.862   5.581  17.197  0.00  0.00    +0.000 A 
ATOM     12  C   UNL     1       5.937   6.588  17.310  0.00  0.00    +0.000 C 
ENDBRANCH   6   7
BRANCH   2  13
ATOM     13  C   UNL     1       2.548   5.370  20.686  0.00  0.00    +0.000 C 
BRANCH  13  14
ATOM     14  C   UNL     1       1.374   4.380  20.720  0.00  0.00    +0.000 C 
BRANCH  14  16
ATOM     15  C   UNL     1       1.365   2.162  19.494  0.00  0.00    +0.000 C 
ATOM     16  C   UNL     1       1.835   2.921  20.721  0.00  0.00    +0.000 C 
ENDBRANCH  14  16
ENDBRANCH  13  14
ENDBRANCH   2  13
ENDBRANCH   1   3
BRANCH   1  17
ATOM     17  C   UNL     1      -0.285   9.284  20.872  0.00  0.00    +0.000 C 
BRANCH  17  18
ATOM     18  C   UNL     1       0.165  10.756  20.964  0.00  0.00    +0.000 C 
ATOM     19  O   UNL     1       1.140  11.060  21.657  0.00  0.00    +0.000 OA
ATOM     20  N   UNL     1      -0.507  11.689  20.147  0.00  0.00    +0.000 N 
ATOM     21  C   UNL     1      -1.648  11.339  19.283  0.00  0.00    +0.000 C 
ATOM     22  C   UNL     1      -1.588  11.930  17.885  0.00  0.00    +0.000 C 
ATOM     23  O   UNL     1      -2.177  11.433  16.930  0.00  0.00    +0.000 OA
ATOM     24  N   UNL     1      -0.980  13.146  17.771  0.00  0.00    +0.000 N 
ATOM     25  C   UNL     1      -0.342  13.772  18.845  0.00  0.00    +0.000 A 
ATOM     26  C   UNL     1       0.086  15.090  18.664  0.00  0.00    +0.000 A 
ATOM     27  C   UNL     1       0.729  15.756  19.701  0.00  0.00    +0.000 A 
ATOM     28  C   UNL     1       0.948  15.095  20.911  0.00  0.00    +0.000 A 
ATOM     29  C   UNL     1       0.543  13.762  21.079  0.00  0.00    +0.000 A 
ATOM     30  C   UNL     1      -0.102  13.072  20.047  0.00  0.00    +0.000 A 
ATOM     31  H   UNL     1      -1.046  13.597  16.868  0.00  0.00    +0.000 HD
ENDBRANCH  17  18
ENDBRANCH   1  17
TORSDOF 7
ENDMDL
