MODEL 1
REMARK VINA RESULT:      -7.0      0.000      0.000
REMARK  Name = 
REMARK  4 active torsions:
REMARK  status: ('A' for Active; 'I' for Inactive)
REMARK    1  A    between atoms: N_1  and  S_2
REMARK    2  A    between atoms: S_2  and  C_5
REMARK    3  A    between atoms: N_9  and  S_10
REMARK    4  A    between atoms: S_10  and  C_13
REMARK                            x       y       z     vdW  Elec       q    Type
REMARK                         _______ _______ _______ _____ _____    ______ ____
ROOT
ATOM      1  C   UNL     1       6.654   4.307  13.907  0.00  0.00    +0.000 A 
ATOM      2  N   UNL     1       7.579   5.214  14.144  0.00  0.00    +0.000 NA
ATOM      3  N   UNL     1       7.804   5.353  15.501  0.00  0.00    +0.000 NA
ATOM      4  C   UNL     1       7.069   4.523  16.205  0.00  0.00    +0.000 A 
ATOM      5  N   UNL     1       7.227   4.423  17.605  0.00  0.00    +0.000 N 
ATOM      6  S   UNL     1       6.050   3.500  15.288  0.00  0.00    +0.000 S 
ATOM      7  H   UNL     1       7.052   3.499  17.995  0.00  0.00    +0.000 HD
ENDROOT
BRANCH   1   8
ATOM      8  S   UNL     1       6.070   3.830  12.319  0.00  0.00    +0.000 S 
ATOM      9  O   UNL     1       6.804   4.608  11.346  0.00  0.00    +0.000 OA
ATOM     10  O   UNL     1       4.626   3.855  12.395  0.00  0.00    +0.000 OA
BRANCH   8  11
ATOM     11  N   UNL     1       6.476   2.212  12.052  0.00  0.00    +0.000 NA
ATOM     12  H   UNL     1       7.245   2.152  11.386  0.00  0.00    +0.000 HD
ATOM     13  H   UNL     1       5.656   1.683  11.752  0.00  0.00    +0.000 HD
ENDBRANCH   8  11
ENDBRANCH   1   8
BRANCH   5  14
ATOM     14  S   UNL     1       6.224   5.503  18.435  0.00  0.00    +0.000 S 
ATOM     15  O   UNL     1       6.744   5.736  19.764  0.00  0.00    +0.000 OA
ATOM     16  O   UNL     1       6.020   6.611  17.522  0.00  0.00    +0.000 OA
BRANCH  14  17
ATOM     17  C   UNL     1       4.697   4.614  18.560  0.00  0.00    +0.000 A 
ATOM     18  C   UNL     1       3.582   5.065  17.846  0.00  0.00    +0.000 A 
ATOM     19  C   UNL     1       2.382   4.359  17.927  0.00  0.00    +0.000 A 
ATOM     20  C   UNL     1       2.309   3.206  18.708  0.00  0.00    +0.000 A 
ATOM     21 BR   UNL     1       0.677   2.260  18.829  0.00  0.00    +0.000 Br
ATOM     22  C   UNL     1       3.430   2.742  19.400  0.00  0.00    +0.000 A 
ATOM     23  C   UNL     1       4.634   3.444  19.321  0.00  0.00    +0.000 A 
ENDBRANCH  14  17
ENDBRANCH   5  14
TORSDOF 4
ENDMDL
MODEL 2
REMARK VINA RESULT:      -7.0      0.031      1.086
REMARK  Name = 
REMARK  4 active torsions:
REMARK  status: ('A' for Active; 'I' for Inactive)
REMARK    1  A    between atoms: N_1  and  S_2
REMARK    2  A    between atoms: S_2  and  C_5
REMARK    3  A    between atoms: N_9  and  S_10
REMARK    4  A    between atoms: S_10  and  C_13
REMARK                            x       y       z     vdW  Elec       q    Type
REMARK                         _______ _______ _______ _____ _____    ______ ____
ROOT
ATOM      1  C   UNL     1       6.656   4.302  13.895  0.00  0.00    +0.000 A 
ATOM      2  N   UNL     1       7.575   5.216  14.131  0.00  0.00    +0.000 NA
ATOM      3  N   UNL     1       7.800   5.357  15.488  0.00  0.00    +0.000 NA
ATOM      4  C   UNL     1       7.070   4.523  16.192  0.00  0.00    +0.000 A 
ATOM      5  N   UNL     1       7.229   4.425  17.593  0.00  0.00    +0.000 N 
ATOM      6  S   UNL     1       6.058   3.493  15.276  0.00  0.00    +0.000 S 
ATOM      7  H   UNL     1       7.060   3.501  17.984  0.00  0.00    +0.000 HD
ENDROOT
BRANCH   1   8
ATOM      8  S   UNL     1       6.075   3.821  12.307  0.00  0.00    +0.000 S 
ATOM      9  O   UNL     1       6.795   4.612  11.335  0.00  0.00    +0.000 OA
ATOM     10  O   UNL     1       4.631   3.823  12.387  0.00  0.00    +0.000 OA
BRANCH   8  11
ATOM     11  N   UNL     1       6.505   2.209  12.035  0.00  0.00    +0.000 NA
ATOM     12  H   UNL     1       6.100   1.884  11.158  0.00  0.00    +0.000 HD
ATOM     13  H   UNL     1       6.235   1.628  12.830  0.00  0.00    +0.000 HD
ENDBRANCH   8  11
ENDBRANCH   1   8
BRANCH   5  14
ATOM     14  S   UNL     1       6.220   5.499  18.422  0.00  0.00    +0.000 S 
ATOM     15  O   UNL     1       6.724   5.718  19.759  0.00  0.00    +0.000 OA
ATOM     16  O   UNL     1       6.028   6.616  17.517  0.00  0.00    +0.000 OA
BRANCH  14  17
ATOM     17  C   UNL     1       4.689   4.613  18.521  0.00  0.00    +0.000 A 
ATOM     18  C   UNL     1       4.619   3.453  19.300  0.00  0.00    +0.000 A 
ATOM     19  C   UNL     1       3.412   2.760  19.395  0.00  0.00    +0.000 A 
ATOM     20  C   UNL     1       2.286   3.236  18.724  0.00  0.00    +0.000 A 
ATOM     21 BR   UNL     1       0.656   2.287  18.841  0.00  0.00    +0.000 Br
ATOM     22  C   UNL     1       2.350   4.409  17.967  0.00  0.00    +0.000 A 
ATOM     23  C   UNL     1       3.556   5.106  17.870  0.00  0.00    +0.000 A 
ENDBRANCH  14  17
ENDBRANCH   5  14
TORSDOF 4
ENDMDL
MODEL 3
REMARK VINA RESULT:      -6.7      4.829      7.334
REMARK  Name = 
REMARK  4 active torsions:
REMARK  status: ('A' for Active; 'I' for Inactive)
REMARK    1  A    between atoms: N_1  and  S_2
REMARK    2  A    between atoms: S_2  and  C_5
REMARK    3  A    between atoms: N_9  and  S_10
REMARK    4  A    between atoms: S_10  and  C_13
REMARK                            x       y       z     vdW  Elec       q    Type
REMARK                         _______ _______ _______ _____ _____    ______ ____
ROOT
ATOM      1  C   UNL     1       1.752   7.761  20.082  0.00  0.00    +0.000 A 
ATOM      2  N   UNL     1       2.167   8.022  18.860  0.00  0.00    +0.000 NA
ATOM      3  N   UNL     1       2.764   6.913  18.290  0.00  0.00    +0.000 NA
ATOM      4  C   UNL     1       2.733   5.875  19.094  0.00  0.00    +0.000 A 
ATOM      5  N   UNL     1       3.190   4.610  18.662  0.00  0.00    +0.000 N 
ATOM      6  S   UNL     1       1.975   6.148  20.602  0.00  0.00    +0.000 S 
ATOM      7  H   UNL     1       2.706   3.813  19.069  0.00  0.00    +0.000 HD
ENDROOT
BRANCH   1   8
ATOM      8  S   UNL     1       0.945   8.897  21.155  0.00  0.00    +0.000 S 
ATOM      9  O   UNL     1      -0.282   8.269  21.592  0.00  0.00    +0.000 OA
ATOM     10  O   UNL     1       0.958  10.174  20.476  0.00  0.00    +0.000 OA
BRANCH   8  11
ATOM     11  N   UNL     1       1.896   9.115  22.534  0.00  0.00    +0.000 NA
ATOM     12  H   UNL     1       2.849   9.358  22.265  0.00  0.00    +0.000 HD
ATOM     13  H   UNL     1       1.858   8.286  23.129  0.00  0.00    +0.000 HD
ENDBRANCH   8  11
ENDBRANCH   1   8
BRANCH   5  14
ATOM     14  S   UNL     1       4.839   4.392  18.970  0.00  0.00    +0.000 S 
ATOM     15  O   UNL     1       5.341   5.492  19.763  0.00  0.00    +0.000 OA
ATOM     16  O   UNL     1       4.959   3.027  19.446  0.00  0.00    +0.000 OA
BRANCH  14  17
ATOM     17  C   UNL     1       5.560   4.469  17.355  0.00  0.00    +0.000 A 
ATOM     18  C   UNL     1       4.753   4.252  16.233  0.00  0.00    +0.000 A 
ATOM     19  C   UNL     1       5.312   4.328  14.957  0.00  0.00    +0.000 A 
ATOM     20  C   UNL     1       6.666   4.632  14.813  0.00  0.00    +0.000 A 
ATOM     21 BR   UNL     1       7.425   4.719  13.084  0.00  0.00    +0.000 Br
ATOM     22  C   UNL     1       7.466   4.875  15.932  0.00  0.00    +0.000 A 
ATOM     23  C   UNL     1       6.910   4.800  17.211  0.00  0.00    +0.000 A 
ENDBRANCH  14  17
ENDBRANCH   5  14
TORSDOF 4
ENDMDL
MODEL 4
REMARK VINA RESULT:      -6.7      4.836      7.382
REMARK  Name = 
REMARK  4 active torsions:
REMARK  status: ('A' for Active; 'I' for Inactive)
REMARK    1  A    between atoms: N_1  and  S_2
REMARK    2  A    between atoms: S_2  and  C_5
REMARK    3  A    between atoms: N_9  and  S_10
REMARK    4  A    between atoms: S_10  and  C_13
REMARK                            x       y       z     vdW  Elec       q    Type
REMARK                         _______ _______ _______ _____ _____    ______ ____
ROOT
ATOM      1  C   UNL     1       1.756   7.771  20.092  0.00  0.00    +0.000 A 
ATOM      2  N   UNL     1       2.164   8.031  18.867  0.00  0.00    +0.000 NA
ATOM      3  N   UNL     1       2.754   6.920  18.294  0.00  0.00    +0.000 NA
ATOM      4  C   UNL     1       2.725   5.883  19.098  0.00  0.00    +0.000 A 
ATOM      5  N   UNL     1       3.175   4.616  18.664  0.00  0.00    +0.000 N 
ATOM      6  S   UNL     1       1.977   6.158  20.611  0.00  0.00    +0.000 S 
ATOM      7  H   UNL     1       2.691   3.821  19.075  0.00  0.00    +0.000 HD
ENDROOT
BRANCH   1   8
ATOM      8  S   UNL     1       0.958   8.910  21.169  0.00  0.00    +0.000 S 
ATOM      9  O   UNL     1      -0.265   8.285  21.617  0.00  0.00    +0.000 OA
ATOM     10  O   UNL     1       0.967  10.186  20.487  0.00  0.00    +0.000 OA
BRANCH   8  11
ATOM     11  N   UNL     1       1.922   9.130  22.540  0.00  0.00    +0.000 NA
ATOM     12  H   UNL     1       1.593   9.936  23.071  0.00  0.00    +0.000 HD
ATOM     13  H   UNL     1       2.904   9.208  22.277  0.00  0.00    +0.000 HD
ENDBRANCH   8  11
ENDBRANCH   1   8
BRANCH   5  14
ATOM     14  S   UNL     1       4.826   4.393  18.963  0.00  0.00    +0.000 S 
ATOM     15  O   UNL     1       5.328   5.474  19.781  0.00  0.00    +0.000 OA
ATOM     16  O   UNL     1       4.950   3.017  19.404  0.00  0.00    +0.000 OA
BRANCH  14  17
ATOM     17  C   UNL     1       5.542   4.512  17.347  0.00  0.00    +0.000 A 
ATOM     18  C   UNL     1       6.908   4.788  17.222  0.00  0.00    +0.000 A 
ATOM     19  C   UNL     1       7.481   4.865  15.953  0.00  0.00    +0.000 A 
ATOM     20  C   UNL     1       6.691   4.655  14.824  0.00  0.00    +0.000 A 
ATOM     21 BR   UNL     1       7.466   4.776  13.104  0.00  0.00    +0.000 Br
ATOM     22  C   UNL     1       5.333   4.353  14.949  0.00  0.00    +0.000 A 
ATOM     23  C   UNL     1       4.755   4.274  16.218  0.00  0.00    +0.000 A 
ENDBRANCH  14  17
ENDBRANCH   5  14
TORSDOF 4
ENDMDL
MODEL 5
REMARK VINA RESULT:      -6.6      3.221      4.385
REMARK  Name = 
REMARK  4 active torsions:
REMARK  status: ('A' for Active; 'I' for Inactive)
REMARK    1  A    between atoms: N_1  and  S_2
REMARK    2  A    between atoms: S_2  and  C_5
REMARK    3  A    between atoms: N_9  and  S_10
REMARK    4  A    between atoms: S_10  and  C_13
REMARK                            x       y       z     vdW  Elec       q    Type
REMARK                         _______ _______ _______ _____ _____    ______ ____
ROOT
ATOM      1  C   UNL     1       5.983   4.905  17.439  0.00  0.00    +0.000 A 
ATOM      2  N   UNL     1       6.397   4.812  18.686  0.00  0.00    +0.000 NA
ATOM      3  N   UNL     1       5.687   3.848  19.377  0.00  0.00    +0.000 NA
ATOM      4  C   UNL     1       4.808   3.246  18.608  0.00  0.00    +0.000 A 
ATOM      5  N   UNL     1       4.056   2.151  19.088  0.00  0.00    +0.000 N 
ATOM      6  S   UNL     1       4.771   3.787  16.987  0.00  0.00    +0.000 S 
ATOM      7  H   UNL     1       3.815   1.452  18.388  0.00  0.00    +0.000 HD
ENDROOT
BRANCH   1   8
ATOM      8  S   UNL     1       6.618   6.009  16.228  0.00  0.00    +0.000 S 
ATOM      9  O   UNL     1       7.635   6.809  16.875  0.00  0.00    +0.000 OA
ATOM     10  O   UNL     1       5.470   6.600  15.577  0.00  0.00    +0.000 OA
BRANCH   8  11
ATOM     11  N   UNL     1       7.400   5.111  15.028  0.00  0.00    +0.000 NA
ATOM     12  H   UNL     1       6.711   4.632  14.448  0.00  0.00    +0.000 HD
ATOM     13  H   UNL     1       8.075   4.469  15.445  0.00  0.00    +0.000 HD
ENDBRANCH   8  11
ENDBRANCH   1   8
BRANCH   5  14
ATOM     14  S   UNL     1       2.606   2.644  19.806  0.00  0.00    +0.000 S 
ATOM     15  O   UNL     1       1.502   1.887  19.260  0.00  0.00    +0.000 OA
ATOM     16  O   UNL     1       2.867   2.638  21.233  0.00  0.00    +0.000 OA
BRANCH  14  17
ATOM     17  C   UNL     1       2.459   4.332  19.289  0.00  0.00    +0.000 A 
ATOM     18  C   UNL     1       1.903   4.619  18.039  0.00  0.00    +0.000 A 
ATOM     19  C   UNL     1       1.769   5.947  17.633  0.00  0.00    +0.000 A 
ATOM     20  C   UNL     1       2.180   6.974  18.483  0.00  0.00    +0.000 A 
ATOM     21 BR   UNL     1       2.013   8.772  17.926  0.00  0.00    +0.000 Br
ATOM     22  C   UNL     1       2.711   6.688  19.743  0.00  0.00    +0.000 A 
ATOM     23  C   UNL     1       2.846   5.360  20.153  0.00  0.00    +0.000 A 
ENDBRANCH  14  17
ENDBRANCH   5  14
TORSDOF 4
ENDMDL
MODEL 6
REMARK VINA RESULT:      -6.6      3.350      4.506
REMARK  Name = 
REMARK  4 active torsions:
REMARK  status: ('A' for Active; 'I' for Inactive)
REMARK    1  A    between atoms: N_1  and  S_2
REMARK    2  A    between atoms: S_2  and  C_5
REMARK    3  A    between atoms: N_9  and  S_10
REMARK    4  A    between atoms: S_10  and  C_13
REMARK                            x       y       z     vdW  Elec       q    Type
REMARK                         _______ _______ _______ _____ _____    ______ ____
ROOT
ATOM      1  C   UNL     1       5.970   4.763  17.458  0.00  0.00    +0.000 A 
ATOM      2  N   UNL     1       6.350   4.744  18.719  0.00  0.00    +0.000 NA
ATOM      3  N   UNL     1       5.626   3.815  19.444  0.00  0.00    +0.000 NA
ATOM      4  C   UNL     1       4.773   3.164  18.686  0.00  0.00    +0.000 A 
ATOM      5  N   UNL     1       4.014   2.092  19.207  0.00  0.00    +0.000 N 
ATOM      6  S   UNL     1       4.778   3.613  17.037  0.00  0.00    +0.000 S 
ATOM      7  H   UNL     1       3.796   1.354  18.541  0.00  0.00    +0.000 HD
ENDROOT
BRANCH   1   8
ATOM      8  S   UNL     1       6.633   5.802  16.204  0.00  0.00    +0.000 S 
ATOM      9  O   UNL     1       5.521   6.507  15.607  0.00  0.00    +0.000 OA
ATOM     10  O   UNL     1       7.530   4.976  15.426  0.00  0.00    +0.000 OA
BRANCH   8  11
ATOM     11  N   UNL     1       7.616   6.970  16.928  0.00  0.00    +0.000 NA
ATOM     12  H   UNL     1       8.214   6.536  17.630  0.00  0.00    +0.000 HD
ATOM     13  H   UNL     1       7.049   7.727  17.312  0.00  0.00    +0.000 HD
ENDBRANCH   8  11
ENDBRANCH   1   8
BRANCH   5  14
ATOM     14  S   UNL     1       2.542   2.615  19.857  0.00  0.00    +0.000 S 
ATOM     15  O   UNL     1       1.451   1.868  19.271  0.00  0.00    +0.000 OA
ATOM     16  O   UNL     1       2.741   2.621  21.293  0.00  0.00    +0.000 OA
BRANCH  14  17
ATOM     17  C   UNL     1       2.443   4.299  19.316  0.00  0.00    +0.000 A 
ATOM     18  C   UNL     1       1.902   4.584  18.058  0.00  0.00    +0.000 A 
ATOM     19  C   UNL     1       1.807   5.909  17.633  0.00  0.00    +0.000 A 
ATOM     20  C   UNL     1       2.239   6.936  18.472  0.00  0.00    +0.000 A 
ATOM     21 BR   UNL     1       2.124   8.731  17.889  0.00  0.00    +0.000 Br
ATOM     22  C   UNL     1       2.755   6.653  19.739  0.00  0.00    +0.000 A 
ATOM     23  C   UNL     1       2.852   5.328  20.168  0.00  0.00    +0.000 A 
ENDBRANCH  14  17
ENDBRANCH   5  14
TORSDOF 4
ENDMDL
MODEL 7
REMARK VINA RESULT:      -6.5      3.210      4.451
REMARK  Name = 
REMARK  4 active torsions:
REMARK  status: ('A' for Active; 'I' for Inactive)
REMARK    1  A    between atoms: N_1  and  S_2
REMARK    2  A    between atoms: S_2  and  C_5
REMARK    3  A    between atoms: N_9  and  S_10
REMARK    4  A    between atoms: S_10  and  C_13
REMARK                            x       y       z     vdW  Elec       q    Type
REMARK                         _______ _______ _______ _____ _____    ______ ____
ROOT
ATOM      1  C   UNL     1       5.977   4.918  17.432  0.00  0.00    +0.000 A 
ATOM      2  N   UNL     1       6.396   4.806  18.675  0.00  0.00    +0.000 NA
ATOM      3  N   UNL     1       5.687   3.831  19.354  0.00  0.00    +0.000 NA
ATOM      4  C   UNL     1       4.805   3.242  18.579  0.00  0.00    +0.000 A 
ATOM      5  N   UNL     1       4.054   2.140  19.044  0.00  0.00    +0.000 N 
ATOM      6  S   UNL     1       4.763   3.809  16.966  0.00  0.00    +0.000 S 
ATOM      7  H   UNL     1       3.809   1.453  18.335  0.00  0.00    +0.000 HD
ENDROOT
BRANCH   1   8
ATOM      8  S   UNL     1       6.609   6.040  16.235  0.00  0.00    +0.000 S 
ATOM      9  O   UNL     1       7.626   6.832  16.891  0.00  0.00    +0.000 OA
ATOM     10  O   UNL     1       5.459   6.640  15.595  0.00  0.00    +0.000 OA
BRANCH   8  11
ATOM     11  N   UNL     1       7.389   5.160  15.021  0.00  0.00    +0.000 NA
ATOM     12  H   UNL     1       8.362   5.000  15.278  0.00  0.00    +0.000 HD
ATOM     13  H   UNL     1       7.294   5.632  14.121  0.00  0.00    +0.000 HD
ENDBRANCH   8  11
ENDBRANCH   1   8
BRANCH   5  14
ATOM     14  S   UNL     1       2.607   2.624  19.776  0.00  0.00    +0.000 S 
ATOM     15  O   UNL     1       1.503   1.859  19.240  0.00  0.00    +0.000 OA
ATOM     16  O   UNL     1       2.881   2.620  21.200  0.00  0.00    +0.000 OA
BRANCH  14  17
ATOM     17  C   UNL     1       2.444   4.311  19.260  0.00  0.00    +0.000 A 
ATOM     18  C   UNL     1       2.943   5.329  20.078  0.00  0.00    +0.000 A 
ATOM     19  C   UNL     1       2.833   6.658  19.669  0.00  0.00    +0.000 A 
ATOM     20  C   UNL     1       2.238   6.956  18.444  0.00  0.00    +0.000 A 
ATOM     21 BR   UNL     1       2.074   8.758  17.897  0.00  0.00    +0.000 Br
ATOM     22  C   UNL     1       1.762   5.938  17.615  0.00  0.00    +0.000 A 
ATOM     23  C   UNL     1       1.871   4.606  18.020  0.00  0.00    +0.000 A 
ENDBRANCH  14  17
ENDBRANCH   5  14
TORSDOF 4
ENDMDL
MODEL 8
REMARK VINA RESULT:      -6.5      4.434      5.331
REMARK  Name = 
REMARK  4 active torsions:
REMARK  status: ('A' for Active; 'I' for Inactive)
REMARK    1  A    between atoms: N_1  and  S_2
REMARK    2  A    between atoms: S_2  and  C_5
REMARK    3  A    between atoms: N_9  and  S_10
REMARK    4  A    between atoms: S_10  and  C_13
REMARK                            x       y       z     vdW  Elec       q    Type
REMARK                         _______ _______ _______ _____ _____    ______ ____
ROOT
ATOM      1  C   UNL     1       5.532   4.765  16.792  0.00  0.00    +0.000 A 
ATOM      2  N   UNL     1       4.993   3.604  17.101  0.00  0.00    +0.000 NA
ATOM      3  N   UNL     1       3.749   3.771  17.680  0.00  0.00    +0.000 NA
ATOM      4  C   UNL     1       3.405   5.037  17.741  0.00  0.00    +0.000 A 
ATOM      5  N   UNL     1       2.123   5.419  18.194  0.00  0.00    +0.000 N 
ATOM      6  S   UNL     1       4.551   6.131  17.098  0.00  0.00    +0.000 S 
ATOM      7  H   UNL     1       1.746   6.261  17.765  0.00  0.00    +0.000 HD
ENDROOT
BRANCH   1   8
ATOM      8  S   UNL     1       7.106   4.998  16.044  0.00  0.00    +0.000 S 
ATOM      9  O   UNL     1       6.915   4.893  14.614  0.00  0.00    +0.000 OA
ATOM     10  O   UNL     1       8.026   4.145  16.763  0.00  0.00    +0.000 OA
BRANCH   8  11
ATOM     11  N   UNL     1       7.627   6.576  16.349  0.00  0.00    +0.000 NA
ATOM     12  H   UNL     1       8.406   6.564  17.006  0.00  0.00    +0.000 HD
ATOM     13  H   UNL     1       6.850   7.152  16.673  0.00  0.00    +0.000 HD
ENDBRANCH   8  11
ENDBRANCH   1   8
BRANCH   5  14
ATOM     14  S   UNL     1       2.090   5.665  19.868  0.00  0.00    +0.000 S 
ATOM     15  O   UNL     1       1.042   4.865  20.463  0.00  0.00    +0.000 OA
ATOM     16  O   UNL     1       3.465   5.514  20.302  0.00  0.00    +0.000 OA
BRANCH  14  17
ATOM     17  C   UNL     1       1.660   7.377  20.011  0.00  0.00    +0.000 A 
ATOM     18  C   UNL     1       1.803   8.214  18.899  0.00  0.00    +0.000 A 
ATOM     19  C   UNL     1       1.451   9.560  19.001  0.00  0.00    +0.000 A 
ATOM     20  C   UNL     1       0.947  10.054  20.204  0.00  0.00    +0.000 A 
ATOM     21 BR   UNL     1       0.485  11.881  20.345  0.00  0.00    +0.000 Br
ATOM     22  C   UNL     1       0.780   9.212  21.306  0.00  0.00    +0.000 A 
ATOM     23  C   UNL     1       1.131   7.864  21.209  0.00  0.00    +0.000 A 
ENDBRANCH  14  17
ENDBRANCH   5  14
TORSDOF 4
ENDMDL
MODEL 9
REMARK VINA RESULT:      -6.5      4.897      7.368
REMARK  Name = 
REMARK  4 active torsions:
REMARK  status: ('A' for Active; 'I' for Inactive)
REMARK    1  A    between atoms: N_1  and  S_2
REMARK    2  A    between atoms: S_2  and  C_5
REMARK    3  A    between atoms: N_9  and  S_10
REMARK    4  A    between atoms: S_10  and  C_13
REMARK                            x       y       z     vdW  Elec       q    Type
REMARK                         _______ _______ _______ _____ _____    ______ ____
ROOT
ATOM      1  C   UNL     1       1.721   7.760  20.219  0.00  0.00    +0.000 A 
ATOM      2  N   UNL     1       2.145   8.065  19.010  0.00  0.00    +0.000 NA
ATOM      3  N   UNL     1       2.746   6.977  18.404  0.00  0.00    +0.000 NA
ATOM      4  C   UNL     1       2.708   5.910  19.170  0.00  0.00    +0.000 A 
ATOM      5  N   UNL     1       3.167   4.661  18.696  0.00  0.00    +0.000 N 
ATOM      6  S   UNL     1       1.939   6.129  20.681  0.00  0.00    +0.000 S 
ATOM      7  H   UNL     1       2.679   3.851  19.071  0.00  0.00    +0.000 HD
ENDROOT
BRANCH   1   8
ATOM      8  S   UNL     1       0.907   8.857  21.325  0.00  0.00    +0.000 S 
ATOM      9  O   UNL     1       1.847   9.174  22.377  0.00  0.00    +0.000 OA
ATOM     10  O   UNL     1      -0.387   8.271  21.598  0.00  0.00    +0.000 OA
BRANCH   8  11
ATOM     11  N   UNL     1       0.580  10.305  20.516  0.00  0.00    +0.000 NA
ATOM     12  H   UNL     1       1.452  10.744  20.223  0.00  0.00    +0.000 HD
ATOM     13  H   UNL     1       0.009  10.918  21.098  0.00  0.00    +0.000 HD
ENDBRANCH   8  11
ENDBRANCH   1   8
BRANCH   5  14
ATOM     14  S   UNL     1       4.813   4.430  19.008  0.00  0.00    +0.000 S 
ATOM     15  O   UNL     1       5.323   5.528  19.800  0.00  0.00    +0.000 OA
ATOM     16  O   UNL     1       4.922   3.066  19.487  0.00  0.00    +0.000 OA
BRANCH  14  17
ATOM     17  C   UNL     1       5.539   4.498  17.393  0.00  0.00    +0.000 A 
ATOM     18  C   UNL     1       4.724   4.328  16.269  0.00  0.00    +0.000 A 
ATOM     19  C   UNL     1       5.287   4.398  14.995  0.00  0.00    +0.000 A 
ATOM     20  C   UNL     1       6.652   4.648  14.854  0.00  0.00    +0.000 A 
ATOM     21 BR   UNL     1       7.416   4.726  13.127  0.00  0.00    +0.000 Br
ATOM     22  C   UNL     1       7.460   4.844  15.976  0.00  0.00    +0.000 A 
ATOM     23  C   UNL     1       6.901   4.776  17.254  0.00  0.00    +0.000 A 
ENDBRANCH  14  17
ENDBRANCH   5  14
TORSDOF 4
ENDMDL
