MODEL 1
REMARK VINA RESULT:      -6.8      0.000      0.000
REMARK  Name = 
REMARK  8 active torsions:
REMARK  status: ('A' for Active; 'I' for Inactive)
REMARK    1  A    between atoms: C_1  and  C_2
REMARK    2  A    between atoms: C_2  and  C_3
REMARK    3  A    between atoms: C_3  and  C_4
REMARK    4  A    between atoms: C_3  and  C_5
REMARK    5  A    between atoms: C_5  and  N_6
REMARK    6  A    between atoms: N_10  and  C_11
REMARK    7  A    between atoms: C_14  and  N_15
REMARK    8  A    between atoms: C_16  and  C_18
REMARK                            x       y       z     vdW  Elec       q    Type
REMARK                         _______ _______ _______ _____ _____    ______ ____
ROOT
ATOM      1  C   UNL     1       2.773   6.448  19.175  0.00  0.00    +0.000 A 
ATOM      2  C   UNL     1       2.132   6.881  20.343  0.00  0.00    +0.000 A 
ATOM      3  C   UNL     1       1.550   8.146  20.453  0.00  0.00    +0.000 A 
ATOM      4  C   UNL     1       1.583   9.035  19.384  0.00  0.00    +0.000 A 
ATOM      5  C   UNL     1       2.171   8.613  18.192  0.00  0.00    +0.000 A 
ATOM      6  C   UNL     1       2.754   7.337  18.092  0.00  0.00    +0.000 A 
ENDROOT
BRANCH   1  11
ATOM      7  N   UNL     1       5.083   3.996  16.930  0.00  0.00    +0.000 NA
ATOM      8  C   UNL     1       3.719   4.169  16.428  0.00  0.00    +0.000 C 
ATOM      9  C   UNL     1       2.633   3.589  17.320  0.00  0.00    +0.000 C 
ATOM     10  C   UNL     1       2.632   3.983  18.790  0.00  0.00    +0.000 C 
ATOM     11  N   UNL     1       3.366   5.201  19.119  0.00  0.00    +0.000 N 
ATOM     12  C   UNL     1       4.834   5.080  19.182  0.00  0.00    +0.000 C 
ATOM     13  C   UNL     1       5.487   5.130  17.786  0.00  0.00    +0.000 C 
BRANCH   7  14
ATOM     14  C   UNL     1       6.056   3.712  15.873  0.00  0.00    +0.000 C 
BRANCH  14  15
ATOM     15  C   UNL     1       5.983   4.468  14.524  0.00  0.00    +0.000 C 
ATOM     16  C   UNL     1       5.657   3.631  13.290  0.00  0.00    +0.000 C 
BRANCH  15  18
ATOM     17  C   UNL     1       7.896   5.266  12.917  0.00  0.00    +0.000 C 
ATOM     18  C   UNL     1       7.286   5.262  14.308  0.00  0.00    +0.000 C 
ENDBRANCH  15  18
ENDBRANCH  14  15
ENDBRANCH   7  14
ENDBRANCH   1  11
BRANCH   4  19
ATOM     19  N   UNL     1       1.051  10.332  19.440  0.00  0.00    +0.000 N 
ATOM     20  C   UNL     1      -0.152  10.773  18.908  0.00  0.00    +0.000 C 
ATOM     21  O   UNL     1      -0.969  10.048  18.346  0.00  0.00    +0.000 OA
ATOM     22  H   UNL     1       1.573  11.018  19.973  0.00  0.00    +0.000 HD
BRANCH  20  23
ATOM     23  C   UNL     1      -0.418  12.196  19.091  0.00  0.00    +0.000 A 
ATOM     24  C   UNL     1       0.356  13.242  18.616  0.00  0.00    +0.000 A 
ATOM     25  C   UNL     1      -0.164  14.517  18.973  0.00  0.00    +0.000 A 
ATOM     26  C   UNL     1      -1.319  14.411  19.713  0.00  0.00    +0.000 A 
ATOM     27  S   UNL     1      -1.769  12.783  19.970  0.00  0.00    +0.000 S 
ENDBRANCH  20  23
ENDBRANCH   4  19
TORSDOF 6
ENDMDL
MODEL 2
REMARK VINA RESULT:      -6.7      1.186      1.321
REMARK  Name = 
REMARK  8 active torsions:
REMARK  status: ('A' for Active; 'I' for Inactive)
REMARK    1  A    between atoms: C_1  and  C_2
REMARK    2  A    between atoms: C_2  and  C_3
REMARK    3  A    between atoms: C_3  and  C_4
REMARK    4  A    between atoms: C_3  and  C_5
REMARK    5  A    between atoms: C_5  and  N_6
REMARK    6  A    between atoms: N_10  and  C_11
REMARK    7  A    between atoms: C_14  and  N_15
REMARK    8  A    between atoms: C_16  and  C_18
REMARK                            x       y       z     vdW  Elec       q    Type
REMARK                         _______ _______ _______ _____ _____    ______ ____
ROOT
ATOM      1  C   UNL     1       2.936   6.298  19.257  0.00  0.00    +0.000 A 
ATOM      2  C   UNL     1       2.172   6.604  20.391  0.00  0.00    +0.000 A 
ATOM      3  C   UNL     1       1.452   7.796  20.511  0.00  0.00    +0.000 A 
ATOM      4  C   UNL     1       1.466   8.736  19.486  0.00  0.00    +0.000 A 
ATOM      5  C   UNL     1       2.178   8.437  18.325  0.00  0.00    +0.000 A 
ATOM      6  C   UNL     1       2.899   7.234  18.215  0.00  0.00    +0.000 A 
ENDROOT
BRANCH   1  11
ATOM      7  N   UNL     1       5.434   4.088  16.962  0.00  0.00    +0.000 NA
ATOM      8  C   UNL     1       4.044   4.106  16.502  0.00  0.00    +0.000 C 
ATOM      9  C   UNL     1       3.055   3.420  17.431  0.00  0.00    +0.000 C 
ATOM     10  C   UNL     1       3.055   3.828  18.897  0.00  0.00    +0.000 C 
ATOM     11  N   UNL     1       3.660   5.123  19.193  0.00  0.00    +0.000 N 
ATOM     12  C   UNL     1       5.133   5.164  19.212  0.00  0.00    +0.000 C 
ATOM     13  C   UNL     1       5.735   5.270  17.796  0.00  0.00    +0.000 C 
BRANCH   7  14
ATOM     14  C   UNL     1       6.399   3.901  15.878  0.00  0.00    +0.000 C 
BRANCH  14  15
ATOM     15  C   UNL     1       6.164   4.568  14.501  0.00  0.00    +0.000 C 
ATOM     16  C   UNL     1       5.706   3.652  13.369  0.00  0.00    +0.000 C 
BRANCH  15  18
ATOM     17  C   UNL     1       7.835   5.318  12.623  0.00  0.00    +0.000 C 
ATOM     18  C   UNL     1       7.426   5.350  14.086  0.00  0.00    +0.000 C 
ENDBRANCH  15  18
ENDBRANCH  14  15
ENDBRANCH   7  14
ENDBRANCH   1  11
BRANCH   4  19
ATOM     19  N   UNL     1       0.796   9.966  19.557  0.00  0.00    +0.000 N 
ATOM     20  C   UNL     1       0.712  10.819  20.647  0.00  0.00    +0.000 C 
ATOM     21  O   UNL     1       1.282  10.633  21.719  0.00  0.00    +0.000 OA
ATOM     22  H   UNL     1       0.367  10.303  18.702  0.00  0.00    +0.000 HD
BRANCH  20  23
ATOM     23  C   UNL     1      -0.096  12.016  20.428  0.00  0.00    +0.000 A 
ATOM     24  C   UNL     1      -1.464  12.124  20.607  0.00  0.00    +0.000 A 
ATOM     25  C   UNL     1      -1.959  13.422  20.297  0.00  0.00    +0.000 A 
ATOM     26  C   UNL     1      -0.955  14.268  19.887  0.00  0.00    +0.000 A 
ATOM     27  S   UNL     1       0.571  13.498  19.881  0.00  0.00    +0.000 S 
ENDBRANCH  20  23
ENDBRANCH   4  19
TORSDOF 6
ENDMDL
MODEL 3
REMARK VINA RESULT:      -6.7      1.739      1.953
REMARK  Name = 
REMARK  8 active torsions:
REMARK  status: ('A' for Active; 'I' for Inactive)
REMARK    1  A    between atoms: C_1  and  C_2
REMARK    2  A    between atoms: C_2  and  C_3
REMARK    3  A    between atoms: C_3  and  C_4
REMARK    4  A    between atoms: C_3  and  C_5
REMARK    5  A    between atoms: C_5  and  N_6
REMARK    6  A    between atoms: N_10  and  C_11
REMARK    7  A    between atoms: C_14  and  N_15
REMARK    8  A    between atoms: C_16  and  C_18
REMARK                            x       y       z     vdW  Elec       q    Type
REMARK                         _______ _______ _______ _____ _____    ______ ____
ROOT
ATOM      1  C   UNL     1       3.039   5.805  19.375  0.00  0.00    +0.000 A 
ATOM      2  C   UNL     1       2.244   5.836  20.528  0.00  0.00    +0.000 A 
ATOM      3  C   UNL     1       1.462   6.943  20.870  0.00  0.00    +0.000 A 
ATOM      4  C   UNL     1       1.445   8.073  20.060  0.00  0.00    +0.000 A 
ATOM      5  C   UNL     1       2.188   8.051  18.880  0.00  0.00    +0.000 A 
ATOM      6  C   UNL     1       2.971   6.931  18.546  0.00  0.00    +0.000 A 
ENDROOT
BRANCH   1  11
ATOM      7  N   UNL     1       5.840   4.314  16.861  0.00  0.00    +0.000 NA
ATOM      8  C   UNL     1       4.499   4.414  16.283  0.00  0.00    +0.000 C 
ATOM      9  C   UNL     1       3.465   3.491  16.906  0.00  0.00    +0.000 C 
ATOM     10  C   UNL     1       3.312   3.511  18.420  0.00  0.00    +0.000 C 
ATOM     11  N   UNL     1       3.823   4.703  19.091  0.00  0.00    +0.000 N 
ATOM     12  C   UNL     1       5.285   4.774  19.267  0.00  0.00    +0.000 C 
ATOM     13  C   UNL     1       6.007   5.251  17.991  0.00  0.00    +0.000 C 
BRANCH   7  14
ATOM     14  C   UNL     1       6.908   4.432  15.867  0.00  0.00    +0.000 C 
BRANCH  14  15
ATOM     15  C   UNL     1       6.566   4.744  14.390  0.00  0.00    +0.000 C 
ATOM     16  C   UNL     1       6.031   3.584  13.554  0.00  0.00    +0.000 C 
BRANCH  15  18
ATOM     17  C   UNL     1       7.783   5.486  12.187  0.00  0.00    +0.000 C 
ATOM     18  C   UNL     1       7.789   5.384  13.703  0.00  0.00    +0.000 C 
ENDBRANCH  15  18
ENDBRANCH  14  15
ENDBRANCH   7  14
ENDBRANCH   1  11
BRANCH   4  19
ATOM     19  N   UNL     1       0.712   9.230  20.363  0.00  0.00    +0.000 N 
ATOM     20  C   UNL     1       0.689   9.923  21.564  0.00  0.00    +0.000 C 
ATOM     21  O   UNL     1       1.376   9.639  22.541  0.00  0.00    +0.000 OA
ATOM     22  H   UNL     1       0.177   9.644  19.607  0.00  0.00    +0.000 HD
BRANCH  20  23
ATOM     23  C   UNL     1      -0.208  11.074  21.590  0.00  0.00    +0.000 A 
ATOM     24  C   UNL     1      -0.936  11.521  22.680  0.00  0.00    +0.000 A 
ATOM     25  C   UNL     1      -1.729  12.664  22.380  0.00  0.00    +0.000 A 
ATOM     26  C   UNL     1      -1.586  13.058  21.070  0.00  0.00    +0.000 A 
ATOM     27  S   UNL     1      -0.501  12.054  20.213  0.00  0.00    +0.000 S 
ENDBRANCH  20  23
ENDBRANCH   4  19
TORSDOF 6
ENDMDL
MODEL 4
REMARK VINA RESULT:      -6.7      1.069      1.612
REMARK  Name = 
REMARK  8 active torsions:
REMARK  status: ('A' for Active; 'I' for Inactive)
REMARK    1  A    between atoms: C_1  and  C_2
REMARK    2  A    between atoms: C_2  and  C_3
REMARK    3  A    between atoms: C_3  and  C_4
REMARK    4  A    between atoms: C_3  and  C_5
REMARK    5  A    between atoms: C_5  and  N_6
REMARK    6  A    between atoms: N_10  and  C_11
REMARK    7  A    between atoms: C_14  and  N_15
REMARK    8  A    between atoms: C_16  and  C_18
REMARK                            x       y       z     vdW  Elec       q    Type
REMARK                         _______ _______ _______ _____ _____    ______ ____
ROOT
ATOM      1  C   UNL     1       2.046   6.733  19.783  0.00  0.00    +0.000 A 
ATOM      2  C   UNL     1       2.223   7.537  18.649  0.00  0.00    +0.000 A 
ATOM      3  C   UNL     1       1.833   8.878  18.612  0.00  0.00    +0.000 A 
ATOM      4  C   UNL     1       1.248   9.475  19.724  0.00  0.00    +0.000 A 
ATOM      5  C   UNL     1       1.105   8.713  20.884  0.00  0.00    +0.000 A 
ATOM      6  C   UNL     1       1.501   7.364  20.909  0.00  0.00    +0.000 A 
ENDROOT
BRANCH   1  11
ATOM      7  N   UNL     1       4.127   3.918  17.750  0.00  0.00    +0.000 NA
ATOM      8  C   UNL     1       2.877   4.329  17.108  0.00  0.00    +0.000 C 
ATOM      9  C   UNL     1       1.616   3.946  17.865  0.00  0.00    +0.000 C 
ATOM     10  C   UNL     1       1.522   4.331  19.334  0.00  0.00    +0.000 C 
ATOM     11  N   UNL     1       2.415   5.402  19.766  0.00  0.00    +0.000 N 
ATOM     12  C   UNL     1       3.824   5.026  19.984  0.00  0.00    +0.000 C 
ATOM     13  C   UNL     1       4.625   4.963  18.668  0.00  0.00    +0.000 C 
BRANCH   7  14
ATOM     14  C   UNL     1       5.145   3.470  16.799  0.00  0.00    +0.000 C 
BRANCH  14  15
ATOM     15  C   UNL     1       5.766   4.471  15.793  0.00  0.00    +0.000 C 
ATOM     16  C   UNL     1       5.827   4.023  14.335  0.00  0.00    +0.000 C 
BRANCH  15  18
ATOM     17  C   UNL     1       7.305   6.263  16.934  0.00  0.00    +0.000 C 
ATOM     18  C   UNL     1       7.163   4.896  16.285  0.00  0.00    +0.000 C 
ENDBRANCH  15  18
ENDBRANCH  14  15
ENDBRANCH   7  14
ENDBRANCH   1  11
BRANCH   4  19
ATOM     19  N   UNL     1       0.802  10.804  19.743  0.00  0.00    +0.000 N 
ATOM     20  C   UNL     1      -0.432  11.285  19.332  0.00  0.00    +0.000 C 
ATOM     21  O   UNL     1      -1.355  10.578  18.937  0.00  0.00    +0.000 OA
ATOM     22  H   UNL     1       1.427  11.491  20.150  0.00  0.00    +0.000 HD
BRANCH  20  23
ATOM     23  C   UNL     1      -0.591  12.733  19.434  0.00  0.00    +0.000 A 
ATOM     24  C   UNL     1      -0.007  13.681  18.610  0.00  0.00    +0.000 A 
ATOM     25  C   UNL     1      -0.348  15.013  18.977  0.00  0.00    +0.000 A 
ATOM     26  C   UNL     1      -1.179  15.046  20.072  0.00  0.00    +0.000 A 
ATOM     27  S   UNL     1      -1.546  13.479  20.648  0.00  0.00    +0.000 S 
ENDBRANCH  20  23
ENDBRANCH   4  19
TORSDOF 6
ENDMDL
MODEL 5
REMARK VINA RESULT:      -6.6      1.108      1.349
REMARK  Name = 
REMARK  8 active torsions:
REMARK  status: ('A' for Active; 'I' for Inactive)
REMARK    1  A    between atoms: C_1  and  C_2
REMARK    2  A    between atoms: C_2  and  C_3
REMARK    3  A    between atoms: C_3  and  C_4
REMARK    4  A    between atoms: C_3  and  C_5
REMARK    5  A    between atoms: C_5  and  N_6
REMARK    6  A    between atoms: N_10  and  C_11
REMARK    7  A    between atoms: C_14  and  N_15
REMARK    8  A    between atoms: C_16  and  C_18
REMARK                            x       y       z     vdW  Elec       q    Type
REMARK                         _______ _______ _______ _____ _____    ______ ____
ROOT
ATOM      1  C   UNL     1       2.045   6.848  19.777  0.00  0.00    +0.000 A 
ATOM      2  C   UNL     1       1.437   7.396  20.914  0.00  0.00    +0.000 A 
ATOM      3  C   UNL     1       0.970   8.713  20.954  0.00  0.00    +0.000 A 
ATOM      4  C   UNL     1       1.093   9.540  19.843  0.00  0.00    +0.000 A 
ATOM      5  C   UNL     1       1.650   9.006  18.680  0.00  0.00    +0.000 A 
ATOM      6  C   UNL     1       2.115   7.680  18.651  0.00  0.00    +0.000 A 
ENDROOT
BRANCH   1  11
ATOM      7  N   UNL     1       4.093   4.069  17.662  0.00  0.00    +0.000 NA
ATOM      8  C   UNL     1       2.743   4.336  17.164  0.00  0.00    +0.000 C 
ATOM      9  C   UNL     1       1.622   3.910  18.098  0.00  0.00    +0.000 C 
ATOM     10  C   UNL     1       1.678   4.388  19.542  0.00  0.00    +0.000 C 
ATOM     11  N   UNL     1       2.522   5.552  19.791  0.00  0.00    +0.000 N 
ATOM     12  C   UNL     1       3.974   5.302  19.847  0.00  0.00    +0.000 C 
ATOM     13  C   UNL     1       4.609   5.211  18.445  0.00  0.00    +0.000 C 
BRANCH   7  14
ATOM     14  C   UNL     1       5.021   3.637  16.616  0.00  0.00    +0.000 C 
BRANCH  14  15
ATOM     15  C   UNL     1       5.559   4.657  15.582  0.00  0.00    +0.000 C 
ATOM     16  C   UNL     1       5.769   4.140  14.161  0.00  0.00    +0.000 C 
BRANCH  15  18
ATOM     17  C   UNL     1       7.673   4.514  17.128  0.00  0.00    +0.000 C 
ATOM     18  C   UNL     1       6.853   5.299  16.119  0.00  0.00    +0.000 C 
ENDBRANCH  15  18
ENDBRANCH  14  15
ENDBRANCH   7  14
ENDBRANCH   1  11
BRANCH   4  19
ATOM     19  N   UNL     1       0.680  10.880  19.827  0.00  0.00    +0.000 N 
ATOM     20  C   UNL     1      -0.537  11.382  19.392  0.00  0.00    +0.000 C 
ATOM     21  O   UNL     1      -1.473  10.689  19.002  0.00  0.00    +0.000 OA
ATOM     22  H   UNL     1       1.318  11.560  20.226  0.00  0.00    +0.000 HD
BRANCH  20  23
ATOM     23  C   UNL     1      -0.661  12.835  19.460  0.00  0.00    +0.000 A 
ATOM     24  C   UNL     1      -0.153  13.744  18.546  0.00  0.00    +0.000 A 
ATOM     25  C   UNL     1      -0.431  15.094  18.901  0.00  0.00    +0.000 A 
ATOM     26  C   UNL     1      -1.141  15.179  20.076  0.00  0.00    +0.000 A 
ATOM     27  S   UNL     1      -1.469  13.640  20.741  0.00  0.00    +0.000 S 
ENDBRANCH  20  23
ENDBRANCH   4  19
TORSDOF 6
ENDMDL
MODEL 6
REMARK VINA RESULT:      -6.6      1.399      1.746
REMARK  Name = 
REMARK  8 active torsions:
REMARK  status: ('A' for Active; 'I' for Inactive)
REMARK    1  A    between atoms: C_1  and  C_2
REMARK    2  A    between atoms: C_2  and  C_3
REMARK    3  A    between atoms: C_3  and  C_4
REMARK    4  A    between atoms: C_3  and  C_5
REMARK    5  A    between atoms: C_5  and  N_6
REMARK    6  A    between atoms: N_10  and  C_11
REMARK    7  A    between atoms: C_14  and  N_15
REMARK    8  A    between atoms: C_16  and  C_18
REMARK                            x       y       z     vdW  Elec       q    Type
REMARK                         _______ _______ _______ _____ _____    ______ ____
ROOT
ATOM      1  C   UNL     1       2.925   6.038  19.390  0.00  0.00    +0.000 A 
ATOM      2  C   UNL     1       2.953   7.050  18.421  0.00  0.00    +0.000 A 
ATOM      3  C   UNL     1       2.226   8.237  18.555  0.00  0.00    +0.000 A 
ATOM      4  C   UNL     1       1.439   8.460  19.680  0.00  0.00    +0.000 A 
ATOM      5  C   UNL     1       1.432   7.491  20.684  0.00  0.00    +0.000 A 
ATOM      6  C   UNL     1       2.167   6.301  20.538  0.00  0.00    +0.000 A 
ENDROOT
BRANCH   1  11
ATOM      7  N   UNL     1       5.505   4.104  16.942  0.00  0.00    +0.000 NA
ATOM      8  C   UNL     1       4.143   4.217  16.419  0.00  0.00    +0.000 C 
ATOM      9  C   UNL     1       3.095   3.434  17.194  0.00  0.00    +0.000 C 
ATOM     10  C   UNL     1       3.023   3.638  18.700  0.00  0.00    +0.000 C 
ATOM     11  N   UNL     1       3.632   4.866  19.202  0.00  0.00    +0.000 N 
ATOM     12  C   UNL     1       5.103   4.870  19.300  0.00  0.00    +0.000 C 
ATOM     13  C   UNL     1       5.781   5.153  17.944  0.00  0.00    +0.000 C 
BRANCH   7  14
ATOM     14  C   UNL     1       6.524   4.043  15.893  0.00  0.00    +0.000 C 
BRANCH  14  15
ATOM     15  C   UNL     1       6.230   4.622  14.487  0.00  0.00    +0.000 C 
ATOM     16  C   UNL     1       5.751   3.631  13.429  0.00  0.00    +0.000 C 
BRANCH  15  18
ATOM     17  C   UNL     1       7.813   5.293  12.507  0.00  0.00    +0.000 C 
ATOM     18  C   UNL     1       7.463   5.396  13.981  0.00  0.00    +0.000 C 
ENDBRANCH  15  18
ENDBRANCH  14  15
ENDBRANCH   7  14
ENDBRANCH   1  11
BRANCH   4  19
ATOM     19  N   UNL     1       0.658   9.611  19.861  0.00  0.00    +0.000 N 
ATOM     20  C   UNL     1       0.629  10.444  20.969  0.00  0.00    +0.000 C 
ATOM     21  O   UNL     1       1.352  10.314  21.953  0.00  0.00    +0.000 OA
ATOM     22  H   UNL     1       0.086   9.903  19.076  0.00  0.00    +0.000 HD
BRANCH  20  23
ATOM     23  C   UNL     1      -0.322  11.548  20.881  0.00  0.00    +0.000 A 
ATOM     24  C   UNL     1      -0.536  12.523  21.841  0.00  0.00    +0.000 A 
ATOM     25  C   UNL     1      -1.542  13.456  21.461  0.00  0.00    +0.000 A 
ATOM     26  C   UNL     1      -2.070  13.166  20.225  0.00  0.00    +0.000 A 
ATOM     27  S   UNL     1      -1.352  11.780  19.529  0.00  0.00    +0.000 S 
ENDBRANCH  20  23
ENDBRANCH   4  19
TORSDOF 6
ENDMDL
MODEL 7
REMARK VINA RESULT:      -6.6      1.454      1.727
REMARK  Name = 
REMARK  8 active torsions:
REMARK  status: ('A' for Active; 'I' for Inactive)
REMARK    1  A    between atoms: C_1  and  C_2
REMARK    2  A    between atoms: C_2  and  C_3
REMARK    3  A    between atoms: C_3  and  C_4
REMARK    4  A    between atoms: C_3  and  C_5
REMARK    5  A    between atoms: C_5  and  N_6
REMARK    6  A    between atoms: N_10  and  C_11
REMARK    7  A    between atoms: C_14  and  N_15
REMARK    8  A    between atoms: C_16  and  C_18
REMARK                            x       y       z     vdW  Elec       q    Type
REMARK                         _______ _______ _______ _____ _____    ______ ____
ROOT
ATOM      1  C   UNL     1       2.084   7.015  19.606  0.00  0.00    +0.000 A 
ATOM      2  C   UNL     1       1.557   7.667  20.729  0.00  0.00    +0.000 A 
ATOM      3  C   UNL     1       1.138   9.000  20.694  0.00  0.00    +0.000 A 
ATOM      4  C   UNL     1       1.228   9.738  19.519  0.00  0.00    +0.000 A 
ATOM      5  C   UNL     1       1.702   9.100  18.372  0.00  0.00    +0.000 A 
ATOM      6  C   UNL     1       2.120   7.759  18.420  0.00  0.00    +0.000 A 
ENDROOT
BRANCH   1  11
ATOM      7  N   UNL     1       4.139   4.093  17.703  0.00  0.00    +0.000 NA
ATOM      8  C   UNL     1       2.824   4.381  17.128  0.00  0.00    +0.000 C 
ATOM      9  C   UNL     1       1.646   4.027  18.021  0.00  0.00    +0.000 C 
ATOM     10  C   UNL     1       1.648   4.560  19.447  0.00  0.00    +0.000 C 
ATOM     11  N   UNL     1       2.517   5.706  19.693  0.00  0.00    +0.000 N 
ATOM     12  C   UNL     1       3.956   5.415  19.831  0.00  0.00    +0.000 C 
ATOM     13  C   UNL     1       4.654   5.248  18.466  0.00  0.00    +0.000 C 
BRANCH   7  14
ATOM     14  C   UNL     1       5.102   3.592  16.720  0.00  0.00    +0.000 C 
BRANCH  14  15
ATOM     15  C   UNL     1       5.725   4.554  15.679  0.00  0.00    +0.000 C 
ATOM     16  C   UNL     1       5.496   4.208  14.209  0.00  0.00    +0.000 C 
BRANCH  15  18
ATOM     17  C   UNL     1       7.709   4.524  17.394  0.00  0.00    +0.000 C 
ATOM     18  C   UNL     1       7.230   4.718  15.966  0.00  0.00    +0.000 C 
ENDBRANCH  15  18
ENDBRANCH  14  15
ENDBRANCH   7  14
ENDBRANCH   1  11
BRANCH   4  19
ATOM     19  N   UNL     1       0.860  11.088  19.424  0.00  0.00    +0.000 N 
ATOM     20  C   UNL     1       1.560  12.112  18.804  0.00  0.00    +0.000 C 
ATOM     21  O   UNL     1       2.607  11.957  18.181  0.00  0.00    +0.000 OA
ATOM     22  H   UNL     1      -0.045  11.344  19.804  0.00  0.00    +0.000 HD
BRANCH  20  23
ATOM     23  C   UNL     1       0.940  13.430  18.907  0.00  0.00    +0.000 A 
ATOM     24  C   UNL     1       1.554  14.645  18.657  0.00  0.00    +0.000 A 
ATOM     25  C   UNL     1       0.683  15.753  18.859  0.00  0.00    +0.000 A 
ATOM     26  C   UNL     1      -0.571  15.352  19.259  0.00  0.00    +0.000 A 
ATOM     27  S   UNL     1      -0.692  13.653  19.386  0.00  0.00    +0.000 S 
ENDBRANCH  20  23
ENDBRANCH   4  19
TORSDOF 6
ENDMDL
MODEL 8
REMARK VINA RESULT:      -6.5      1.043      1.694
REMARK  Name = 
REMARK  8 active torsions:
REMARK  status: ('A' for Active; 'I' for Inactive)
REMARK    1  A    between atoms: C_1  and  C_2
REMARK    2  A    between atoms: C_2  and  C_3
REMARK    3  A    between atoms: C_3  and  C_4
REMARK    4  A    between atoms: C_3  and  C_5
REMARK    5  A    between atoms: C_5  and  N_6
REMARK    6  A    between atoms: N_10  and  C_11
REMARK    7  A    between atoms: C_14  and  N_15
REMARK    8  A    between atoms: C_16  and  C_18
REMARK                            x       y       z     vdW  Elec       q    Type
REMARK                         _______ _______ _______ _____ _____    ______ ____
ROOT
ATOM      1  C   UNL     1       2.247   6.628  19.776  0.00  0.00    +0.000 A 
ATOM      2  C   UNL     1       2.321   7.509  18.689  0.00  0.00    +0.000 A 
ATOM      3  C   UNL     1       1.802   8.806  18.738  0.00  0.00    +0.000 A 
ATOM      4  C   UNL     1       1.185   9.276  19.892  0.00  0.00    +0.000 A 
ATOM      5  C   UNL     1       1.140   8.438  21.007  0.00  0.00    +0.000 A 
ATOM      6  C   UNL     1       1.667   7.135  20.945  0.00  0.00    +0.000 A 
ENDROOT
BRANCH   1  11
ATOM      7  N   UNL     1       4.300   4.069  17.404  0.00  0.00    +0.000 NA
ATOM      8  C   UNL     1       2.937   4.354  16.951  0.00  0.00    +0.000 C 
ATOM      9  C   UNL     1       1.839   3.833  17.864  0.00  0.00    +0.000 C 
ATOM     10  C   UNL     1       1.912   4.190  19.342  0.00  0.00    +0.000 C 
ATOM     11  N   UNL     1       2.744   5.343  19.673  0.00  0.00    +0.000 N 
ATOM     12  C   UNL     1       4.200   5.114  19.686  0.00  0.00    +0.000 C 
ATOM     13  C   UNL     1       4.812   5.150  18.271  0.00  0.00    +0.000 C 
BRANCH   7  14
ATOM     14  C   UNL     1       5.216   3.741  16.310  0.00  0.00    +0.000 C 
BRANCH  14  15
ATOM     15  C   UNL     1       6.064   4.852  15.645  0.00  0.00    +0.000 C 
ATOM     16  C   UNL     1       5.339   6.153  15.307  0.00  0.00    +0.000 C 
BRANCH  15  18
ATOM     17  C   UNL     1       5.895   3.702  13.294  0.00  0.00    +0.000 C 
ATOM     18  C   UNL     1       6.764   4.286  14.394  0.00  0.00    +0.000 C 
ENDBRANCH  15  18
ENDBRANCH  14  15
ENDBRANCH   7  14
ENDBRANCH   1  11
BRANCH   4  19
ATOM     19  N   UNL     1       0.611  10.552  19.997  0.00  0.00    +0.000 N 
ATOM     20  C   UNL     1      -0.602  10.977  19.477  0.00  0.00    +0.000 C 
ATOM     21  O   UNL     1      -1.393  10.250  18.881  0.00  0.00    +0.000 OA
ATOM     22  H   UNL     1       1.109  11.232  20.561  0.00  0.00    +0.000 HD
BRANCH  20  23
ATOM     23  C   UNL     1      -0.913  12.383  19.716  0.00  0.00    +0.000 A 
ATOM     24  C   UNL     1      -1.939  12.871  20.508  0.00  0.00    +0.000 A 
ATOM     25  C   UNL     1      -1.988  14.293  20.529  0.00  0.00    +0.000 A 
ATOM     26  C   UNL     1      -1.001  14.852  19.751  0.00  0.00    +0.000 A 
ATOM     27  S   UNL     1      -0.024  13.665  19.005  0.00  0.00    +0.000 S 
ENDBRANCH  20  23
ENDBRANCH   4  19
TORSDOF 6
ENDMDL
MODEL 9
REMARK VINA RESULT:      -6.4      1.552      2.053
REMARK  Name = 
REMARK  8 active torsions:
REMARK  status: ('A' for Active; 'I' for Inactive)
REMARK    1  A    between atoms: C_1  and  C_2
REMARK    2  A    between atoms: C_2  and  C_3
REMARK    3  A    between atoms: C_3  and  C_4
REMARK    4  A    between atoms: C_3  and  C_5
REMARK    5  A    between atoms: C_5  and  N_6
REMARK    6  A    between atoms: N_10  and  C_11
REMARK    7  A    between atoms: C_14  and  N_15
REMARK    8  A    between atoms: C_16  and  C_18
REMARK                            x       y       z     vdW  Elec       q    Type
REMARK                         _______ _______ _______ _____ _____    ______ ____
ROOT
ATOM      1  C   UNL     1       2.152   6.788  19.918  0.00  0.00    +0.000 A 
ATOM      2  C   UNL     1       2.236   7.672  18.834  0.00  0.00    +0.000 A 
ATOM      3  C   UNL     1       1.626   8.929  18.842  0.00  0.00    +0.000 A 
ATOM      4  C   UNL     1       0.903   9.356  19.950  0.00  0.00    +0.000 A 
ATOM      5  C   UNL     1       0.844   8.518  21.064  0.00  0.00    +0.000 A 
ATOM      6  C   UNL     1       1.462   7.255  21.044  0.00  0.00    +0.000 A 
ENDROOT
BRANCH   1  11
ATOM      7  N   UNL     1       4.194   4.226  17.540  0.00  0.00    +0.000 NA
ATOM      8  C   UNL     1       2.778   4.372  17.198  0.00  0.00    +0.000 C 
ATOM      9  C   UNL     1       1.811   3.837  18.242  0.00  0.00    +0.000 C 
ATOM     10  C   UNL     1       1.983   4.306  19.679  0.00  0.00    +0.000 C 
ATOM     11  N   UNL     1       2.742   5.541  19.855  0.00  0.00    +0.000 N 
ATOM     12  C   UNL     1       4.208   5.425  19.747  0.00  0.00    +0.000 C 
ATOM     13  C   UNL     1       4.689   5.403  18.282  0.00  0.00    +0.000 C 
BRANCH   7  14
ATOM     14  C   UNL     1       5.035   3.889  16.390  0.00  0.00    +0.000 C 
BRANCH  14  15
ATOM     15  C   UNL     1       5.945   4.965  15.749  0.00  0.00    +0.000 C 
ATOM     16  C   UNL     1       5.259   6.247  15.281  0.00  0.00    +0.000 C 
BRANCH  15  18
ATOM     17  C   UNL     1       5.989   3.790  13.404  0.00  0.00    +0.000 C 
ATOM     18  C   UNL     1       6.753   4.336  14.598  0.00  0.00    +0.000 C 
ENDBRANCH  15  18
ENDBRANCH  14  15
ENDBRANCH   7  14
ENDBRANCH   1  11
BRANCH   4  19
ATOM     19  N   UNL     1       0.237  10.589  20.010  0.00  0.00    +0.000 N 
ATOM     20  C   UNL     1       0.638  11.732  20.685  0.00  0.00    +0.000 C 
ATOM     21  O   UNL     1       1.698  11.841  21.295  0.00  0.00    +0.000 OA
ATOM     22  H   UNL     1      -0.608  10.680  19.457  0.00  0.00    +0.000 HD
BRANCH  20  23
ATOM     23  C   UNL     1      -0.292  12.854  20.596  0.00  0.00    +0.000 A 
ATOM     24  C   UNL     1      -1.668  12.790  20.734  0.00  0.00    +0.000 A 
ATOM     25  C   UNL     1      -2.295  14.059  20.581  0.00  0.00    +0.000 A 
ATOM     26  C   UNL     1      -1.381  15.055  20.328  0.00  0.00    +0.000 A 
ATOM     27  S   UNL     1       0.220  14.461  20.279  0.00  0.00    +0.000 S 
ENDBRANCH  20  23
ENDBRANCH   4  19
TORSDOF 6
ENDMDL
