MODEL 1
REMARK VINA RESULT:      -8.9      0.000      0.000
REMARK  Name = 
REMARK  3 active torsions:
REMARK  status: ('A' for Active; 'I' for Inactive)
REMARK    1  A    between atoms: C_1  and  C_2
REMARK    2  A    between atoms: C_3  and  C_4
REMARK    3  A    between atoms: N_6  and  C_7
REMARK                            x       y       z     vdW  Elec       q    Type
REMARK                         _______ _______ _______ _____ _____    ______ ____
ROOT
ATOM      1  C   UNL     1       2.377   3.289  21.047  0.00  0.00    +0.000 C 
ATOM      2  C   UNL     1       3.387   3.664  20.021  0.00  0.00    +0.000 C 
ATOM      3  C   UNL     1       3.520   4.674  19.144  0.00  0.00    +0.000 C 
ATOM      4  C   UNL     1       4.785   4.530  18.357  0.00  0.00    +0.000 C 
ATOM      5  C   UNL     1       5.735   5.721  18.592  0.00  0.00    +0.000 C 
ATOM      6  C   UNL     1       7.236   5.456  18.466  0.00  0.00    +0.000 C 
ATOM      7  C   UNL     1       7.699   4.593  17.299  0.00  0.00    +0.000 C 
ATOM      8  C   UNL     1       6.867   4.742  16.031  0.00  0.00    +0.000 C 
ATOM      9  C   UNL     1       5.678   3.786  16.019  0.00  0.00    +0.000 C 
ATOM     10  C   UNL     1       4.493   4.245  16.867  0.00  0.00    +0.000 C 
ATOM     11  O   UNL     1       5.379   3.346  18.915  0.00  0.00    +0.000 OA
ATOM     12  C   UNL     1       4.566   2.807  19.858  0.00  0.00    +0.000 C 
ATOM     13  O   UNL     1       4.788   1.785  20.474  0.00  0.00    +0.000 OA
ENDROOT
BRANCH   3  14
ATOM     14  C   UNL     1       2.527   5.777  19.073  0.00  0.00    +0.000 C 
ATOM     15  O   UNL     1       1.703   5.767  18.165  0.00  0.00    +0.000 OA
ATOM     16  N   UNL     1       2.606   6.779  20.017  0.00  0.00    +0.000 N 
ATOM     17  H   UNL     1       3.394   6.830  20.642  0.00  0.00    +0.000 HD
BRANCH  16  18
ATOM     18  C   UNL     1       1.735   7.897  20.067  0.00  0.00    +0.000 A 
ATOM     19  C   UNL     1       1.670   8.847  19.040  0.00  0.00    +0.000 A 
ATOM     20  C   UNL     1       0.848   9.968  19.139  0.00  0.00    +0.000 A 
ATOM     21  C   UNL     1       0.078  10.155  20.278  0.00  0.00    +0.000 A 
ATOM     22  C   UNL     1       0.119   9.204  21.292  0.00  0.00    +0.000 A 
ATOM     23  F   UNL     1      -0.613   9.395  22.396  0.00  0.00    +0.000 F 
ATOM     24  C   UNL     1       0.922   8.069  21.192  0.00  0.00    +0.000 A 
ENDBRANCH  16  18
ENDBRANCH   3  14
TORSDOF 2
ENDMDL
MODEL 2
REMARK VINA RESULT:      -8.8      0.985      1.404
REMARK  Name = 
REMARK  3 active torsions:
REMARK  status: ('A' for Active; 'I' for Inactive)
REMARK    1  A    between atoms: C_1  and  C_2
REMARK    2  A    between atoms: C_3  and  C_4
REMARK    3  A    between atoms: N_6  and  C_7
REMARK                            x       y       z     vdW  Elec       q    Type
REMARK                         _______ _______ _______ _____ _____    ______ ____
ROOT
ATOM      1  C   UNL     1       2.417   3.099  21.106  0.00  0.00    +0.000 C 
ATOM      2  C   UNL     1       3.414   3.519  20.085  0.00  0.00    +0.000 C 
ATOM      3  C   UNL     1       3.525   4.556  19.235  0.00  0.00    +0.000 C 
ATOM      4  C   UNL     1       4.787   4.454  18.437  0.00  0.00    +0.000 C 
ATOM      5  C   UNL     1       5.718   5.654  18.699  0.00  0.00    +0.000 C 
ATOM      6  C   UNL     1       7.223   5.419  18.557  0.00  0.00    +0.000 C 
ATOM      7  C   UNL     1       7.693   4.596  17.364  0.00  0.00    +0.000 C 
ATOM      8  C   UNL     1       6.851   4.765  16.106  0.00  0.00    +0.000 C 
ATOM      9  C   UNL     1       5.678   3.790  16.074  0.00  0.00    +0.000 C 
ATOM     10  C   UNL     1       4.491   4.205  16.942  0.00  0.00    +0.000 C 
ATOM     11  O   UNL     1       5.405   3.266  18.959  0.00  0.00    +0.000 OA
ATOM     12  C   UNL     1       4.607   2.687  19.892  0.00  0.00    +0.000 C 
ATOM     13  O   UNL     1       4.850   1.653  20.478  0.00  0.00    +0.000 OA
ENDROOT
BRANCH   3  14
ATOM     14  C   UNL     1       2.513   5.643  19.200  0.00  0.00    +0.000 C 
ATOM     15  O   UNL     1       1.624   5.590  18.358  0.00  0.00    +0.000 OA
ATOM     16  N   UNL     1       2.647   6.679  20.101  0.00  0.00    +0.000 N 
ATOM     17  H   UNL     1       3.479   6.761  20.663  0.00  0.00    +0.000 HD
BRANCH  16  18
ATOM     18  C   UNL     1       1.765   7.788  20.177  0.00  0.00    +0.000 A 
ATOM     19  C   UNL     1       0.902   7.990  21.261  0.00  0.00    +0.000 A 
ATOM     20  C   UNL     1       0.005   9.056  21.284  0.00  0.00    +0.000 A 
ATOM     21  C   UNL     1      -0.042   9.936  20.213  0.00  0.00    +0.000 A 
ATOM     22  C   UNL     1       0.827   9.755  19.144  0.00  0.00    +0.000 A 
ATOM     23  F   UNL     1       0.769  10.596  18.105  0.00  0.00    +0.000 F 
ATOM     24  C   UNL     1       1.744   8.704  19.121  0.00  0.00    +0.000 A 
ENDBRANCH  16  18
ENDBRANCH   3  14
TORSDOF 2
ENDMDL
MODEL 3
REMARK VINA RESULT:      -7.8      4.013      7.255
REMARK  Name = 
REMARK  3 active torsions:
REMARK  status: ('A' for Active; 'I' for Inactive)
REMARK    1  A    between atoms: C_1  and  C_2
REMARK    2  A    between atoms: C_3  and  C_4
REMARK    3  A    between atoms: N_6  and  C_7
REMARK                            x       y       z     vdW  Elec       q    Type
REMARK                         _______ _______ _______ _____ _____    ______ ____
ROOT
ATOM      1  C   UNL     1       4.311   7.671  17.457  0.00  0.00    +0.000 C 
ATOM      2  C   UNL     1       3.731   6.403  17.976  0.00  0.00    +0.000 C 
ATOM      3  C   UNL     1       3.920   5.097  17.718  0.00  0.00    +0.000 C 
ATOM      4  C   UNL     1       3.039   4.253  18.586  0.00  0.00    +0.000 C 
ATOM      5  C   UNL     1       3.865   3.332  19.504  0.00  0.00    +0.000 C 
ATOM      6  C   UNL     1       3.249   2.945  20.849  0.00  0.00    +0.000 C 
ATOM      7  C   UNL     1       1.773   2.567  20.860  0.00  0.00    +0.000 C 
ATOM      8  C   UNL     1       1.290   1.863  19.597  0.00  0.00    +0.000 C 
ATOM      9  C   UNL     1       0.831   2.859  18.535  0.00  0.00    +0.000 C 
ATOM     10  C   UNL     1       1.969   3.512  17.753  0.00  0.00    +0.000 C 
ATOM     11  O   UNL     1       2.358   5.225  19.397  0.00  0.00    +0.000 OA
ATOM     12  C   UNL     1       2.718   6.482  19.034  0.00  0.00    +0.000 C 
ATOM     13  O   UNL     1       2.279   7.504  19.518  0.00  0.00    +0.000 OA
ENDROOT
BRANCH   3  14
ATOM     14  C   UNL     1       4.930   4.638  16.731  0.00  0.00    +0.000 C 
ATOM     15  O   UNL     1       5.917   4.035  17.139  0.00  0.00    +0.000 OA
ATOM     16  N   UNL     1       4.722   4.946  15.403  0.00  0.00    +0.000 N 
ATOM     17  H   UNL     1       3.986   5.579  15.136  0.00  0.00    +0.000 HD
BRANCH  16  18
ATOM     18  C   UNL     1       5.606   4.585  14.354  0.00  0.00    +0.000 A 
ATOM     19  C   UNL     1       6.861   5.181  14.188  0.00  0.00    +0.000 A 
ATOM     20  C   UNL     1       7.686   4.849  13.115  0.00  0.00    +0.000 A 
ATOM     21  C   UNL     1       7.259   3.912  12.186  0.00  0.00    +0.000 A 
ATOM     22  C   UNL     1       6.023   3.299  12.356  0.00  0.00    +0.000 A 
ATOM     23  F   UNL     1       5.606   2.406  11.450  0.00  0.00    +0.000 F 
ATOM     24  C   UNL     1       5.200   3.609  13.439  0.00  0.00    +0.000 A 
ENDBRANCH  16  18
ENDBRANCH   3  14
TORSDOF 2
ENDMDL
MODEL 4
REMARK VINA RESULT:      -7.7      2.242      4.106
REMARK  Name = 
REMARK  3 active torsions:
REMARK  status: ('A' for Active; 'I' for Inactive)
REMARK    1  A    between atoms: C_1  and  C_2
REMARK    2  A    between atoms: C_3  and  C_4
REMARK    3  A    between atoms: N_6  and  C_7
REMARK                            x       y       z     vdW  Elec       q    Type
REMARK                         _______ _______ _______ _____ _____    ______ ____
ROOT
ATOM      1  C   UNL     1       5.700   7.045  17.476  0.00  0.00    +0.000 C 
ATOM      2  C   UNL     1       4.666   6.177  18.099  0.00  0.00    +0.000 C 
ATOM      3  C   UNL     1       3.371   6.331  18.433  0.00  0.00    +0.000 C 
ATOM      4  C   UNL     1       2.826   5.072  19.031  0.00  0.00    +0.000 C 
ATOM      5  C   UNL     1       1.672   4.499  18.186  0.00  0.00    +0.000 C 
ATOM      6  C   UNL     1       1.466   2.984  18.214  0.00  0.00    +0.000 C 
ATOM      7  C   UNL     1       1.567   2.289  19.566  0.00  0.00    +0.000 C 
ATOM      8  C   UNL     1       1.079   3.122  20.745  0.00  0.00    +0.000 C 
ATOM      9  C   UNL     1       2.191   3.992  21.323  0.00  0.00    +0.000 C 
ATOM     10  C   UNL     1       2.475   5.263  20.523  0.00  0.00    +0.000 C 
ATOM     11  O   UNL     1       3.942   4.170  18.962  0.00  0.00    +0.000 OA
ATOM     12  C   UNL     1       5.032   4.803  18.458  0.00  0.00    +0.000 C 
ATOM     13  O   UNL     1       6.129   4.304  18.316  0.00  0.00    +0.000 OA
ENDROOT
BRANCH   3  14
ATOM     14  C   UNL     1       2.642   7.595  18.154  0.00  0.00    +0.000 C 
ATOM     15  O   UNL     1       2.776   8.119  17.054  0.00  0.00    +0.000 OA
ATOM     16  N   UNL     1       1.876   8.135  19.165  0.00  0.00    +0.000 N 
ATOM     17  H   UNL     1       1.924   7.758  20.098  0.00  0.00    +0.000 HD
BRANCH  16  18
ATOM     18  C   UNL     1       1.135   9.339  19.048  0.00  0.00    +0.000 A 
ATOM     19  C   UNL     1       1.353  10.441  19.884  0.00  0.00    +0.000 A 
ATOM     20  C   UNL     1       0.573  11.591  19.786  0.00  0.00    +0.000 A 
ATOM     21  C   UNL     1      -0.444  11.652  18.845  0.00  0.00    +0.000 A 
ATOM     22  C   UNL     1      -0.652  10.570  17.996  0.00  0.00    +0.000 A 
ATOM     23  F   UNL     1      -1.644  10.625  17.099  0.00  0.00    +0.000 F 
ATOM     24  C   UNL     1       0.138   9.423  18.072  0.00  0.00    +0.000 A 
ENDBRANCH  16  18
ENDBRANCH   3  14
TORSDOF 2
ENDMDL
MODEL 5
REMARK VINA RESULT:      -7.7      2.272      4.194
REMARK  Name = 
REMARK  3 active torsions:
REMARK  status: ('A' for Active; 'I' for Inactive)
REMARK    1  A    between atoms: C_1  and  C_2
REMARK    2  A    between atoms: C_3  and  C_4
REMARK    3  A    between atoms: N_6  and  C_7
REMARK                            x       y       z     vdW  Elec       q    Type
REMARK                         _______ _______ _______ _____ _____    ______ ____
ROOT
ATOM      1  C   UNL     1       5.519   7.126  17.350  0.00  0.00    +0.000 C 
ATOM      2  C   UNL     1       4.512   6.246  18.003  0.00  0.00    +0.000 C 
ATOM      3  C   UNL     1       3.239   6.397  18.410  0.00  0.00    +0.000 C 
ATOM      4  C   UNL     1       2.717   5.124  18.999  0.00  0.00    +0.000 C 
ATOM      5  C   UNL     1       1.514   4.584  18.200  0.00  0.00    +0.000 C 
ATOM      6  C   UNL     1       1.299   3.070  18.195  0.00  0.00    +0.000 C 
ATOM      7  C   UNL     1       1.467   2.334  19.518  0.00  0.00    +0.000 C 
ATOM      8  C   UNL     1       1.049   3.134  20.746  0.00  0.00    +0.000 C 
ATOM      9  C   UNL     1       2.198   3.979  21.288  0.00  0.00    +0.000 C 
ATOM     10  C   UNL     1       2.448   5.272  20.513  0.00  0.00    +0.000 C 
ATOM     11  O   UNL     1       3.821   4.218  18.842  0.00  0.00    +0.000 OA
ATOM     12  C   UNL     1       4.887   4.859  18.299  0.00  0.00    +0.000 C 
ATOM     13  O   UNL     1       5.971   4.358  18.084  0.00  0.00    +0.000 OA
ENDROOT
BRANCH   3  14
ATOM     14  C   UNL     1       2.506   7.673  18.209  0.00  0.00    +0.000 C 
ATOM     15  O   UNL     1       2.465   8.155  17.082  0.00  0.00    +0.000 OA
ATOM     16  N   UNL     1       1.936   8.271  19.313  0.00  0.00    +0.000 N 
ATOM     17  H   UNL     1       2.132   7.925  20.238  0.00  0.00    +0.000 HD
BRANCH  16  18
ATOM     18  C   UNL     1       1.217   9.494  19.275  0.00  0.00    +0.000 A 
ATOM     19  C   UNL     1      -0.096   9.610  19.747  0.00  0.00    +0.000 A 
ATOM     20  C   UNL     1      -0.800  10.808  19.646  0.00  0.00    +0.000 A 
ATOM     21  C   UNL     1      -0.195  11.911  19.063  0.00  0.00    +0.000 A 
ATOM     22  C   UNL     1       1.116  11.810  18.612  0.00  0.00    +0.000 A 
ATOM     23  F   UNL     1       1.692  12.872  18.036  0.00  0.00    +0.000 F 
ATOM     24  C   UNL     1       1.836  10.622  18.729  0.00  0.00    +0.000 A 
ENDBRANCH  16  18
ENDBRANCH   3  14
TORSDOF 2
ENDMDL
MODEL 6
REMARK VINA RESULT:      -7.6      1.840      3.820
REMARK  Name = 
REMARK  3 active torsions:
REMARK  status: ('A' for Active; 'I' for Inactive)
REMARK    1  A    between atoms: C_1  and  C_2
REMARK    2  A    between atoms: C_3  and  C_4
REMARK    3  A    between atoms: N_6  and  C_7
REMARK                            x       y       z     vdW  Elec       q    Type
REMARK                         _______ _______ _______ _____ _____    ______ ____
ROOT
ATOM      1  C   UNL     1       5.466   7.085  17.386  0.00  0.00    +0.000 C 
ATOM      2  C   UNL     1       4.506   6.153  18.037  0.00  0.00    +0.000 C 
ATOM      3  C   UNL     1       3.260   6.265  18.531  0.00  0.00    +0.000 C 
ATOM      4  C   UNL     1       2.781   4.950  19.062  0.00  0.00    +0.000 C 
ATOM      5  C   UNL     1       1.533   4.456  18.304  0.00  0.00    +0.000 C 
ATOM      6  C   UNL     1       1.324   2.944  18.207  0.00  0.00    +0.000 C 
ATOM      7  C   UNL     1       1.578   2.120  19.463  0.00  0.00    +0.000 C 
ATOM      8  C   UNL     1       1.234   2.830  20.767  0.00  0.00    +0.000 C 
ATOM      9  C   UNL     1       2.411   3.646  21.294  0.00  0.00    +0.000 C 
ATOM     10  C   UNL     1       2.606   4.991  20.596  0.00  0.00    +0.000 C 
ATOM     11  O   UNL     1       3.877   4.066  18.775  0.00  0.00    +0.000 OA
ATOM     12  C   UNL     1       4.904   4.752  18.213  0.00  0.00    +0.000 C 
ATOM     13  O   UNL     1       5.975   4.277  17.897  0.00  0.00    +0.000 OA
ENDROOT
BRANCH   3  14
ATOM     14  C   UNL     1       2.510   7.546  18.465  0.00  0.00    +0.000 C 
ATOM     15  O   UNL     1       2.536   8.187  17.421  0.00  0.00    +0.000 OA
ATOM     16  N   UNL     1       1.848   7.966  19.600  0.00  0.00    +0.000 N 
ATOM     17  H   UNL     1       1.987   7.491  20.476  0.00  0.00    +0.000 HD
BRANCH  16  18
ATOM     18  C   UNL     1       1.103   9.170  19.687  0.00  0.00    +0.000 A 
ATOM     19  C   UNL     1       0.636   9.850  18.556  0.00  0.00    +0.000 A 
ATOM     20  C   UNL     1      -0.044  11.061  18.667  0.00  0.00    +0.000 A 
ATOM     21  C   UNL     1      -0.263  11.612  19.921  0.00  0.00    +0.000 A 
ATOM     22  C   UNL     1       0.177  10.932  21.050  0.00  0.00    +0.000 A 
ATOM     23  F   UNL     1      -0.021  11.473  22.258  0.00  0.00    +0.000 F 
ATOM     24  C   UNL     1       0.840   9.708  20.950  0.00  0.00    +0.000 A 
ENDBRANCH  16  18
ENDBRANCH   3  14
TORSDOF 2
ENDMDL
MODEL 7
REMARK VINA RESULT:      -7.6      1.575      1.636
REMARK  Name = 
REMARK  3 active torsions:
REMARK  status: ('A' for Active; 'I' for Inactive)
REMARK    1  A    between atoms: C_1  and  C_2
REMARK    2  A    between atoms: C_3  and  C_4
REMARK    3  A    between atoms: N_6  and  C_7
REMARK                            x       y       z     vdW  Elec       q    Type
REMARK                         _______ _______ _______ _____ _____    ______ ____
ROOT
ATOM      1  C   UNL     1       1.263   3.134  19.031  0.00  0.00    +0.000 C 
ATOM      2  C   UNL     1       2.512   3.862  18.677  0.00  0.00    +0.000 C 
ATOM      3  C   UNL     1       2.996   5.093  18.922  0.00  0.00    +0.000 C 
ATOM      4  C   UNL     1       4.351   5.260  18.308  0.00  0.00    +0.000 C 
ATOM      5  C   UNL     1       5.425   5.539  19.377  0.00  0.00    +0.000 C 
ATOM      6  C   UNL     1       6.851   5.072  19.079  0.00  0.00    +0.000 C 
ATOM      7  C   UNL     1       7.386   5.313  17.673  0.00  0.00    +0.000 C 
ATOM      8  C   UNL     1       6.871   6.584  17.008  0.00  0.00    +0.000 C 
ATOM      9  C   UNL     1       5.561   6.342  16.262  0.00  0.00    +0.000 C 
ATOM     10  C   UNL     1       4.326   6.294  17.160  0.00  0.00    +0.000 C 
ATOM     11  O   UNL     1       4.603   3.972  17.723  0.00  0.00    +0.000 OA
ATOM     12  C   UNL     1       3.532   3.156  17.895  0.00  0.00    +0.000 C 
ATOM     13  O   UNL     1       3.442   2.020  17.476  0.00  0.00    +0.000 OA
ENDROOT
BRANCH   3  14
ATOM     14  C   UNL     1       2.246   6.072  19.749  0.00  0.00    +0.000 C 
ATOM     15  O   UNL     1       1.670   5.671  20.754  0.00  0.00    +0.000 OA
ATOM     16  N   UNL     1       2.209   7.383  19.323  0.00  0.00    +0.000 N 
ATOM     17  H   UNL     1       2.559   7.633  18.412  0.00  0.00    +0.000 HD
BRANCH  16  18
ATOM     18  C   UNL     1       1.525   8.423  20.003  0.00  0.00    +0.000 A 
ATOM     19  C   UNL     1       1.011   9.545  19.341  0.00  0.00    +0.000 A 
ATOM     20  C   UNL     1       0.393  10.580  20.039  0.00  0.00    +0.000 A 
ATOM     21  C   UNL     1       0.285  10.506  21.420  0.00  0.00    +0.000 A 
ATOM     22  C   UNL     1       0.773   9.385  22.083  0.00  0.00    +0.000 A 
ATOM     23  F   UNL     1       0.682   9.324  23.417  0.00  0.00    +0.000 F 
ATOM     24  C   UNL     1       1.373   8.335  21.390  0.00  0.00    +0.000 A 
ENDBRANCH  16  18
ENDBRANCH   3  14
TORSDOF 2
ENDMDL
MODEL 8
REMARK VINA RESULT:      -7.6      1.679      1.966
REMARK  Name = 
REMARK  3 active torsions:
REMARK  status: ('A' for Active; 'I' for Inactive)
REMARK    1  A    between atoms: C_1  and  C_2
REMARK    2  A    between atoms: C_3  and  C_4
REMARK    3  A    between atoms: N_6  and  C_7
REMARK                            x       y       z     vdW  Elec       q    Type
REMARK                         _______ _______ _______ _____ _____    ______ ____
ROOT
ATOM      1  C   UNL     1       1.150   3.007  19.314  0.00  0.00    +0.000 C 
ATOM      2  C   UNL     1       2.376   3.722  18.869  0.00  0.00    +0.000 C 
ATOM      3  C   UNL     1       2.870   4.961  19.046  0.00  0.00    +0.000 C 
ATOM      4  C   UNL     1       4.189   5.108  18.354  0.00  0.00    +0.000 C 
ATOM      5  C   UNL     1       5.319   5.423  19.355  0.00  0.00    +0.000 C 
ATOM      6  C   UNL     1       6.727   4.947  18.995  0.00  0.00    +0.000 C 
ATOM      7  C   UNL     1       7.186   5.141  17.555  0.00  0.00    +0.000 C 
ATOM      8  C   UNL     1       6.633   6.389  16.877  0.00  0.00    +0.000 C 
ATOM      9  C   UNL     1       5.286   6.122  16.212  0.00  0.00    +0.000 C 
ATOM     10  C   UNL     1       4.101   6.103  17.176  0.00  0.00    +0.000 C 
ATOM     11  O   UNL     1       4.412   3.801  17.800  0.00  0.00    +0.000 OA
ATOM     12  C   UNL     1       3.354   2.991  18.056  0.00  0.00    +0.000 C 
ATOM     13  O   UNL     1       3.243   1.843  17.681  0.00  0.00    +0.000 OA
ENDROOT
BRANCH   3  14
ATOM     14  C   UNL     1       2.164   5.967  19.880  0.00  0.00    +0.000 C 
ATOM     15  O   UNL     1       1.559   5.584  20.874  0.00  0.00    +0.000 OA
ATOM     16  N   UNL     1       2.197   7.284  19.470  0.00  0.00    +0.000 N 
ATOM     17  H   UNL     1       2.568   7.527  18.565  0.00  0.00    +0.000 HD
BRANCH  16  18
ATOM     18  C   UNL     1       1.561   8.349  20.157  0.00  0.00    +0.000 A 
ATOM     19  C   UNL     1       1.432   8.373  21.551  0.00  0.00    +0.000 A 
ATOM     20  C   UNL     1       0.751   9.403  22.199  0.00  0.00    +0.000 A 
ATOM     21  C   UNL     1       0.185  10.426  21.453  0.00  0.00    +0.000 A 
ATOM     22  C   UNL     1       0.328  10.420  20.070  0.00  0.00    +0.000 A 
ATOM     23  F   UNL     1      -0.233  11.400  19.351  0.00  0.00    +0.000 F 
ATOM     24  C   UNL     1       1.026   9.405  19.415  0.00  0.00    +0.000 A 
ENDBRANCH  16  18
ENDBRANCH   3  14
TORSDOF 2
ENDMDL
MODEL 9
REMARK VINA RESULT:      -7.5      1.549      1.854
REMARK  Name = 
REMARK  3 active torsions:
REMARK  status: ('A' for Active; 'I' for Inactive)
REMARK    1  A    between atoms: C_1  and  C_2
REMARK    2  A    between atoms: C_3  and  C_4
REMARK    3  A    between atoms: N_6  and  C_7
REMARK                            x       y       z     vdW  Elec       q    Type
REMARK                         _______ _______ _______ _____ _____    ______ ____
ROOT
ATOM      1  C   UNL     1       1.166   3.627  18.782  0.00  0.00    +0.000 C 
ATOM      2  C   UNL     1       2.525   4.103  18.409  0.00  0.00    +0.000 C 
ATOM      3  C   UNL     1       3.111   5.309  18.291  0.00  0.00    +0.000 C 
ATOM      4  C   UNL     1       4.545   5.164  17.887  0.00  0.00    +0.000 C 
ATOM      5  C   UNL     1       5.493   5.740  18.957  0.00  0.00    +0.000 C 
ATOM      6  C   UNL     1       6.883   5.112  19.074  0.00  0.00    +0.000 C 
ATOM      7  C   UNL     1       7.623   4.803  17.779  0.00  0.00    +0.000 C 
ATOM      8  C   UNL     1       7.349   5.781  16.643  0.00  0.00    +0.000 C 
ATOM      9  C   UNL     1       6.130   5.369  15.822  0.00  0.00    +0.000 C 
ATOM     10  C   UNL     1       4.790   5.719  16.467  0.00  0.00    +0.000 C 
ATOM     11  O   UNL     1       4.723   3.739  17.831  0.00  0.00    +0.000 OA
ATOM     12  C   UNL     1       3.552   3.104  18.094  0.00  0.00    +0.000 C 
ATOM     13  O   UNL     1       3.389   1.902  18.082  0.00  0.00    +0.000 OA
ENDROOT
BRANCH   3  14
ATOM     14  C   UNL     1       2.375   6.562  18.597  0.00  0.00    +0.000 C 
ATOM     15  O   UNL     1       1.900   7.205  17.668  0.00  0.00    +0.000 OA
ATOM     16  N   UNL     1       2.295   6.958  19.916  0.00  0.00    +0.000 N 
ATOM     17  H   UNL     1       2.836   6.487  20.623  0.00  0.00    +0.000 HD
BRANCH  16  18
ATOM     18  C   UNL     1       1.637   8.135  20.356  0.00  0.00    +0.000 A 
ATOM     19  C   UNL     1       1.224   8.315  21.682  0.00  0.00    +0.000 A 
ATOM     20  C   UNL     1       0.527   9.456  22.076  0.00  0.00    +0.000 A 
ATOM     21  C   UNL     1       0.231  10.436  21.140  0.00  0.00    +0.000 A 
ATOM     22  C   UNL     1       0.658  10.275  19.827  0.00  0.00    +0.000 A 
ATOM     23  F   UNL     1       0.357  11.214  18.922  0.00  0.00    +0.000 F 
ATOM     24  C   UNL     1       1.374   9.146  19.428  0.00  0.00    +0.000 A 
ENDBRANCH  16  18
ENDBRANCH   3  14
TORSDOF 2
ENDMDL
