MODEL 1
REMARK VINA RESULT:      -7.4      0.000      0.000
REMARK  Name = 
REMARK  8 active torsions:
REMARK  status: ('A' for Active; 'I' for Inactive)
REMARK    1  A    between atoms: C_1  and  C_2
REMARK    2  A    between atoms: C_2  and  C_3
REMARK    3  A    between atoms: C_3  and  C_4
REMARK    4  A    between atoms: C_4  and  C_5
REMARK    5  A    between atoms: C_7  and  C_8
REMARK    6  A    between atoms: C_11  and  C_12
REMARK    7  A    between atoms: C_12  and  O_14
REMARK    8  A    between atoms: O_14  and  C_15
REMARK                            x       y       z     vdW  Elec       q    Type
REMARK                         _______ _______ _______ _____ _____    ______ ____
ROOT
ATOM      1  C   UNL     1       6.395   4.365  15.159  0.00  0.00    +0.000 C 
ATOM      2  C   UNL     1       5.245   4.635  15.791  0.00  0.00    +0.000 C 
ATOM      3  C   UNL     1       5.517   4.889  17.243  0.00  0.00    +0.000 C 
ATOM      4  C   UNL     1       7.004   4.735  17.146  0.00  0.00    +0.000 C 
ATOM      5 CL   UNL     1       7.996   4.964  18.502  0.00  0.00    +0.000 Cl
ATOM      6  N   UNL     1       7.489   4.427  15.984  0.00  0.00    +0.000 NA
ENDROOT
BRANCH   3   7
ATOM      7  C   UNL     1       4.857   3.872  18.131  0.00  0.00    +0.000 C 
ATOM      8  N   UNL     1       5.208   3.727  19.365  0.00  0.00    +0.000 NA
ATOM      9  O   UNL     1       4.413   2.702  19.920  0.00  0.00    +0.000 OA
ATOM     10  C   UNL     1       3.573   2.140  18.909  0.00  0.00    +0.000 C 
ATOM     11  C   UNL     1       3.796   2.951  17.656  0.00  0.00    +0.000 C 
BRANCH  10  12
ATOM     12  C   UNL     1       2.116   2.170  19.356  0.00  0.00    +0.000 C 
ATOM     13  O   UNL     1       1.140   2.081  18.625  0.00  0.00    +0.000 OA
BRANCH  12  14
ATOM     14  O   UNL     1       2.047   2.328  20.714  0.00  0.00    +0.000 OA
ATOM     15  C   UNL     1       1.295   3.473  21.119  0.00  0.00    +0.000 C 
ENDBRANCH  12  14
ENDBRANCH  10  12
ENDBRANCH   3   7
BRANCH   1  16
ATOM     16  C   UNL     1       6.566   4.039  13.707  0.00  0.00    +0.000 C 
BRANCH  16  17
ATOM     17  C   UNL     1       5.224   4.035  12.971  0.00  0.00    +0.000 C 
BRANCH  17  19
ATOM     18  C   UNL     1       3.916   3.113  11.034  0.00  0.00    +0.000 C 
ATOM     19  C   UNL     1       5.219   3.037  11.815  0.00  0.00    +0.000 C 
ENDBRANCH  17  19
ENDBRANCH  16  17
ENDBRANCH   1  16
TORSDOF 6
ENDMDL
MODEL 2
REMARK VINA RESULT:      -7.2      1.037      1.266
REMARK  Name = 
REMARK  8 active torsions:
REMARK  status: ('A' for Active; 'I' for Inactive)
REMARK    1  A    between atoms: C_1  and  C_2
REMARK    2  A    between atoms: C_2  and  C_3
REMARK    3  A    between atoms: C_3  and  C_4
REMARK    4  A    between atoms: C_4  and  C_5
REMARK    5  A    between atoms: C_7  and  C_8
REMARK    6  A    between atoms: C_11  and  C_12
REMARK    7  A    between atoms: C_12  and  O_14
REMARK    8  A    between atoms: O_14  and  C_15
REMARK                            x       y       z     vdW  Elec       q    Type
REMARK                         _______ _______ _______ _____ _____    ______ ____
ROOT
ATOM      1  C   UNL     1       6.494   4.922  14.785  0.00  0.00    +0.000 C 
ATOM      2  C   UNL     1       5.294   4.889  15.380  0.00  0.00    +0.000 C 
ATOM      3  C   UNL     1       5.402   5.457  16.762  0.00  0.00    +0.000 C 
ATOM      4  C   UNL     1       6.857   5.801  16.669  0.00  0.00    +0.000 C 
ATOM      5 CL   UNL     1       7.655   6.574  17.950  0.00  0.00    +0.000 Cl
ATOM      6  N   UNL     1       7.467   5.485  15.570  0.00  0.00    +0.000 NA
ENDROOT
BRANCH   3   7
ATOM      7  C   UNL     1       5.083   4.441  17.821  0.00  0.00    +0.000 C 
ATOM      8  N   UNL     1       5.766   4.371  18.915  0.00  0.00    +0.000 NA
ATOM      9  O   UNL     1       5.228   3.323  19.691  0.00  0.00    +0.000 OA
ATOM     10  C   UNL     1       4.187   2.667  18.964  0.00  0.00    +0.000 C 
ATOM     11  C   UNL     1       4.002   3.436  17.678  0.00  0.00    +0.000 C 
BRANCH  10  12
ATOM     12  C   UNL     1       2.908   2.625  19.793  0.00  0.00    +0.000 C 
ATOM     13  O   UNL     1       2.727   3.192  20.861  0.00  0.00    +0.000 OA
BRANCH  12  14
ATOM     14  O   UNL     1       1.976   1.838  19.173  0.00  0.00    +0.000 OA
ATOM     15  C   UNL     1       0.732   2.501  18.938  0.00  0.00    +0.000 C 
ENDBRANCH  12  14
ENDBRANCH  10  12
ENDBRANCH   3   7
BRANCH   1  16
ATOM     16  C   UNL     1       6.827   4.435  13.408  0.00  0.00    +0.000 C 
BRANCH  16  17
ATOM     17  C   UNL     1       5.842   3.363  12.938  0.00  0.00    +0.000 C 
BRANCH  17  19
ATOM     18  C   UNL     1       3.990   3.109  11.258  0.00  0.00    +0.000 C 
ATOM     19  C   UNL     1       5.416   3.585  11.488  0.00  0.00    +0.000 C 
ENDBRANCH  17  19
ENDBRANCH  16  17
ENDBRANCH   1  16
TORSDOF 6
ENDMDL
MODEL 3
REMARK VINA RESULT:      -7.2      1.773      2.082
REMARK  Name = 
REMARK  8 active torsions:
REMARK  status: ('A' for Active; 'I' for Inactive)
REMARK    1  A    between atoms: C_1  and  C_2
REMARK    2  A    between atoms: C_2  and  C_3
REMARK    3  A    between atoms: C_3  and  C_4
REMARK    4  A    between atoms: C_4  and  C_5
REMARK    5  A    between atoms: C_7  and  C_8
REMARK    6  A    between atoms: C_11  and  C_12
REMARK    7  A    between atoms: C_12  and  O_14
REMARK    8  A    between atoms: O_14  and  C_15
REMARK                            x       y       z     vdW  Elec       q    Type
REMARK                         _______ _______ _______ _____ _____    ______ ____
ROOT
ATOM      1  C   UNL     1       6.519   5.131  15.392  0.00  0.00    +0.000 C 
ATOM      2  C   UNL     1       5.420   5.851  15.651  0.00  0.00    +0.000 C 
ATOM      3  C   UNL     1       5.580   6.562  16.960  0.00  0.00    +0.000 C 
ATOM      4  C   UNL     1       6.971   6.074  17.226  0.00  0.00    +0.000 C 
ATOM      5 CL   UNL     1       7.824   6.575  18.603  0.00  0.00    +0.000 Cl
ATOM      6  N   UNL     1       7.486   5.262  16.356  0.00  0.00    +0.000 NA
ENDROOT
BRANCH   3   7
ATOM      7  C   UNL     1       4.572   6.111  17.978  0.00  0.00    +0.000 C 
ATOM      8  N   UNL     1       3.366   6.571  17.982  0.00  0.00    +0.000 NA
ATOM      9  O   UNL     1       2.677   5.963  19.052  0.00  0.00    +0.000 OA
ATOM     10  C   UNL     1       3.571   5.129  19.792  0.00  0.00    +0.000 C 
ATOM     11  C   UNL     1       4.891   5.147  19.060  0.00  0.00    +0.000 C 
BRANCH  10  12
ATOM     12  C   UNL     1       3.003   3.720  19.910  0.00  0.00    +0.000 C 
ATOM     13  O   UNL     1       3.655   2.689  19.995  0.00  0.00    +0.000 OA
BRANCH  12  14
ATOM     14  O   UNL     1       1.635   3.764  19.894  0.00  0.00    +0.000 OA
ATOM     15  C   UNL     1       1.043   2.826  18.993  0.00  0.00    +0.000 C 
ENDBRANCH  12  14
ENDBRANCH  10  12
ENDBRANCH   3   7
BRANCH   1  16
ATOM     16  C   UNL     1       6.762   4.261  14.197  0.00  0.00    +0.000 C 
BRANCH  16  17
ATOM     17  C   UNL     1       5.448   3.810  13.555  0.00  0.00    +0.000 C 
BRANCH  17  19
ATOM     18  C   UNL     1       4.346   3.197  11.381  0.00  0.00    +0.000 C 
ATOM     19  C   UNL     1       5.664   3.293  12.133  0.00  0.00    +0.000 C 
ENDBRANCH  17  19
ENDBRANCH  16  17
ENDBRANCH   1  16
TORSDOF 6
ENDMDL
MODEL 4
REMARK VINA RESULT:      -7.2      1.803      2.024
REMARK  Name = 
REMARK  8 active torsions:
REMARK  status: ('A' for Active; 'I' for Inactive)
REMARK    1  A    between atoms: C_1  and  C_2
REMARK    2  A    between atoms: C_2  and  C_3
REMARK    3  A    between atoms: C_3  and  C_4
REMARK    4  A    between atoms: C_4  and  C_5
REMARK    5  A    between atoms: C_7  and  C_8
REMARK    6  A    between atoms: C_11  and  C_12
REMARK    7  A    between atoms: C_12  and  O_14
REMARK    8  A    between atoms: O_14  and  C_15
REMARK                            x       y       z     vdW  Elec       q    Type
REMARK                         _______ _______ _______ _____ _____    ______ ____
ROOT
ATOM      1  C   UNL     1       6.438   5.251  15.159  0.00  0.00    +0.000 C 
ATOM      2  C   UNL     1       5.226   5.660  15.558  0.00  0.00    +0.000 C 
ATOM      3  C   UNL     1       5.349   6.420  16.843  0.00  0.00    +0.000 C 
ATOM      4  C   UNL     1       6.842   6.325  16.931  0.00  0.00    +0.000 C 
ATOM      5 CL   UNL     1       7.690   7.068  18.197  0.00  0.00    +0.000 Cl
ATOM      6  N   UNL     1       7.445   5.658  15.998  0.00  0.00    +0.000 NA
ENDROOT
BRANCH   3   7
ATOM      7  C   UNL     1       4.629   5.743  17.974  0.00  0.00    +0.000 C 
ATOM      8  N   UNL     1       5.242   5.410  19.060  0.00  0.00    +0.000 NA
ATOM      9  O   UNL     1       4.302   4.796  19.915  0.00  0.00    +0.000 OA
ATOM     10  C   UNL     1       3.042   4.688  19.249  0.00  0.00    +0.000 C 
ATOM     11  C   UNL     1       3.191   5.380  17.916  0.00  0.00    +0.000 C 
BRANCH  10  12
ATOM     12  C   UNL     1       1.941   5.314  20.097  0.00  0.00    +0.000 C 
ATOM     13  O   UNL     1       1.897   6.477  20.471  0.00  0.00    +0.000 OA
BRANCH  12  14
ATOM     14  O   UNL     1       0.995   4.373  20.402  0.00  0.00    +0.000 OA
ATOM     15  C   UNL     1       1.516   3.246  21.109  0.00  0.00    +0.000 C 
ENDBRANCH  12  14
ENDBRANCH  10  12
ENDBRANCH   3   7
BRANCH   1  16
ATOM     16  C   UNL     1       6.758   4.448  13.936  0.00  0.00    +0.000 C 
BRANCH  16  17
ATOM     17  C   UNL     1       5.557   3.615  13.482  0.00  0.00    +0.000 C 
BRANCH  17  19
ATOM     18  C   UNL     1       4.268   3.194  11.366  0.00  0.00    +0.000 C 
ATOM     19  C   UNL     1       5.649   3.255  12.000  0.00  0.00    +0.000 C 
ENDBRANCH  17  19
ENDBRANCH  16  17
ENDBRANCH   1  16
TORSDOF 6
ENDMDL
MODEL 5
REMARK VINA RESULT:      -7.2      1.248      1.331
REMARK  Name = 
REMARK  8 active torsions:
REMARK  status: ('A' for Active; 'I' for Inactive)
REMARK    1  A    between atoms: C_1  and  C_2
REMARK    2  A    between atoms: C_2  and  C_3
REMARK    3  A    between atoms: C_3  and  C_4
REMARK    4  A    between atoms: C_4  and  C_5
REMARK    5  A    between atoms: C_7  and  C_8
REMARK    6  A    between atoms: C_11  and  C_12
REMARK    7  A    between atoms: C_12  and  O_14
REMARK    8  A    between atoms: O_14  and  C_15
REMARK                            x       y       z     vdW  Elec       q    Type
REMARK                         _______ _______ _______ _____ _____    ______ ____
ROOT
ATOM      1  C   UNL     1       6.381   5.050  15.215  0.00  0.00    +0.000 C 
ATOM      2  C   UNL     1       5.209   5.087  15.862  0.00  0.00    +0.000 C 
ATOM      3  C   UNL     1       5.416   5.615  17.249  0.00  0.00    +0.000 C 
ATOM      4  C   UNL     1       6.886   5.859  17.099  0.00  0.00    +0.000 C 
ATOM      5 CL   UNL     1       7.791   6.544  18.358  0.00  0.00    +0.000 Cl
ATOM      6  N   UNL     1       7.425   5.526  15.967  0.00  0.00    +0.000 NA
ENDROOT
BRANCH   3   7
ATOM      7  C   UNL     1       5.072   4.600  18.301  0.00  0.00    +0.000 C 
ATOM      8  N   UNL     1       5.942   4.210  19.171  0.00  0.00    +0.000 NA
ATOM      9  O   UNL     1       5.318   3.259  20.006  0.00  0.00    +0.000 OA
ATOM     10  C   UNL     1       3.988   3.009  19.546  0.00  0.00    +0.000 C 
ATOM     11  C   UNL     1       3.739   3.954  18.396  0.00  0.00    +0.000 C 
BRANCH  10  12
ATOM     12  C   UNL     1       2.989   3.213  20.679  0.00  0.00    +0.000 C 
ATOM     13  O   UNL     1       2.756   2.422  21.581  0.00  0.00    +0.000 OA
BRANCH  12  14
ATOM     14  O   UNL     1       2.363   4.422  20.537  0.00  0.00    +0.000 OA
ATOM     15  C   UNL     1       0.941   4.323  20.446  0.00  0.00    +0.000 C 
ENDBRANCH  12  14
ENDBRANCH  10  12
ENDBRANCH   3   7
BRANCH   1  16
ATOM     16  C   UNL     1       6.620   4.573  13.816  0.00  0.00    +0.000 C 
BRANCH  16  17
ATOM     17  C   UNL     1       5.496   3.652  13.337  0.00  0.00    +0.000 C 
BRANCH  17  19
ATOM     18  C   UNL     1       4.260   3.148  11.208  0.00  0.00    +0.000 C 
ATOM     19  C   UNL     1       5.627   3.329  11.850  0.00  0.00    +0.000 C 
ENDBRANCH  17  19
ENDBRANCH  16  17
ENDBRANCH   1  16
TORSDOF 6
ENDMDL
MODEL 6
REMARK VINA RESULT:      -7.2      1.098      1.247
REMARK  Name = 
REMARK  8 active torsions:
REMARK  status: ('A' for Active; 'I' for Inactive)
REMARK    1  A    between atoms: C_1  and  C_2
REMARK    2  A    between atoms: C_2  and  C_3
REMARK    3  A    between atoms: C_3  and  C_4
REMARK    4  A    between atoms: C_4  and  C_5
REMARK    5  A    between atoms: C_7  and  C_8
REMARK    6  A    between atoms: C_11  and  C_12
REMARK    7  A    between atoms: C_12  and  O_14
REMARK    8  A    between atoms: O_14  and  C_15
REMARK                            x       y       z     vdW  Elec       q    Type
REMARK                         _______ _______ _______ _____ _____    ______ ____
ROOT
ATOM      1  C   UNL     1       6.506   4.461  14.455  0.00  0.00    +0.000 C 
ATOM      2  C   UNL     1       5.292   4.446  15.020  0.00  0.00    +0.000 C 
ATOM      3  C   UNL     1       5.345   5.143  16.345  0.00  0.00    +0.000 C 
ATOM      4  C   UNL     1       6.792   5.521  16.258  0.00  0.00    +0.000 C 
ATOM      5 CL   UNL     1       7.531   6.432  17.482  0.00  0.00    +0.000 Cl
ATOM      6  N   UNL     1       7.441   5.123  15.209  0.00  0.00    +0.000 NA
ENDROOT
BRANCH   3   7
ATOM      7  C   UNL     1       5.024   4.220  17.486  0.00  0.00    +0.000 C 
ATOM      8  N   UNL     1       5.688   4.260  18.592  0.00  0.00    +0.000 NA
ATOM      9  O   UNL     1       5.154   3.276  19.451  0.00  0.00    +0.000 OA
ATOM     10  C   UNL     1       4.137   2.539  18.768  0.00  0.00    +0.000 C 
ATOM     11  C   UNL     1       3.962   3.187  17.416  0.00  0.00    +0.000 C 
BRANCH  10  12
ATOM     12  C   UNL     1       2.845   2.548  19.577  0.00  0.00    +0.000 C 
ATOM     13  O   UNL     1       1.746   2.190  19.177  0.00  0.00    +0.000 OA
BRANCH  12  14
ATOM     14  O   UNL     1       3.084   3.037  20.833  0.00  0.00    +0.000 OA
ATOM     15  C   UNL     1       1.959   2.936  21.709  0.00  0.00    +0.000 C 
ENDBRANCH  12  14
ENDBRANCH  10  12
ENDBRANCH   3   7
BRANCH   1  16
ATOM     16  C   UNL     1       6.892   3.859  13.139  0.00  0.00    +0.000 C 
BRANCH  16  17
ATOM     17  C   UNL     1       5.661   3.505  12.302  0.00  0.00    +0.000 C 
BRANCH  17  19
ATOM     18  C   UNL     1       7.079   1.892  10.998  0.00  0.00    +0.000 C 
ATOM     19  C   UNL     1       5.758   2.094  11.725  0.00  0.00    +0.000 C 
ENDBRANCH  17  19
ENDBRANCH  16  17
ENDBRANCH   1  16
TORSDOF 6
ENDMDL
MODEL 7
REMARK VINA RESULT:      -7.2      1.118      1.440
REMARK  Name = 
REMARK  8 active torsions:
REMARK  status: ('A' for Active; 'I' for Inactive)
REMARK    1  A    between atoms: C_1  and  C_2
REMARK    2  A    between atoms: C_2  and  C_3
REMARK    3  A    between atoms: C_3  and  C_4
REMARK    4  A    between atoms: C_4  and  C_5
REMARK    5  A    between atoms: C_7  and  C_8
REMARK    6  A    between atoms: C_11  and  C_12
REMARK    7  A    between atoms: C_12  and  O_14
REMARK    8  A    between atoms: O_14  and  C_15
REMARK                            x       y       z     vdW  Elec       q    Type
REMARK                         _______ _______ _______ _____ _____    ______ ____
ROOT
ATOM      1  C   UNL     1       6.587   4.723  15.570  0.00  0.00    +0.000 C 
ATOM      2  C   UNL     1       5.426   5.173  16.064  0.00  0.00    +0.000 C 
ATOM      3  C   UNL     1       5.586   5.488  17.520  0.00  0.00    +0.000 C 
ATOM      4  C   UNL     1       7.044   5.148  17.587  0.00  0.00    +0.000 C 
ATOM      5 CL   UNL     1       7.921   5.343  19.024  0.00  0.00    +0.000 Cl
ATOM      6  N   UNL     1       7.595   4.705  16.500  0.00  0.00    +0.000 NA
ENDROOT
BRANCH   3   7
ATOM      7  C   UNL     1       4.718   4.622  18.388  0.00  0.00    +0.000 C 
ATOM      8  N   UNL     1       5.227   3.818  19.260  0.00  0.00    +0.000 NA
ATOM      9  O   UNL     1       4.163   3.150  19.902  0.00  0.00    +0.000 OA
ATOM     10  C   UNL     1       2.922   3.536  19.308  0.00  0.00    +0.000 C 
ATOM     11  C   UNL     1       3.239   4.600  18.286  0.00  0.00    +0.000 C 
BRANCH  10  12
ATOM     12  C   UNL     1       1.957   4.039  20.375  0.00  0.00    +0.000 C 
ATOM     13  O   UNL     1       2.227   4.825  21.272  0.00  0.00    +0.000 OA
BRANCH  12  14
ATOM     14  O   UNL     1       0.726   3.467  20.200  0.00  0.00    +0.000 OA
ATOM     15  C   UNL     1       0.695   2.484  19.163  0.00  0.00    +0.000 C 
ENDBRANCH  12  14
ENDBRANCH  10  12
ENDBRANCH   3   7
BRANCH   1  16
ATOM     16  C   UNL     1       6.854   4.281  14.165  0.00  0.00    +0.000 C 
BRANCH  16  17
ATOM     17  C   UNL     1       5.555   4.119  13.371  0.00  0.00    +0.000 C 
BRANCH  17  19
ATOM     18  C   UNL     1       4.454   3.080  11.365  0.00  0.00    +0.000 C 
ATOM     19  C   UNL     1       5.754   3.237  12.139  0.00  0.00    +0.000 C 
ENDBRANCH  17  19
ENDBRANCH  16  17
ENDBRANCH   1  16
TORSDOF 6
ENDMDL
MODEL 8
REMARK VINA RESULT:      -7.1      1.497      2.054
REMARK  Name = 
REMARK  8 active torsions:
REMARK  status: ('A' for Active; 'I' for Inactive)
REMARK    1  A    between atoms: C_1  and  C_2
REMARK    2  A    between atoms: C_2  and  C_3
REMARK    3  A    between atoms: C_3  and  C_4
REMARK    4  A    between atoms: C_4  and  C_5
REMARK    5  A    between atoms: C_7  and  C_8
REMARK    6  A    between atoms: C_11  and  C_12
REMARK    7  A    between atoms: C_12  and  O_14
REMARK    8  A    between atoms: O_14  and  C_15
REMARK                            x       y       z     vdW  Elec       q    Type
REMARK                         _______ _______ _______ _____ _____    ______ ____
ROOT
ATOM      1  C   UNL     1       6.580   5.176  15.413  0.00  0.00    +0.000 C 
ATOM      2  C   UNL     1       5.511   5.876  15.816  0.00  0.00    +0.000 C 
ATOM      3  C   UNL     1       5.653   6.223  17.266  0.00  0.00    +0.000 C 
ATOM      4  C   UNL     1       7.004   5.599  17.438  0.00  0.00    +0.000 C 
ATOM      5 CL   UNL     1       7.823   5.683  18.920  0.00  0.00    +0.000 Cl
ATOM      6  N   UNL     1       7.511   5.000  16.406  0.00  0.00    +0.000 NA
ENDROOT
BRANCH   3   7
ATOM      7  C   UNL     1       4.580   5.595  18.109  0.00  0.00    +0.000 C 
ATOM      8  N   UNL     1       3.359   5.517  17.697  0.00  0.00    +0.000 NA
ATOM      9  O   UNL     1       2.603   4.886  18.708  0.00  0.00    +0.000 OA
ATOM     10  C   UNL     1       3.431   4.638  19.847  0.00  0.00    +0.000 C 
ATOM     11  C   UNL     1       4.831   5.058  19.469  0.00  0.00    +0.000 C 
BRANCH  10  12
ATOM     12  C   UNL     1       3.363   3.167  20.239  0.00  0.00    +0.000 C 
ATOM     13  O   UNL     1       2.684   2.696  21.140  0.00  0.00    +0.000 OA
BRANCH  12  14
ATOM     14  O   UNL     1       4.195   2.431  19.439  0.00  0.00    +0.000 OA
ATOM     15  C   UNL     1       3.503   1.625  18.483  0.00  0.00    +0.000 C 
ENDBRANCH  12  14
ENDBRANCH  10  12
ENDBRANCH   3   7
BRANCH   1  16
ATOM     16  C   UNL     1       6.827   4.621  14.045  0.00  0.00    +0.000 C 
BRANCH  16  17
ATOM     17  C   UNL     1       5.650   3.770  13.564  0.00  0.00    +0.000 C 
BRANCH  17  19
ATOM     18  C   UNL     1       4.488   3.143  11.426  0.00  0.00    +0.000 C 
ATOM     19  C   UNL     1       5.832   3.325  12.113  0.00  0.00    +0.000 C 
ENDBRANCH  17  19
ENDBRANCH  16  17
ENDBRANCH   1  16
TORSDOF 6
ENDMDL
MODEL 9
REMARK VINA RESULT:      -7.1      1.687      1.838
REMARK  Name = 
REMARK  8 active torsions:
REMARK  status: ('A' for Active; 'I' for Inactive)
REMARK    1  A    between atoms: C_1  and  C_2
REMARK    2  A    between atoms: C_2  and  C_3
REMARK    3  A    between atoms: C_3  and  C_4
REMARK    4  A    between atoms: C_4  and  C_5
REMARK    5  A    between atoms: C_7  and  C_8
REMARK    6  A    between atoms: C_11  and  C_12
REMARK    7  A    between atoms: C_12  and  O_14
REMARK    8  A    between atoms: O_14  and  C_15
REMARK                            x       y       z     vdW  Elec       q    Type
REMARK                         _______ _______ _______ _____ _____    ______ ____
ROOT
ATOM      1  C   UNL     1       6.499   5.098  15.677  0.00  0.00    +0.000 C 
ATOM      2  C   UNL     1       5.421   5.841  15.959  0.00  0.00    +0.000 C 
ATOM      3  C   UNL     1       5.471   6.277  17.392  0.00  0.00    +0.000 C 
ATOM      4  C   UNL     1       6.792   5.640  17.697  0.00  0.00    +0.000 C 
ATOM      5 CL   UNL     1       7.508   5.803  19.225  0.00  0.00    +0.000 Cl
ATOM      6  N   UNL     1       7.355   4.968  16.742  0.00  0.00    +0.000 NA
ENDROOT
BRANCH   3   7
ATOM      7  C   UNL     1       4.328   5.724  18.195  0.00  0.00    +0.000 C 
ATOM      8  N   UNL     1       3.434   6.496  18.714  0.00  0.00    +0.000 NA
ATOM      9  O   UNL     1       2.510   5.681  19.403  0.00  0.00    +0.000 OA
ATOM     10  C   UNL     1       2.935   4.318  19.351  0.00  0.00    +0.000 C 
ATOM     11  C   UNL     1       4.164   4.276  18.476  0.00  0.00    +0.000 C 
BRANCH  10  12
ATOM     12  C   UNL     1       1.817   3.436  18.806  0.00  0.00    +0.000 C 
ATOM     13  O   UNL     1       1.197   3.623  17.769  0.00  0.00    +0.000 OA
BRANCH  12  14
ATOM     14  O   UNL     1       1.587   2.392  19.662  0.00  0.00    +0.000 OA
ATOM     15  C   UNL     1       1.345   2.801  21.010  0.00  0.00    +0.000 C 
ENDBRANCH  12  14
ENDBRANCH  10  12
ENDBRANCH   3   7
BRANCH   1  16
ATOM     16  C   UNL     1       6.828   4.453  14.367  0.00  0.00    +0.000 C 
BRANCH  16  17
ATOM     17  C   UNL     1       5.579   3.872  13.699  0.00  0.00    +0.000 C 
BRANCH  17  19
ATOM     18  C   UNL     1       7.160   3.939  11.747  0.00  0.00    +0.000 C 
ATOM     19  C   UNL     1       5.889   3.322  12.308  0.00  0.00    +0.000 C 
ENDBRANCH  17  19
ENDBRANCH  16  17
ENDBRANCH   1  16
TORSDOF 6
ENDMDL
