MODEL 1
REMARK VINA RESULT:      -7.9      0.000      0.000
REMARK  Name = 
REMARK  4 active torsions:
REMARK  status: ('A' for Active; 'I' for Inactive)
REMARK    1  A    between atoms: C_1  and  N_2
REMARK    2  A    between atoms: N_2  and  C_3
REMARK    3  A    between atoms: C_7  and  C_8
REMARK    4  A    between atoms: N_20  and  C_21
REMARK                            x       y       z     vdW  Elec       q    Type
REMARK                         _______ _______ _______ _____ _____    ______ ____
ROOT
ATOM      1  C   UNL     1       2.952   6.175  19.247  0.00  0.00    +0.000 A 
ATOM      2  N   UNL     1       3.644   6.614  18.139  0.00  0.00    +0.000 NA
ATOM      3  C   UNL     1       4.202   5.658  17.382  0.00  0.00    +0.000 A 
ATOM      4  O   UNL     1       4.900   5.818  16.226  0.00  0.00    +0.000 OA
ATOM      5  C   UNL     1       5.201   4.526  15.834  0.00  0.00    +0.000 A 
ATOM      6  N   UNL     1       4.767   3.568  16.652  0.00  0.00    +0.000 NA
ATOM      7  C   UNL     1       4.147   4.310  17.609  0.00  0.00    +0.000 A 
ATOM      8  C   UNL     1       3.476   3.875  18.700  0.00  0.00    +0.000 A 
ATOM      9  C   UNL     1       2.870   4.775  19.547  0.00  0.00    +0.000 A 
ATOM     10  N   UNL     1       2.246   4.066  20.557  0.00  0.00    +0.000 NA
ATOM     11  C   UNL     1       2.500   2.794  20.298  0.00  0.00    +0.000 A 
ATOM     12  N   UNL     1       3.242   2.638  19.150  0.00  0.00    +0.000 N 
ATOM     13  C   UNL     1       3.640   1.383  18.568  0.00  0.00    +0.000 C 
ENDROOT
BRANCH   5  14
ATOM     14  C   UNL     1       5.903   4.406  14.556  0.00  0.00    +0.000 A 
ATOM     15  C   UNL     1       7.082   5.124  14.297  0.00  0.00    +0.000 A 
ATOM     16  C   UNL     1       7.719   5.032  13.057  0.00  0.00    +0.000 A 
ATOM     17  C   UNL     1       7.185   4.220  12.060  0.00  0.00    +0.000 A 
ATOM     18  C   UNL     1       6.022   3.492  12.304  0.00  0.00    +0.000 A 
ATOM     19  C   UNL     1       5.386   3.582  13.546  0.00  0.00    +0.000 A 
ENDBRANCH   5  14
BRANCH   1  21
ATOM     20  C   UNL     1       1.867   8.306  19.382  0.00  0.00    +0.000 C 
ATOM     21  N   UNL     1       2.309   7.110  20.071  0.00  0.00    +0.000 N 
ATOM     22  H   UNL     1       1.601   6.639  20.631  0.00  0.00    +0.000 HD
ENDBRANCH   1  21
TORSDOF 2
ENDMDL
MODEL 2
REMARK VINA RESULT:      -7.9      0.079      1.055
REMARK  Name = 
REMARK  4 active torsions:
REMARK  status: ('A' for Active; 'I' for Inactive)
REMARK    1  A    between atoms: C_1  and  N_2
REMARK    2  A    between atoms: N_2  and  C_3
REMARK    3  A    between atoms: C_7  and  C_8
REMARK    4  A    between atoms: N_20  and  C_21
REMARK                            x       y       z     vdW  Elec       q    Type
REMARK                         _______ _______ _______ _____ _____    ______ ____
ROOT
ATOM      1  C   UNL     1       2.914   6.166  19.299  0.00  0.00    +0.000 A 
ATOM      2  N   UNL     1       3.574   6.614  18.176  0.00  0.00    +0.000 NA
ATOM      3  C   UNL     1       4.132   5.666  17.409  0.00  0.00    +0.000 A 
ATOM      4  O   UNL     1       4.803   5.834  16.237  0.00  0.00    +0.000 OA
ATOM      5  C   UNL     1       5.117   4.547  15.843  0.00  0.00    +0.000 A 
ATOM      6  N   UNL     1       4.717   3.584  16.672  0.00  0.00    +0.000 NA
ATOM      7  C   UNL     1       4.104   4.317  17.640  0.00  0.00    +0.000 A 
ATOM      8  C   UNL     1       3.464   3.875  18.746  0.00  0.00    +0.000 A 
ATOM      9  C   UNL     1       2.862   4.766  19.603  0.00  0.00    +0.000 A 
ATOM     10  N   UNL     1       2.271   4.049  20.628  0.00  0.00    +0.000 NA
ATOM     11  C   UNL     1       2.541   2.781  20.367  0.00  0.00    +0.000 A 
ATOM     12  N   UNL     1       3.262   2.634  19.204  0.00  0.00    +0.000 N 
ATOM     13  C   UNL     1       3.668   1.384  18.616  0.00  0.00    +0.000 C 
ENDROOT
BRANCH   5  14
ATOM     14  C   UNL     1       5.794   4.435  14.550  0.00  0.00    +0.000 A 
ATOM     15  C   UNL     1       5.275   3.637  13.518  0.00  0.00    +0.000 A 
ATOM     16  C   UNL     1       5.953   3.506  12.303  0.00  0.00    +0.000 A 
ATOM     17  C   UNL     1       7.159   4.173  12.106  0.00  0.00    +0.000 A 
ATOM     18  C   UNL     1       7.682   4.978  13.115  0.00  0.00    +0.000 A 
ATOM     19  C   UNL     1       7.002   5.111  14.330  0.00  0.00    +0.000 A 
ENDBRANCH   5  14
BRANCH   1  21
ATOM     20  C   UNL     1       1.875   8.317  19.469  0.00  0.00    +0.000 C 
ATOM     21  N   UNL     1       2.272   7.092  20.134  0.00  0.00    +0.000 N 
ATOM     22  H   UNL     1       1.540   6.623  20.663  0.00  0.00    +0.000 HD
ENDBRANCH   1  21
TORSDOF 2
ENDMDL
MODEL 3
REMARK VINA RESULT:      -7.5      1.189      2.917
REMARK  Name = 
REMARK  4 active torsions:
REMARK  status: ('A' for Active; 'I' for Inactive)
REMARK    1  A    between atoms: C_1  and  N_2
REMARK    2  A    between atoms: N_2  and  C_3
REMARK    3  A    between atoms: C_7  and  C_8
REMARK    4  A    between atoms: N_20  and  C_21
REMARK                            x       y       z     vdW  Elec       q    Type
REMARK                         _______ _______ _______ _____ _____    ______ ____
ROOT
ATOM      1  C   UNL     1       3.325   3.521  19.757  0.00  0.00    +0.000 A 
ATOM      2  N   UNL     1       4.020   2.902  18.743  0.00  0.00    +0.000 NA
ATOM      3  C   UNL     1       4.322   3.669  17.686  0.00  0.00    +0.000 A 
ATOM      4  O   UNL     1       5.027   3.317  16.578  0.00  0.00    +0.000 OA
ATOM      5  C   UNL     1       5.091   4.482  15.836  0.00  0.00    +0.000 A 
ATOM      6  N   UNL     1       4.472   5.533  16.372  0.00  0.00    +0.000 NA
ATOM      7  C   UNL     1       4.003   4.991  17.528  0.00  0.00    +0.000 A 
ATOM      8  C   UNL     1       3.312   5.601  18.518  0.00  0.00    +0.000 A 
ATOM      9  C   UNL     1       2.949   4.901  19.645  0.00  0.00    +0.000 A 
ATOM     10  N   UNL     1       2.278   5.763  20.494  0.00  0.00    +0.000 NA
ATOM     11  C   UNL     1       2.250   6.923  19.859  0.00  0.00    +0.000 A 
ATOM     12  N   UNL     1       2.893   6.865  18.644  0.00  0.00    +0.000 N 
ATOM     13  C   UNL     1       3.083   7.967  17.737  0.00  0.00    +0.000 C 
ENDROOT
BRANCH   5  14
ATOM     14  C   UNL     1       5.871   4.396  14.601  0.00  0.00    +0.000 A 
ATOM     15  C   UNL     1       7.057   5.129  14.431  0.00  0.00    +0.000 A 
ATOM     16  C   UNL     1       7.770   5.070  13.231  0.00  0.00    +0.000 A 
ATOM     17  C   UNL     1       7.306   4.277  12.185  0.00  0.00    +0.000 A 
ATOM     18  C   UNL     1       6.137   3.535  12.341  0.00  0.00    +0.000 A 
ATOM     19  C   UNL     1       5.425   3.591  13.542  0.00  0.00    +0.000 A 
ENDBRANCH   5  14
BRANCH   1  21
ATOM     20  C   UNL     1       1.585   2.546  21.083  0.00  0.00    +0.000 C 
ATOM     21  N   UNL     1       3.002   2.796  20.914  0.00  0.00    +0.000 N 
ATOM     22  H   UNL     1       3.603   1.977  20.980  0.00  0.00    +0.000 HD
ENDBRANCH   1  21
TORSDOF 2
ENDMDL
MODEL 4
REMARK VINA RESULT:      -7.5      2.791      6.418
REMARK  Name = 
REMARK  4 active torsions:
REMARK  status: ('A' for Active; 'I' for Inactive)
REMARK    1  A    between atoms: C_1  and  N_2
REMARK    2  A    between atoms: N_2  and  C_3
REMARK    3  A    between atoms: C_7  and  C_8
REMARK    4  A    between atoms: N_20  and  C_21
REMARK                            x       y       z     vdW  Elec       q    Type
REMARK                         _______ _______ _______ _____ _____    ______ ____
ROOT
ATOM      1  C   UNL     1       5.238   4.551  17.935  0.00  0.00    +0.000 A 
ATOM      2  N   UNL     1       4.806   5.824  17.634  0.00  0.00    +0.000 NA
ATOM      3  C   UNL     1       3.774   6.278  18.360  0.00  0.00    +0.000 A 
ATOM      4  O   UNL     1       3.185   7.502  18.290  0.00  0.00    +0.000 OA
ATOM      5  C   UNL     1       2.219   7.467  19.278  0.00  0.00    +0.000 A 
ATOM      6  N   UNL     1       2.136   6.321  19.952  0.00  0.00    +0.000 NA
ATOM      7  C   UNL     1       3.122   5.600  19.354  0.00  0.00    +0.000 A 
ATOM      8  C   UNL     1       3.538   4.346  19.646  0.00  0.00    +0.000 A 
ATOM      9  C   UNL     1       4.587   3.784  18.957  0.00  0.00    +0.000 A 
ATOM     10  N   UNL     1       4.811   2.518  19.468  0.00  0.00    +0.000 NA
ATOM     11  C   UNL     1       3.904   2.360  20.417  0.00  0.00    +0.000 A 
ATOM     12  N   UNL     1       3.111   3.474  20.567  0.00  0.00    +0.000 N 
ATOM     13  C   UNL     1       2.068   3.642  21.545  0.00  0.00    +0.000 C 
ENDROOT
BRANCH   5  14
ATOM     14  C   UNL     1       1.470   8.710  19.467  0.00  0.00    +0.000 A 
ATOM     15  C   UNL     1       1.375   9.670  18.447  0.00  0.00    +0.000 A 
ATOM     16  C   UNL     1       0.692  10.872  18.656  0.00  0.00    +0.000 A 
ATOM     17  C   UNL     1       0.094  11.126  19.887  0.00  0.00    +0.000 A 
ATOM     18  C   UNL     1       0.169  10.179  20.906  0.00  0.00    +0.000 A 
ATOM     19  C   UNL     1       0.851   8.976  20.697  0.00  0.00    +0.000 A 
ENDBRANCH   5  14
BRANCH   1  21
ATOM     20  C   UNL     1       7.610   4.604  17.609  0.00  0.00    +0.000 C 
ATOM     21  N   UNL     1       6.336   4.016  17.246  0.00  0.00    +0.000 N 
ATOM     22  H   UNL     1       6.296   2.999  17.281  0.00  0.00    +0.000 HD
ENDBRANCH   1  21
TORSDOF 2
ENDMDL
MODEL 5
REMARK VINA RESULT:      -7.4      1.189      3.103
REMARK  Name = 
REMARK  4 active torsions:
REMARK  status: ('A' for Active; 'I' for Inactive)
REMARK    1  A    between atoms: C_1  and  N_2
REMARK    2  A    between atoms: N_2  and  C_3
REMARK    3  A    between atoms: C_7  and  C_8
REMARK    4  A    between atoms: N_20  and  C_21
REMARK                            x       y       z     vdW  Elec       q    Type
REMARK                         _______ _______ _______ _____ _____    ______ ____
ROOT
ATOM      1  C   UNL     1       3.305   3.516  19.744  0.00  0.00    +0.000 A 
ATOM      2  N   UNL     1       3.990   2.904  18.718  0.00  0.00    +0.000 NA
ATOM      3  C   UNL     1       4.285   3.681  17.665  0.00  0.00    +0.000 A 
ATOM      4  O   UNL     1       4.979   3.337  16.548  0.00  0.00    +0.000 OA
ATOM      5  C   UNL     1       5.040   4.508  15.816  0.00  0.00    +0.000 A 
ATOM      6  N   UNL     1       4.429   5.556  16.368  0.00  0.00    +0.000 NA
ATOM      7  C   UNL     1       3.968   5.005  17.523  0.00  0.00    +0.000 A 
ATOM      8  C   UNL     1       3.288   5.607  18.524  0.00  0.00    +0.000 A 
ATOM      9  C   UNL     1       2.932   4.898  19.648  0.00  0.00    +0.000 A 
ATOM     10  N   UNL     1       2.271   5.754  20.510  0.00  0.00    +0.000 NA
ATOM     11  C   UNL     1       2.241   6.920  19.886  0.00  0.00    +0.000 A 
ATOM     12  N   UNL     1       2.874   6.871  18.666  0.00  0.00    +0.000 N 
ATOM     13  C   UNL     1       3.059   7.981  17.767  0.00  0.00    +0.000 C 
ENDROOT
BRANCH   5  14
ATOM     14  C   UNL     1       5.810   4.432  14.574  0.00  0.00    +0.000 A 
ATOM     15  C   UNL     1       5.401   3.616  13.507  0.00  0.00    +0.000 A 
ATOM     16  C   UNL     1       6.168   3.520  12.343  0.00  0.00    +0.000 A 
ATOM     17  C   UNL     1       7.354   4.241  12.231  0.00  0.00    +0.000 A 
ATOM     18  C   UNL     1       7.768   5.065  13.276  0.00  0.00    +0.000 A 
ATOM     19  C   UNL     1       7.000   5.163  14.440  0.00  0.00    +0.000 A 
ENDBRANCH   5  14
BRANCH   1  21
ATOM     20  C   UNL     1       1.573   2.533  21.075  0.00  0.00    +0.000 C 
ATOM     21  N   UNL     1       2.990   2.781  20.896  0.00  0.00    +0.000 N 
ATOM     22  H   UNL     1       3.590   1.960  20.950  0.00  0.00    +0.000 HD
ENDBRANCH   1  21
TORSDOF 2
ENDMDL
MODEL 6
REMARK VINA RESULT:      -7.4      2.996      6.429
REMARK  Name = 
REMARK  4 active torsions:
REMARK  status: ('A' for Active; 'I' for Inactive)
REMARK    1  A    between atoms: C_1  and  N_2
REMARK    2  A    between atoms: N_2  and  C_3
REMARK    3  A    between atoms: C_7  and  C_8
REMARK    4  A    between atoms: N_20  and  C_21
REMARK                            x       y       z     vdW  Elec       q    Type
REMARK                         _______ _______ _______ _____ _____    ______ ____
ROOT
ATOM      1  C   UNL     1       5.368   4.460  18.350  0.00  0.00    +0.000 A 
ATOM      2  N   UNL     1       4.955   5.740  18.054  0.00  0.00    +0.000 NA
ATOM      3  C   UNL     1       3.850   6.160  18.687  0.00  0.00    +0.000 A 
ATOM      4  O   UNL     1       3.258   7.381  18.602  0.00  0.00    +0.000 OA
ATOM      5  C   UNL     1       2.198   7.302  19.485  0.00  0.00    +0.000 A 
ATOM      6  N   UNL     1       2.060   6.132  20.106  0.00  0.00    +0.000 NA
ATOM      7  C   UNL     1       3.109   5.441  19.585  0.00  0.00    +0.000 A 
ATOM      8  C   UNL     1       3.507   4.180  19.873  0.00  0.00    +0.000 A 
ATOM      9  C   UNL     1       4.626   3.651  19.273  0.00  0.00    +0.000 A 
ATOM     10  N   UNL     1       4.812   2.369  19.759  0.00  0.00    +0.000 NA
ATOM     11  C   UNL     1       3.816   2.170  20.605  0.00  0.00    +0.000 A 
ATOM     12  N   UNL     1       3.000   3.272  20.714  0.00  0.00    +0.000 N 
ATOM     13  C   UNL     1       1.862   3.396  21.587  0.00  0.00    +0.000 C 
ENDROOT
BRANCH   5  14
ATOM     14  C   UNL     1       1.420   8.532  19.642  0.00  0.00    +0.000 A 
ATOM     15  C   UNL     1       0.860   8.892  20.878  0.00  0.00    +0.000 A 
ATOM     16  C   UNL     1       0.084  10.048  21.004  0.00  0.00    +0.000 A 
ATOM     17  C   UNL     1      -0.140  10.858  19.895  0.00  0.00    +0.000 A 
ATOM     18  C   UNL     1       0.417  10.521  18.663  0.00  0.00    +0.000 A 
ATOM     19  C   UNL     1       1.195   9.366  18.537  0.00  0.00    +0.000 A 
ENDBRANCH   5  14
BRANCH   1  21
ATOM     20  C   UNL     1       7.688   4.829  17.883  0.00  0.00    +0.000 C 
ATOM     21  N   UNL     1       6.536   3.958  17.757  0.00  0.00    +0.000 N 
ATOM     22  H   UNL     1       6.680   2.995  18.052  0.00  0.00    +0.000 HD
ENDBRANCH   1  21
TORSDOF 2
ENDMDL
MODEL 7
REMARK VINA RESULT:      -7.3      2.578      7.275
REMARK  Name = 
REMARK  4 active torsions:
REMARK  status: ('A' for Active; 'I' for Inactive)
REMARK    1  A    between atoms: C_1  and  N_2
REMARK    2  A    between atoms: N_2  and  C_3
REMARK    3  A    between atoms: C_7  and  C_8
REMARK    4  A    between atoms: N_20  and  C_21
REMARK                            x       y       z     vdW  Elec       q    Type
REMARK                         _______ _______ _______ _____ _____    ______ ____
ROOT
ATOM      1  C   UNL     1       4.100   5.652  17.581  0.00  0.00    +0.000 A 
ATOM      2  N   UNL     1       3.536   6.900  17.727  0.00  0.00    +0.000 NA
ATOM      3  C   UNL     1       2.738   7.061  18.792  0.00  0.00    +0.000 A 
ATOM      4  O   UNL     1       2.094   8.193  19.184  0.00  0.00    +0.000 OA
ATOM      5  C   UNL     1       1.459   7.829  20.357  0.00  0.00    +0.000 A 
ATOM      6  N   UNL     1       1.634   6.562  20.729  0.00  0.00    +0.000 NA
ATOM      7  C   UNL     1       2.438   6.110  19.730  0.00  0.00    +0.000 A 
ATOM      8  C   UNL     1       2.983   4.880  19.585  0.00  0.00    +0.000 A 
ATOM      9  C   UNL     1       3.813   4.609  18.523  0.00  0.00    +0.000 A 
ATOM     10  N   UNL     1       4.240   3.298  18.630  0.00  0.00    +0.000 NA
ATOM     11  C   UNL     1       3.656   2.831  19.721  0.00  0.00    +0.000 A 
ATOM     12  N   UNL     1       2.887   3.784  20.346  0.00  0.00    +0.000 N 
ATOM     13  C   UNL     1       2.166   3.611  21.580  0.00  0.00    +0.000 C 
ENDROOT
BRANCH   5  14
ATOM     14  C   UNL     1       0.736   8.904  21.038  0.00  0.00    +0.000 A 
ATOM     15  C   UNL     1       0.452   8.840  22.412  0.00  0.00    +0.000 A 
ATOM     16  C   UNL     1      -0.276   9.854  23.041  0.00  0.00    +0.000 A 
ATOM     17  C   UNL     1      -0.727  10.945  22.303  0.00  0.00    +0.000 A 
ATOM     18  C   UNL     1      -0.445  11.029  20.942  0.00  0.00    +0.000 A 
ATOM     19  C   UNL     1       0.286  10.017  20.312  0.00  0.00    +0.000 A 
ENDBRANCH   5  14
BRANCH   1  21
ATOM     20  C   UNL     1       6.334   5.864  16.744  0.00  0.00    +0.000 C 
ATOM     21  N   UNL     1       4.975   5.413  16.512  0.00  0.00    +0.000 N 
ATOM     22  H   UNL     1       4.880   4.448  16.204  0.00  0.00    +0.000 HD
ENDBRANCH   1  21
TORSDOF 2
ENDMDL
MODEL 8
REMARK VINA RESULT:      -7.3      2.619      7.253
REMARK  Name = 
REMARK  4 active torsions:
REMARK  status: ('A' for Active; 'I' for Inactive)
REMARK    1  A    between atoms: C_1  and  N_2
REMARK    2  A    between atoms: N_2  and  C_3
REMARK    3  A    between atoms: C_7  and  C_8
REMARK    4  A    between atoms: N_20  and  C_21
REMARK                            x       y       z     vdW  Elec       q    Type
REMARK                         _______ _______ _______ _____ _____    ______ ____
ROOT
ATOM      1  C   UNL     1       4.184   5.626  17.633  0.00  0.00    +0.000 A 
ATOM      2  N   UNL     1       3.610   6.873  17.753  0.00  0.00    +0.000 NA
ATOM      3  C   UNL     1       2.780   7.037  18.792  0.00  0.00    +0.000 A 
ATOM      4  O   UNL     1       2.119   8.168  19.157  0.00  0.00    +0.000 OA
ATOM      5  C   UNL     1       1.451   7.810  20.313  0.00  0.00    +0.000 A 
ATOM      6  N   UNL     1       1.620   6.546  20.699  0.00  0.00    +0.000 NA
ATOM      7  C   UNL     1       2.456   6.091  19.727  0.00  0.00    +0.000 A 
ATOM      8  C   UNL     1       3.011   4.863  19.608  0.00  0.00    +0.000 A 
ATOM      9  C   UNL     1       3.874   4.588  18.573  0.00  0.00    +0.000 A 
ATOM     10  N   UNL     1       4.303   3.280  18.702  0.00  0.00    +0.000 NA
ATOM     11  C   UNL     1       3.689   2.818  19.779  0.00  0.00    +0.000 A 
ATOM     12  N   UNL     1       2.897   3.772  20.373  0.00  0.00    +0.000 N 
ATOM     13  C   UNL     1       2.140   3.603  21.586  0.00  0.00    +0.000 C 
ENDROOT
BRANCH   5  14
ATOM     14  C   UNL     1       0.703   8.886  20.964  0.00  0.00    +0.000 A 
ATOM     15  C   UNL     1       0.236   9.996  20.241  0.00  0.00    +0.000 A 
ATOM     16  C   UNL     1      -0.440  11.036  20.883  0.00  0.00    +0.000 A 
ATOM     17  C   UNL     1      -0.660  10.979  22.257  0.00  0.00    +0.000 A 
ATOM     18  C   UNL     1      -0.214   9.879  22.987  0.00  0.00    +0.000 A 
ATOM     19  C   UNL     1       0.461   8.837  22.345  0.00  0.00    +0.000 A 
ENDBRANCH   5  14
BRANCH   1  21
ATOM     20  C   UNL     1       6.443   5.835  16.865  0.00  0.00    +0.000 C 
ATOM     21  N   UNL     1       5.093   5.384  16.592  0.00  0.00    +0.000 N 
ATOM     22  H   UNL     1       5.006   4.418  16.283  0.00  0.00    +0.000 HD
ENDBRANCH   1  21
TORSDOF 2
ENDMDL
MODEL 9
REMARK VINA RESULT:      -7.3      1.687      6.165
REMARK  Name = 
REMARK  4 active torsions:
REMARK  status: ('A' for Active; 'I' for Inactive)
REMARK    1  A    between atoms: C_1  and  N_2
REMARK    2  A    between atoms: N_2  and  C_3
REMARK    3  A    between atoms: C_7  and  C_8
REMARK    4  A    between atoms: N_20  and  C_21
REMARK                            x       y       z     vdW  Elec       q    Type
REMARK                         _______ _______ _______ _____ _____    ______ ____
ROOT
ATOM      1  C   UNL     1       4.947   4.144  16.913  0.00  0.00    +0.000 A 
ATOM      2  N   UNL     1       4.840   5.516  16.876  0.00  0.00    +0.000 NA
ATOM      3  C   UNL     1       3.797   6.039  17.537  0.00  0.00    +0.000 A 
ATOM      4  O   UNL     1       3.484   7.354  17.687  0.00  0.00    +0.000 OA
ATOM      5  C   UNL     1       2.358   7.342  18.489  0.00  0.00    +0.000 A 
ATOM      6  N   UNL     1       1.924   6.133  18.842  0.00  0.00    +0.000 NA
ATOM      7  C   UNL     1       2.846   5.341  18.231  0.00  0.00    +0.000 A 
ATOM      8  C   UNL     1       2.943   3.993  18.263  0.00  0.00    +0.000 A 
ATOM      9  C   UNL     1       3.974   3.355  17.612  0.00  0.00    +0.000 A 
ATOM     10  N   UNL     1       3.844   1.995  17.823  0.00  0.00    +0.000 NA
ATOM     11  C   UNL     1       2.758   1.860  18.566  0.00  0.00    +0.000 A 
ATOM     12  N   UNL     1       2.185   3.074  18.871  0.00  0.00    +0.000 N 
ATOM     13  C   UNL     1       1.027   3.274  19.702  0.00  0.00    +0.000 C 
ENDROOT
BRANCH   5  14
ATOM     14  C   UNL     1       1.845   8.659  18.869  0.00  0.00    +0.000 A 
ATOM     15  C   UNL     1       1.946   9.762  18.006  0.00  0.00    +0.000 A 
ATOM     16  C   UNL     1       1.491  11.023  18.399  0.00  0.00    +0.000 A 
ATOM     17  C   UNL     1       0.926  11.197  19.660  0.00  0.00    +0.000 A 
ATOM     18  C   UNL     1       0.808  10.110  20.524  0.00  0.00    +0.000 A 
ATOM     19  C   UNL     1       1.262   8.847  20.131  0.00  0.00    +0.000 A 
ENDBRANCH   5  14
BRANCH   1  21
ATOM     20  C   UNL     1       6.334   4.053  14.962  0.00  0.00    +0.000 C 
ATOM     21  N   UNL     1       6.030   3.521  16.276  0.00  0.00    +0.000 N 
ATOM     22  H   UNL     1       6.817   3.466  16.920  0.00  0.00    +0.000 HD
ENDBRANCH   1  21
TORSDOF 2
ENDMDL
