MODEL 1
REMARK VINA RESULT:      -5.6      0.000      0.000
REMARK  Name = 
REMARK  8 active torsions:
REMARK  status: ('A' for Active; 'I' for Inactive)
REMARK    1  A    between atoms: C_1  and  C_2
REMARK    2  A    between atoms: C_2  and  C_3
REMARK    3  A    between atoms: C_6  and  C_7
REMARK    4  A    between atoms: C_7  and  N_8
REMARK    5  A    between atoms: N_8  and  C_9
REMARK    6  A    between atoms: N_8  and  C_10
REMARK    7  A    between atoms: C_10  and  C_11
REMARK    8  A    between atoms: C_11  and  C_12
REMARK                            x       y       z     vdW  Elec       q    Type
REMARK                         _______ _______ _______ _____ _____    ______ ____
ROOT
ATOM      1  C   UNL     1       4.316   4.036  16.030  0.00  0.00    +0.000 C 
ENDROOT
BRANCH   1   5
ATOM      2  C   UNL     1       2.898   3.543  19.647  0.00  0.00    +0.000 A 
ATOM      3  C   UNL     1       2.277   4.663  19.140  0.00  0.00    +0.000 A 
ATOM      4  C   UNL     1       2.700   4.964  17.820  0.00  0.00    +0.000 A 
ATOM      5  C   UNL     1       3.643   4.064  17.367  0.00  0.00    +0.000 A 
ATOM      6  S   UNL     1       3.954   2.836  18.509  0.00  0.00    +0.000 S 
BRANCH   2   8
ATOM      7  C   UNL     1       1.294   2.808  21.395  0.00  0.00    +0.000 C 
ATOM      8  C   UNL     1       2.758   2.943  21.012  0.00  0.00    +0.000 C 
ENDBRANCH   2   8
ENDBRANCH   1   5
BRANCH   1   9
ATOM      9  N   UNL     1       5.747   4.398  16.076  0.00  0.00    +0.000 NA
ATOM     10  C   UNL     1       6.395   4.102  14.793  0.00  0.00    +0.000 C 
BRANCH   9  11
ATOM     11  C   UNL     1       5.934   5.834  16.417  0.00  0.00    +0.000 C 
BRANCH  11  12
ATOM     12  C   UNL     1       6.903   6.075  17.591  0.00  0.00    +0.000 C 
ATOM     13  C   UNL     1       7.570   7.452  17.526  0.00  0.00    +0.000 C 
ATOM     14  C   UNL     1       7.804   4.872  17.975  0.00  0.00    +0.000 C 
ATOM     15  O   UNL     1       7.015   4.584  19.145  0.00  0.00    +0.000 OA
ATOM     16  C   UNL     1       6.291   5.823  18.991  0.00  0.00    +0.000 C 
ENDBRANCH  11  12
ENDBRANCH   9  11
ENDBRANCH   1   9
TORSDOF 5
ENDMDL
MODEL 2
REMARK VINA RESULT:      -5.6      1.983      3.041
REMARK  Name = 
REMARK  8 active torsions:
REMARK  status: ('A' for Active; 'I' for Inactive)
REMARK    1  A    between atoms: C_1  and  C_2
REMARK    2  A    between atoms: C_2  and  C_3
REMARK    3  A    between atoms: C_6  and  C_7
REMARK    4  A    between atoms: C_7  and  N_8
REMARK    5  A    between atoms: N_8  and  C_9
REMARK    6  A    between atoms: N_8  and  C_10
REMARK    7  A    between atoms: C_10  and  C_11
REMARK    8  A    between atoms: C_11  and  C_12
REMARK                            x       y       z     vdW  Elec       q    Type
REMARK                         _______ _______ _______ _____ _____    ______ ____
ROOT
ATOM      1  C   UNL     1       5.914   5.236  19.345  0.00  0.00    +0.000 C 
ENDROOT
BRANCH   1   5
ATOM      2  C   UNL     1       2.148   4.185  19.561  0.00  0.00    +0.000 A 
ATOM      3  C   UNL     1       2.161   5.463  19.048  0.00  0.00    +0.000 A 
ATOM      4  C   UNL     1       3.477   5.977  18.914  0.00  0.00    +0.000 A 
ATOM      5  C   UNL     1       4.426   5.072  19.341  0.00  0.00    +0.000 A 
ATOM      6  S   UNL     1       3.726   3.596  19.834  0.00  0.00    +0.000 S 
BRANCH   2   8
ATOM      7  C   UNL     1       0.630   2.394  18.747  0.00  0.00    +0.000 C 
ATOM      8  C   UNL     1       0.963   3.332  19.895  0.00  0.00    +0.000 C 
ENDBRANCH   2   8
ENDBRANCH   1   5
BRANCH   1   9
ATOM      9  N   UNL     1       6.454   5.803  18.093  0.00  0.00    +0.000 NA
ATOM     10  C   UNL     1       7.715   6.508  18.349  0.00  0.00    +0.000 C 
BRANCH   9  11
ATOM     11  C   UNL     1       6.664   4.749  17.065  0.00  0.00    +0.000 C 
BRANCH  11  12
ATOM     12  C   UNL     1       6.018   5.069  15.702  0.00  0.00    +0.000 C 
ATOM     13  C   UNL     1       5.264   6.401  15.710  0.00  0.00    +0.000 C 
ATOM     14  C   UNL     1       5.332   3.874  14.989  0.00  0.00    +0.000 C 
ATOM     15  O   UNL     1       6.415   3.743  14.049  0.00  0.00    +0.000 OA
ATOM     16  C   UNL     1       6.988   4.990  14.498  0.00  0.00    +0.000 C 
ENDBRANCH  11  12
ENDBRANCH   9  11
ENDBRANCH   1   9
TORSDOF 5
ENDMDL
MODEL 3
REMARK VINA RESULT:      -5.6      2.330      5.502
REMARK  Name = 
REMARK  8 active torsions:
REMARK  status: ('A' for Active; 'I' for Inactive)
REMARK    1  A    between atoms: C_1  and  C_2
REMARK    2  A    between atoms: C_2  and  C_3
REMARK    3  A    between atoms: C_6  and  C_7
REMARK    4  A    between atoms: C_7  and  N_8
REMARK    5  A    between atoms: N_8  and  C_9
REMARK    6  A    between atoms: N_8  and  C_10
REMARK    7  A    between atoms: C_10  and  C_11
REMARK    8  A    between atoms: C_11  and  C_12
REMARK                            x       y       z     vdW  Elec       q    Type
REMARK                         _______ _______ _______ _____ _____    ______ ____
ROOT
ATOM      1  C   UNL     1       4.597   5.520  19.363  0.00  0.00    +0.000 C 
ENDROOT
BRANCH   1   5
ATOM      2  C   UNL     1       6.023   5.306  15.722  0.00  0.00    +0.000 A 
ATOM      3  C   UNL     1       5.245   6.442  15.764  0.00  0.00    +0.000 A 
ATOM      4  C   UNL     1       4.657   6.647  17.039  0.00  0.00    +0.000 A 
ATOM      5  C   UNL     1       5.001   5.650  17.928  0.00  0.00    +0.000 A 
ATOM      6  S   UNL     1       6.076   4.520  17.235  0.00  0.00    +0.000 S 
BRANCH   2   8
ATOM      7  C   UNL     1       5.834   3.867  13.707  0.00  0.00    +0.000 C 
ATOM      8  C   UNL     1       6.757   4.728  14.552  0.00  0.00    +0.000 C 
ENDBRANCH   2   8
ENDBRANCH   1   5
BRANCH   1   9
ATOM      9  N   UNL     1       3.149   5.294  19.556  0.00  0.00    +0.000 NA
ATOM     10  C   UNL     1       2.434   6.572  19.631  0.00  0.00    +0.000 C 
BRANCH   9  11
ATOM     11  C   UNL     1       2.579   4.459  18.465  0.00  0.00    +0.000 C 
BRANCH  11  12
ATOM     12  C   UNL     1       2.364   2.984  18.856  0.00  0.00    +0.000 C 
ATOM     13  C   UNL     1       0.899   2.554  18.738  0.00  0.00    +0.000 C 
ATOM     14  C   UNL     1       3.142   2.502  20.109  0.00  0.00    +0.000 C 
ATOM     15  O   UNL     1       4.098   1.784  19.306  0.00  0.00    +0.000 OA
ATOM     16  C   UNL     1       3.293   1.984  18.124  0.00  0.00    +0.000 C 
ENDBRANCH  11  12
ENDBRANCH   9  11
ENDBRANCH   1   9
TORSDOF 5
ENDMDL
MODEL 4
REMARK VINA RESULT:      -5.6      2.466      5.446
REMARK  Name = 
REMARK  8 active torsions:
REMARK  status: ('A' for Active; 'I' for Inactive)
REMARK    1  A    between atoms: C_1  and  C_2
REMARK    2  A    between atoms: C_2  and  C_3
REMARK    3  A    between atoms: C_6  and  C_7
REMARK    4  A    between atoms: C_7  and  N_8
REMARK    5  A    between atoms: N_8  and  C_9
REMARK    6  A    between atoms: N_8  and  C_10
REMARK    7  A    between atoms: C_10  and  C_11
REMARK    8  A    between atoms: C_11  and  C_12
REMARK                            x       y       z     vdW  Elec       q    Type
REMARK                         _______ _______ _______ _____ _____    ______ ____
ROOT
ATOM      1  C   UNL     1       4.088   3.385  17.485  0.00  0.00    +0.000 C 
ENDROOT
BRANCH   1   5
ATOM      2  C   UNL     1       6.604   6.375  17.734  0.00  0.00    +0.000 A 
ATOM      3  C   UNL     1       5.469   6.877  17.135  0.00  0.00    +0.000 A 
ATOM      4  C   UNL     1       4.461   5.891  16.980  0.00  0.00    +0.000 A 
ATOM      5  C   UNL     1       4.867   4.662  17.458  0.00  0.00    +0.000 A 
ATOM      6  S   UNL     1       6.428   4.728  18.145  0.00  0.00    +0.000 S 
BRANCH   2   8
ATOM      7  C   UNL     1       7.782   8.561  17.681  0.00  0.00    +0.000 C 
ATOM      8  C   UNL     1       7.893   7.083  18.018  0.00  0.00    +0.000 C 
ENDBRANCH   2   8
ENDBRANCH   1   5
BRANCH   1   9
ATOM      9  N   UNL     1       3.537   3.051  18.815  0.00  0.00    +0.000 NA
ATOM     10  C   UNL     1       4.329   1.993  19.451  0.00  0.00    +0.000 C 
BRANCH   9  11
ATOM     11  C   UNL     1       3.489   4.246  19.699  0.00  0.00    +0.000 C 
BRANCH  11  12
ATOM     12  C   UNL     1       2.170   4.390  20.483  0.00  0.00    +0.000 C 
ATOM     13  C   UNL     1       1.720   5.848  20.608  0.00  0.00    +0.000 C 
ATOM     14  C   UNL     1       2.041   3.501  21.748  0.00  0.00    +0.000 C 
ATOM     15  O   UNL     1       1.140   2.595  21.086  0.00  0.00    +0.000 OA
ATOM     16  C   UNL     1       1.016   3.498  19.966  0.00  0.00    +0.000 C 
ENDBRANCH  11  12
ENDBRANCH   9  11
ENDBRANCH   1   9
TORSDOF 5
ENDMDL
MODEL 5
REMARK VINA RESULT:      -5.6      2.509      5.793
REMARK  Name = 
REMARK  8 active torsions:
REMARK  status: ('A' for Active; 'I' for Inactive)
REMARK    1  A    between atoms: C_1  and  C_2
REMARK    2  A    between atoms: C_2  and  C_3
REMARK    3  A    between atoms: C_6  and  C_7
REMARK    4  A    between atoms: C_7  and  N_8
REMARK    5  A    between atoms: N_8  and  C_9
REMARK    6  A    between atoms: N_8  and  C_10
REMARK    7  A    between atoms: C_10  and  C_11
REMARK    8  A    between atoms: C_11  and  C_12
REMARK                            x       y       z     vdW  Elec       q    Type
REMARK                         _______ _______ _______ _____ _____    ______ ____
ROOT
ATOM      1  C   UNL     1       5.421   4.476  18.962  0.00  0.00    +0.000 C 
ENDROOT
BRANCH   1   5
ATOM      2  C   UNL     1       6.429   5.061  15.224  0.00  0.00    +0.000 A 
ATOM      3  C   UNL     1       5.209   5.678  15.394  0.00  0.00    +0.000 A 
ATOM      4  C   UNL     1       4.717   5.544  16.718  0.00  0.00    +0.000 A 
ATOM      5  C   UNL     1       5.578   4.817  17.514  0.00  0.00    +0.000 A 
ATOM      6  S   UNL     1       6.993   4.364  16.675  0.00  0.00    +0.000 S 
BRANCH   2   8
ATOM      7  C   UNL     1       6.591   3.957  13.004  0.00  0.00    +0.000 C 
ATOM      8  C   UNL     1       7.238   4.936  13.970  0.00  0.00    +0.000 C 
ENDBRANCH   2   8
ENDBRANCH   1   5
BRANCH   1   9
ATOM      9  N   UNL     1       4.390   3.451  19.225  0.00  0.00    +0.000 NA
ATOM     10  C   UNL     1       4.900   2.431  20.148  0.00  0.00    +0.000 C 
BRANCH   9  11
ATOM     11  C   UNL     1       3.149   4.057  19.777  0.00  0.00    +0.000 C 
BRANCH  11  12
ATOM     12  C   UNL     1       1.859   3.586  19.078  0.00  0.00    +0.000 C 
ATOM     13  C   UNL     1       0.681   3.458  20.047  0.00  0.00    +0.000 C 
ATOM     14  C   UNL     1       2.039   2.453  18.033  0.00  0.00    +0.000 C 
ATOM     15  O   UNL     1       1.882   3.370  16.933  0.00  0.00    +0.000 OA
ATOM     16  C   UNL     1       1.463   4.417  17.834  0.00  0.00    +0.000 C 
ENDBRANCH  11  12
ENDBRANCH   9  11
ENDBRANCH   1   9
TORSDOF 5
ENDMDL
MODEL 6
REMARK VINA RESULT:      -5.4      2.421      5.689
REMARK  Name = 
REMARK  8 active torsions:
REMARK  status: ('A' for Active; 'I' for Inactive)
REMARK    1  A    between atoms: C_1  and  C_2
REMARK    2  A    between atoms: C_2  and  C_3
REMARK    3  A    between atoms: C_6  and  C_7
REMARK    4  A    between atoms: C_7  and  N_8
REMARK    5  A    between atoms: N_8  and  C_9
REMARK    6  A    between atoms: N_8  and  C_10
REMARK    7  A    between atoms: C_10  and  C_11
REMARK    8  A    between atoms: C_11  and  C_12
REMARK                            x       y       z     vdW  Elec       q    Type
REMARK                         _______ _______ _______ _____ _____    ______ ____
ROOT
ATOM      1  C   UNL     1       3.815   6.114  19.266  0.00  0.00    +0.000 C 
ENDROOT
BRANCH   1   5
ATOM      2  C   UNL     1       6.206   5.098  16.337  0.00  0.00    +0.000 A 
ATOM      3  C   UNL     1       6.657   4.425  17.452  0.00  0.00    +0.000 A 
ATOM      4  C   UNL     1       5.874   4.703  18.602  0.00  0.00    +0.000 A 
ATOM      5  C   UNL     1       4.854   5.590  18.326  0.00  0.00    +0.000 A 
ATOM      6  S   UNL     1       4.814   6.024  16.677  0.00  0.00    +0.000 S 
BRANCH   2   8
ATOM      7  C   UNL     1       6.308   3.912  14.157  0.00  0.00    +0.000 C 
ATOM      8  C   UNL     1       6.794   5.107  14.959  0.00  0.00    +0.000 C 
ENDBRANCH   2   8
ENDBRANCH   1   5
BRANCH   1   9
ATOM      9  N   UNL     1       2.846   5.091  19.714  0.00  0.00    +0.000 NA
ATOM     10  C   UNL     1       1.855   5.682  20.620  0.00  0.00    +0.000 C 
BRANCH   9  11
ATOM     11  C   UNL     1       2.159   4.452  18.560  0.00  0.00    +0.000 C 
BRANCH  11  12
ATOM     12  C   UNL     1       2.032   2.921  18.679  0.00  0.00    +0.000 C 
ATOM     13  C   UNL     1       0.611   2.477  19.038  0.00  0.00    +0.000 C 
ATOM     14  C   UNL     1       3.200   2.206  19.409  0.00  0.00    +0.000 C 
ATOM     15  O   UNL     1       3.743   1.712  18.170  0.00  0.00    +0.000 OA
ATOM     16  C   UNL     1       2.563   2.135  17.455  0.00  0.00    +0.000 C 
ENDBRANCH  11  12
ENDBRANCH   9  11
ENDBRANCH   1   9
TORSDOF 5
ENDMDL
MODEL 7
REMARK VINA RESULT:      -5.4      2.404      5.962
REMARK  Name = 
REMARK  8 active torsions:
REMARK  status: ('A' for Active; 'I' for Inactive)
REMARK    1  A    between atoms: C_1  and  C_2
REMARK    2  A    between atoms: C_2  and  C_3
REMARK    3  A    between atoms: C_6  and  C_7
REMARK    4  A    between atoms: C_7  and  N_8
REMARK    5  A    between atoms: N_8  and  C_9
REMARK    6  A    between atoms: N_8  and  C_10
REMARK    7  A    between atoms: C_10  and  C_11
REMARK    8  A    between atoms: C_11  and  C_12
REMARK                            x       y       z     vdW  Elec       q    Type
REMARK                         _______ _______ _______ _____ _____    ______ ____
ROOT
ATOM      1  C   UNL     1       5.117   3.923  18.013  0.00  0.00    +0.000 C 
ENDROOT
BRANCH   1   5
ATOM      2  C   UNL     1       7.374   7.120  17.906  0.00  0.00    +0.000 A 
ATOM      3  C   UNL     1       7.864   6.338  18.928  0.00  0.00    +0.000 A 
ATOM      4  C   UNL     1       7.133   5.133  19.083  0.00  0.00    +0.000 A 
ATOM      5  C   UNL     1       6.098   5.041  18.176  0.00  0.00    +0.000 A 
ATOM      6  S   UNL     1       6.063   6.373  17.111  0.00  0.00    +0.000 S 
BRANCH   2   8
ATOM      7  C   UNL     1       8.642   9.150  18.571  0.00  0.00    +0.000 C 
ATOM      8  C   UNL     1       7.838   8.477  17.472  0.00  0.00    +0.000 C 
ENDBRANCH   2   8
ENDBRANCH   1   5
BRANCH   1   9
ATOM      9  N   UNL     1       3.805   4.184  18.640  0.00  0.00    +0.000 NA
ATOM     10  C   UNL     1       2.871   4.755  17.664  0.00  0.00    +0.000 C 
BRANCH   9  11
ATOM     11  C   UNL     1       3.227   2.946  19.229  0.00  0.00    +0.000 C 
BRANCH  11  12
ATOM     12  C   UNL     1       2.001   3.196  20.129  0.00  0.00    +0.000 C 
ATOM     13  C   UNL     1       0.679   2.930  19.404  0.00  0.00    +0.000 C 
ATOM     14  C   UNL     1       2.073   4.461  21.024  0.00  0.00    +0.000 C 
ATOM     15  O   UNL     1       2.339   3.678  22.203  0.00  0.00    +0.000 OA
ATOM     16  C   UNL     1       2.044   2.459  21.490  0.00  0.00    +0.000 C 
ENDBRANCH  11  12
ENDBRANCH   9  11
ENDBRANCH   1   9
TORSDOF 5
ENDMDL
MODEL 8
REMARK VINA RESULT:      -5.4      2.717      5.846
REMARK  Name = 
REMARK  8 active torsions:
REMARK  status: ('A' for Active; 'I' for Inactive)
REMARK    1  A    between atoms: C_1  and  C_2
REMARK    2  A    between atoms: C_2  and  C_3
REMARK    3  A    between atoms: C_6  and  C_7
REMARK    4  A    between atoms: C_7  and  N_8
REMARK    5  A    between atoms: N_8  and  C_9
REMARK    6  A    between atoms: N_8  and  C_10
REMARK    7  A    between atoms: C_10  and  C_11
REMARK    8  A    between atoms: C_11  and  C_12
REMARK                            x       y       z     vdW  Elec       q    Type
REMARK                         _______ _______ _______ _____ _____    ______ ____
ROOT
ATOM      1  C   UNL     1       5.527   4.110  18.785  0.00  0.00    +0.000 C 
ENDROOT
BRANCH   1   5
ATOM      2  C   UNL     1       6.458   4.644  15.019  0.00  0.00    +0.000 A 
ATOM      3  C   UNL     1       5.109   4.369  15.046  0.00  0.00    +0.000 A 
ATOM      4  C   UNL     1       4.629   4.151  16.362  0.00  0.00    +0.000 A 
ATOM      5  C   UNL     1       5.636   4.257  17.299  0.00  0.00    +0.000 A 
ATOM      6  S   UNL     1       7.127   4.682  16.588  0.00  0.00    +0.000 S 
BRANCH   2   8
ATOM      7  C   UNL     1       6.856   4.059  12.638  0.00  0.00    +0.000 C 
ATOM      8  C   UNL     1       7.334   4.876  13.826  0.00  0.00    +0.000 C 
ENDBRANCH   2   8
ENDBRANCH   1   5
BRANCH   1   9
ATOM      9  N   UNL     1       4.325   3.371  19.224  0.00  0.00    +0.000 NA
ATOM     10  C   UNL     1       4.700   2.244  20.086  0.00  0.00    +0.000 C 
BRANCH   9  11
ATOM     11  C   UNL     1       3.371   4.259  19.940  0.00  0.00    +0.000 C 
BRANCH  11  12
ATOM     12  C   UNL     1       2.000   4.389  19.250  0.00  0.00    +0.000 C 
ATOM     13  C   UNL     1       1.917   5.615  18.338  0.00  0.00    +0.000 C 
ATOM     14  C   UNL     1       0.768   4.090  20.145  0.00  0.00    +0.000 C 
ATOM     15  O   UNL     1       0.564   2.804  19.528  0.00  0.00    +0.000 OA
ATOM     16  C   UNL     1       1.534   3.114  18.505  0.00  0.00    +0.000 C 
ENDBRANCH  11  12
ENDBRANCH   9  11
ENDBRANCH   1   9
TORSDOF 5
ENDMDL
MODEL 9
REMARK VINA RESULT:      -5.3      2.567      5.635
REMARK  Name = 
REMARK  8 active torsions:
REMARK  status: ('A' for Active; 'I' for Inactive)
REMARK    1  A    between atoms: C_1  and  C_2
REMARK    2  A    between atoms: C_2  and  C_3
REMARK    3  A    between atoms: C_6  and  C_7
REMARK    4  A    between atoms: C_7  and  N_8
REMARK    5  A    between atoms: N_8  and  C_9
REMARK    6  A    between atoms: N_8  and  C_10
REMARK    7  A    between atoms: C_10  and  C_11
REMARK    8  A    between atoms: C_11  and  C_12
REMARK                            x       y       z     vdW  Elec       q    Type
REMARK                         _______ _______ _______ _____ _____    ______ ____
ROOT
ATOM      1  C   UNL     1       4.432   5.887  19.427  0.00  0.00    +0.000 C 
ENDROOT
BRANCH   1   5
ATOM      2  C   UNL     1       5.967   5.122  15.908  0.00  0.00    +0.000 A 
ATOM      3  C   UNL     1       5.228   6.276  15.762  0.00  0.00    +0.000 A 
ATOM      4  C   UNL     1       4.607   6.675  16.973  0.00  0.00    +0.000 A 
ATOM      5  C   UNL     1       4.887   5.802  18.004  0.00  0.00    +0.000 A 
ATOM      6  S   UNL     1       5.943   4.554  17.516  0.00  0.00    +0.000 S 
BRANCH   2   8
ATOM      7  C   UNL     1       5.796   3.958  13.720  0.00  0.00    +0.000 C 
ATOM      8  C   UNL     1       6.718   4.364  14.857  0.00  0.00    +0.000 C 
ENDBRANCH   2   8
ENDBRANCH   1   5
BRANCH   1   9
ATOM      9  N   UNL     1       3.075   5.346  19.653  0.00  0.00    +0.000 NA
ATOM     10  C   UNL     1       2.129   6.429  19.940  0.00  0.00    +0.000 C 
BRANCH   9  11
ATOM     11  C   UNL     1       2.603   4.559  18.482  0.00  0.00    +0.000 C 
BRANCH  11  12
ATOM     12  C   UNL     1       2.272   3.090  18.810  0.00  0.00    +0.000 C 
ATOM     13  C   UNL     1       2.767   2.124  17.731  0.00  0.00    +0.000 C 
ATOM     14  C   UNL     1       0.856   2.835  19.390  0.00  0.00    +0.000 C 
ATOM     15  O   UNL     1       1.375   2.647  20.720  0.00  0.00    +0.000 OA
ATOM     16  C   UNL     1       2.728   2.628  20.216  0.00  0.00    +0.000 C 
ENDBRANCH  11  12
ENDBRANCH   9  11
ENDBRANCH   1   9
TORSDOF 5
ENDMDL
