MODEL 1
REMARK VINA RESULT:      -6.7      0.000      0.000
REMARK  Name = 
REMARK  6 active torsions:
REMARK  status: ('A' for Active; 'I' for Inactive)
REMARK    1  A    between atoms: C_1  and  C_2
REMARK    2  A    between atoms: C_5  and  C_6
REMARK    3  A    between atoms: C_6  and  C_7
REMARK    4  A    between atoms: C_6  and  N_14
REMARK    5  A    between atoms: C_20  and  O_21
REMARK    6  A    between atoms: C_20  and  C_22
REMARK                            x       y       z     vdW  Elec       q    Type
REMARK                         _______ _______ _______ _____ _____    ______ ____
ROOT
ATOM      1  N   UNL     1       1.288  13.417  18.899  0.00  0.00    +0.000 NA
ATOM      2  C   UNL     1       2.672  13.296  19.287  0.00  0.00    +0.000 C 
ATOM      3  C   UNL     1       3.274  14.224  18.220  0.00  0.00    +0.000 C 
ATOM      4  C   UNL     1       2.339  15.395  18.101  0.00  0.00    +0.000 C 
ATOM      5  C   UNL     1       1.205  14.957  19.067  0.00  0.00    +0.000 C 
ATOM      6  C   UNL     1       1.756  15.718  20.421  0.00  0.00    +0.000 C 
ATOM      7  C   UNL     1       2.766  14.900  21.310  0.00  0.00    +0.000 C 
ATOM      8  C   UNL     1       2.504  13.539  20.800  0.00  0.00    +0.000 C 
ENDROOT
BRANCH   7   9
ATOM      9  C   UNL     1       4.311  14.894  21.405  0.00  0.00    +0.000 C 
ATOM     10  C   UNL     1       5.020  16.158  20.916  0.00  0.00    +0.000 C 
ATOM     11  C   UNL     1       5.947  16.582  22.053  0.00  0.00    +0.000 C 
ATOM     12  N   UNL     1       5.363  16.052  23.238  0.00  0.00    +0.000 N 
ATOM     13  C   UNL     1       4.760  14.856  22.903  0.00  0.00    +0.000 C 
ATOM     14  O   UNL     1       4.696  13.935  23.703  0.00  0.00    +0.000 OA
ATOM     15  H   UNL     1       5.775  16.100  24.146  0.00  0.00    +0.000 HD
ENDBRANCH   7   9
BRANCH   7  16
ATOM     16  O   UNL     1       2.257  15.043  22.657  0.00  0.00    +0.000 OA
ATOM     17  H   UNL     1       2.589  15.880  23.027  0.00  0.00    +0.000 HD
ENDBRANCH   7  16
BRANCH   1  18
ATOM     18  C   UNL     1       0.412  12.220  19.422  0.00  0.00    +0.000 C 
BRANCH  18  23
ATOM     19  C   UNL     1      -5.246  10.977  18.166  0.00  0.00    +0.000 C 
ATOM     20  C   UNL     1      -3.878  11.544  18.381  0.00  0.00    +0.000 A 
ATOM     21  C   UNL     1      -2.897  11.336  17.436  0.00  0.00    +0.000 A 
ATOM     22  C   UNL     1      -1.576  11.699  17.717  0.00  0.00    +0.000 A 
ATOM     23  C   UNL     1      -1.136  12.297  18.938  0.00  0.00    +0.000 A 
ATOM     24  C   UNL     1      -2.177  12.591  19.835  0.00  0.00    +0.000 A 
ATOM     25 CL   UNL     1      -1.896  13.347  21.362  0.00  0.00    +0.000 Cl
ATOM     26  C   UNL     1      -3.518  12.209  19.560  0.00  0.00    +0.000 A 
ENDBRANCH  18  23
BRANCH  18  27
ATOM     27  C   UNL     1       0.830  10.682  19.238  0.00  0.00    +0.000 A 
ATOM     28  C   UNL     1       1.477  10.232  18.040  0.00  0.00    +0.000 A 
ATOM     29  C   UNL     1       2.112   9.008  17.886  0.00  0.00    +0.000 A 
ATOM     30  C   UNL     1       2.081   8.131  18.942  0.00  0.00    +0.000 A 
ATOM     31  C   UNL     1       1.403   8.476  20.119  0.00  0.00    +0.000 A 
ATOM     32  C   UNL     1       0.783   9.737  20.269  0.00  0.00    +0.000 A 
ATOM     33 CL   UNL     1       0.041  10.073  21.789  0.00  0.00    +0.000 Cl
ENDBRANCH  18  27
ENDBRANCH   1  18
TORSDOF 5
ENDMDL
MODEL 2
REMARK VINA RESULT:      -6.5      1.816      3.104
REMARK  Name = 
REMARK  6 active torsions:
REMARK  status: ('A' for Active; 'I' for Inactive)
REMARK    1  A    between atoms: C_1  and  C_2
REMARK    2  A    between atoms: C_5  and  C_6
REMARK    3  A    between atoms: C_6  and  C_7
REMARK    4  A    between atoms: C_6  and  N_14
REMARK    5  A    between atoms: C_20  and  O_21
REMARK    6  A    between atoms: C_20  and  C_22
REMARK                            x       y       z     vdW  Elec       q    Type
REMARK                         _______ _______ _______ _____ _____    ______ ____
ROOT
ATOM      1  N   UNL     1       0.800  13.502  19.138  0.00  0.00    +0.000 NA
ATOM      2  C   UNL     1       2.233  13.334  19.153  0.00  0.00    +0.000 C 
ATOM      3  C   UNL     1       2.580  14.377  18.079  0.00  0.00    +0.000 C 
ATOM      4  C   UNL     1       1.682  15.556  18.327  0.00  0.00    +0.000 C 
ATOM      5  C   UNL     1       0.808  15.013  19.490  0.00  0.00    +0.000 C 
ATOM      6  C   UNL     1       1.700  15.612  20.740  0.00  0.00    +0.000 C 
ATOM      7  C   UNL     1       2.873  14.694  21.253  0.00  0.00    +0.000 C 
ATOM      8  C   UNL     1       2.451  13.402  20.676  0.00  0.00    +0.000 C 
ENDROOT
BRANCH   7   9
ATOM      9  C   UNL     1       4.393  14.674  20.959  0.00  0.00    +0.000 C 
ATOM     10  C   UNL     1       5.034  16.026  20.638  0.00  0.00    +0.000 C 
ATOM     11  C   UNL     1       6.230  16.153  21.580  0.00  0.00    +0.000 C 
ATOM     12  N   UNL     1       5.919  15.336  22.703  0.00  0.00    +0.000 N 
ATOM     13  C   UNL     1       5.186  14.260  22.243  0.00  0.00    +0.000 C 
ATOM     14  O   UNL     1       5.264  13.166  22.780  0.00  0.00    +0.000 OA
ATOM     15  H   UNL     1       6.539  15.155  23.464  0.00  0.00    +0.000 HD
ENDBRANCH   7   9
BRANCH   7  16
ATOM     16  O   UNL     1       2.718  14.683  22.691  0.00  0.00    +0.000 OA
ATOM     17  H   UNL     1       3.527  15.040  23.095  0.00  0.00    +0.000 HD
ENDBRANCH   7  16
BRANCH   1  18
ATOM     18  C   UNL     1       0.044  12.255  19.725  0.00  0.00    +0.000 C 
BRANCH  18  23
ATOM     19  C   UNL     1      -3.839  12.727  24.180  0.00  0.00    +0.000 C 
ATOM     20  C   UNL     1      -2.677  12.718  23.237  0.00  0.00    +0.000 A 
ATOM     21  C   UNL     1      -2.508  13.760  22.352  0.00  0.00    +0.000 A 
ATOM     22  C   UNL     1      -1.539  13.667  21.348  0.00  0.00    +0.000 A 
ATOM     23  C   UNL     1      -0.669  12.550  21.154  0.00  0.00    +0.000 A 
ATOM     24  C   UNL     1      -0.796  11.553  22.137  0.00  0.00    +0.000 A 
ATOM     25 CL   UNL     1       0.173  10.124  22.135  0.00  0.00    +0.000 Cl
ATOM     26  C   UNL     1      -1.790  11.636  23.149  0.00  0.00    +0.000 A 
ENDBRANCH  18  23
BRANCH  18  27
ATOM     27  C   UNL     1      -1.032  11.407  18.890  0.00  0.00    +0.000 A 
ATOM     28  C   UNL     1      -2.382  11.868  18.747  0.00  0.00    +0.000 A 
ATOM     29  C   UNL     1      -3.306  11.366  17.842  0.00  0.00    +0.000 A 
ATOM     30  C   UNL     1      -2.923  10.311  17.051  0.00  0.00    +0.000 A 
ATOM     31  C   UNL     1      -1.640   9.762  17.188  0.00  0.00    +0.000 A 
ATOM     32  C   UNL     1      -0.702  10.302  18.097  0.00  0.00    +0.000 A 
ATOM     33 CL   UNL     1       0.866   9.587  18.126  0.00  0.00    +0.000 Cl
ENDBRANCH  18  27
ENDBRANCH   1  18
TORSDOF 5
ENDMDL
MODEL 3
REMARK VINA RESULT:      -6.4      2.142      3.025
REMARK  Name = 
REMARK  6 active torsions:
REMARK  status: ('A' for Active; 'I' for Inactive)
REMARK    1  A    between atoms: C_1  and  C_2
REMARK    2  A    between atoms: C_5  and  C_6
REMARK    3  A    between atoms: C_6  and  C_7
REMARK    4  A    between atoms: C_6  and  N_14
REMARK    5  A    between atoms: C_20  and  O_21
REMARK    6  A    between atoms: C_20  and  C_22
REMARK                            x       y       z     vdW  Elec       q    Type
REMARK                         _______ _______ _______ _____ _____    ______ ____
ROOT
ATOM      1  N   UNL     1       0.490  12.659  19.218  0.00  0.00    +0.000 NA
ATOM      2  C   UNL     1       1.466  13.087  20.191  0.00  0.00    +0.000 C 
ATOM      3  C   UNL     1       2.663  13.235  19.239  0.00  0.00    +0.000 C 
ATOM      4  C   UNL     1       2.129  13.855  17.979  0.00  0.00    +0.000 C 
ATOM      5  C   UNL     1       0.612  13.906  18.304  0.00  0.00    +0.000 C 
ATOM      6  C   UNL     1       0.563  15.439  18.908  0.00  0.00    +0.000 C 
ATOM      7  C   UNL     1       0.851  15.583  20.450  0.00  0.00    +0.000 C 
ATOM      8  C   UNL     1       0.632  14.186  20.877  0.00  0.00    +0.000 C 
ENDROOT
BRANCH   7   9
ATOM      9  C   UNL     1       2.127  15.946  21.248  0.00  0.00    +0.000 C 
ATOM     10  C   UNL     1       3.078  16.941  20.579  0.00  0.00    +0.000 C 
ATOM     11  C   UNL     1       3.326  18.038  21.613  0.00  0.00    +0.000 C 
ATOM     12  N   UNL     1       2.183  18.027  22.460  0.00  0.00    +0.000 N 
ATOM     13  C   UNL     1       1.746  16.721  22.552  0.00  0.00    +0.000 C 
ATOM     14  O   UNL     1       1.215  16.302  23.569  0.00  0.00    +0.000 OA
ATOM     15  H   UNL     1       2.077  18.587  23.280  0.00  0.00    +0.000 HD
ENDBRANCH   7   9
BRANCH   7  16
ATOM     16  O   UNL     1      -0.212  16.435  20.936  0.00  0.00    +0.000 OA
ATOM     17  H   UNL     1      -1.061  15.982  20.798  0.00  0.00    +0.000 HD
ENDBRANCH   7  16
BRANCH   1  18
ATOM     18  C   UNL     1      -0.726  11.913  19.878  0.00  0.00    +0.000 C 
BRANCH  18  23
ATOM     19  C   UNL     1      -3.774  10.330  15.046  0.00  0.00    +0.000 C 
ATOM     20  C   UNL     1      -3.100  10.490  16.372  0.00  0.00    +0.000 A 
ATOM     21  C   UNL     1      -3.706  11.237  17.359  0.00  0.00    +0.000 A 
ATOM     22  C   UNL     1      -3.000  11.544  18.527  0.00  0.00    +0.000 A 
ATOM     23  C   UNL     1      -1.661  11.131  18.804  0.00  0.00    +0.000 A 
ATOM     24  C   UNL     1      -1.112  10.284  17.825  0.00  0.00    +0.000 A 
ATOM     25 CL   UNL     1       0.479   9.628  17.957  0.00  0.00    +0.000 Cl
ATOM     26  C   UNL     1      -1.820   9.983  16.631  0.00  0.00    +0.000 A 
ENDBRANCH  18  23
BRANCH  18  27
ATOM     27  C   UNL     1      -0.568  10.896  21.110  0.00  0.00    +0.000 A 
ATOM     28  C   UNL     1       0.440   9.878  21.099  0.00  0.00    +0.000 A 
ATOM     29  C   UNL     1       0.836   9.133  22.202  0.00  0.00    +0.000 A 
ATOM     30  C   UNL     1       0.180   9.347  23.390  0.00  0.00    +0.000 A 
ATOM     31  C   UNL     1      -0.867  10.277  23.455  0.00  0.00    +0.000 A 
ATOM     32  C   UNL     1      -1.240  11.045  22.328  0.00  0.00    +0.000 A 
ATOM     33 CL   UNL     1      -2.495  12.206  22.549  0.00  0.00    +0.000 Cl
ENDBRANCH  18  27
ENDBRANCH   1  18
TORSDOF 5
ENDMDL
MODEL 4
REMARK VINA RESULT:      -6.4      1.343      1.892
REMARK  Name = 
REMARK  6 active torsions:
REMARK  status: ('A' for Active; 'I' for Inactive)
REMARK    1  A    between atoms: C_1  and  C_2
REMARK    2  A    between atoms: C_5  and  C_6
REMARK    3  A    between atoms: C_6  and  C_7
REMARK    4  A    between atoms: C_6  and  N_14
REMARK    5  A    between atoms: C_20  and  O_21
REMARK    6  A    between atoms: C_20  and  C_22
REMARK                            x       y       z     vdW  Elec       q    Type
REMARK                         _______ _______ _______ _____ _____    ______ ____
ROOT
ATOM      1  N   UNL     1       0.854  13.478  19.524  0.00  0.00    +0.000 NA
ATOM      2  C   UNL     1       2.168  13.038  19.923  0.00  0.00    +0.000 C 
ATOM      3  C   UNL     1       2.913  13.388  18.625  0.00  0.00    +0.000 C 
ATOM      4  C   UNL     1       2.367  14.712  18.168  0.00  0.00    +0.000 C 
ATOM      5  C   UNL     1       1.255  14.946  19.225  0.00  0.00    +0.000 C 
ATOM      6  C   UNL     1       2.141  15.841  20.289  0.00  0.00    +0.000 C 
ATOM      7  C   UNL     1       2.941  15.029  21.376  0.00  0.00    +0.000 C 
ATOM      8  C   UNL     1       2.232  13.737  21.295  0.00  0.00    +0.000 C 
ENDROOT
BRANCH   7   9
ATOM      9  C   UNL     1       4.413  14.561  21.461  0.00  0.00    +0.000 C 
ATOM     10  C   UNL     1       5.420  15.351  20.623  0.00  0.00    +0.000 C 
ATOM     11  C   UNL     1       6.537  15.754  21.584  0.00  0.00    +0.000 C 
ATOM     12  N   UNL     1       5.937  15.780  22.874  0.00  0.00    +0.000 N 
ATOM     13  C   UNL     1       4.972  14.794  22.903  0.00  0.00    +0.000 C 
ATOM     14  O   UNL     1       4.711  14.196  23.936  0.00  0.00    +0.000 OA
ATOM     15  H   UNL     1       6.430  15.942  23.727  0.00  0.00    +0.000 HD
ENDBRANCH   7   9
BRANCH   7  16
ATOM     16  O   UNL     1       2.634  15.699  22.621  0.00  0.00    +0.000 OA
ATOM     17  H   UNL     1       2.032  16.440  22.436  0.00  0.00    +0.000 HD
ENDBRANCH   7  16
BRANCH   1  18
ATOM     18  C   UNL     1      -0.286  12.818  20.383  0.00  0.00    +0.000 C 
BRANCH  18  23
ATOM     19  C   UNL     1      -5.424  10.961  18.083  0.00  0.00    +0.000 C 
ATOM     20  C   UNL     1      -4.192  11.673  18.543  0.00  0.00    +0.000 A 
ATOM     21  C   UNL     1      -3.026  11.560  17.817  0.00  0.00    +0.000 A 
ATOM     22  C   UNL     1      -1.832  12.066  18.339  0.00  0.00    +0.000 A 
ATOM     23  C   UNL     1      -1.707  12.722  19.602  0.00  0.00    +0.000 A 
ATOM     24  C   UNL     1      -2.930  12.914  20.268  0.00  0.00    +0.000 A 
ATOM     25 CL   UNL     1      -3.036  13.715  21.794  0.00  0.00    +0.000 Cl
ATOM     26  C   UNL     1      -4.143  12.388  19.748  0.00  0.00    +0.000 A 
ENDBRANCH  18  23
BRANCH  18  27
ATOM     27  C   UNL     1      -0.120  11.402  21.120  0.00  0.00    +0.000 A 
ATOM     28  C   UNL     1      -0.533  11.229  22.482  0.00  0.00    +0.000 A 
ATOM     29  C   UNL     1      -0.684  10.006  23.121  0.00  0.00    +0.000 A 
ATOM     30  C   UNL     1      -0.367   8.870  22.418  0.00  0.00    +0.000 A 
ATOM     31  C   UNL     1       0.113   8.970  21.105  0.00  0.00    +0.000 A 
ATOM     32  C   UNL     1       0.237  10.221  20.460  0.00  0.00    +0.000 A 
ATOM     33 CL   UNL     1       0.771  10.211  18.821  0.00  0.00    +0.000 Cl
ENDBRANCH  18  27
ENDBRANCH   1  18
TORSDOF 5
ENDMDL
MODEL 5
REMARK VINA RESULT:      -6.3      1.597      2.138
REMARK  Name = 
REMARK  6 active torsions:
REMARK  status: ('A' for Active; 'I' for Inactive)
REMARK    1  A    between atoms: C_1  and  C_2
REMARK    2  A    between atoms: C_5  and  C_6
REMARK    3  A    between atoms: C_6  and  C_7
REMARK    4  A    between atoms: C_6  and  N_14
REMARK    5  A    between atoms: C_20  and  O_21
REMARK    6  A    between atoms: C_20  and  C_22
REMARK                            x       y       z     vdW  Elec       q    Type
REMARK                         _______ _______ _______ _____ _____    ______ ____
ROOT
ATOM      1  N   UNL     1       0.979  13.235  19.793  0.00  0.00    +0.000 NA
ATOM      2  C   UNL     1       2.378  13.342  19.458  0.00  0.00    +0.000 C 
ATOM      3  C   UNL     1       2.250  14.395  18.346  0.00  0.00    +0.000 C 
ATOM      4  C   UNL     1       1.228  15.389  18.819  0.00  0.00    +0.000 C 
ATOM      5  C   UNL     1       0.781  14.731  20.152  0.00  0.00    +0.000 C 
ATOM      6  C   UNL     1       1.814  15.531  21.156  0.00  0.00    +0.000 C 
ATOM      7  C   UNL     1       3.230  14.872  21.358  0.00  0.00    +0.000 C 
ATOM      8  C   UNL     1       2.939  13.504  20.884  0.00  0.00    +0.000 C 
ENDROOT
BRANCH   7   9
ATOM      9  C   UNL     1       4.609  15.130  20.704  0.00  0.00    +0.000 C 
ATOM     10  C   UNL     1       4.878  16.565  20.247  0.00  0.00    +0.000 C 
ATOM     11  C   UNL     1       6.216  16.957  20.871  0.00  0.00    +0.000 C 
ATOM     12  N   UNL     1       6.348  16.142  22.030  0.00  0.00    +0.000 N 
ATOM     13  C   UNL     1       5.751  14.928  21.754  0.00  0.00    +0.000 C 
ATOM     14  O   UNL     1       6.167  13.892  22.249  0.00  0.00    +0.000 OA
ATOM     15  H   UNL     1       7.155  16.114  22.617  0.00  0.00    +0.000 HD
ENDBRANCH   7   9
BRANCH   7  16
ATOM     16  O   UNL     1       3.430  14.881  22.791  0.00  0.00    +0.000 OA
ATOM     17  H   UNL     1       3.107  14.039  23.155  0.00  0.00    +0.000 HD
ENDBRANCH   7  16
BRANCH   1  18
ATOM     18  C   UNL     1       0.642  11.888  20.531  0.00  0.00    +0.000 C 
BRANCH  18  23
ATOM     19  C   UNL     1      -4.628  13.226  22.894  0.00  0.00    +0.000 C 
ATOM     20  C   UNL     1      -3.404  12.632  22.271  0.00  0.00    +0.000 A 
ATOM     21  C   UNL     1      -2.378  12.184  23.075  0.00  0.00    +0.000 A 
ATOM     22  C   UNL     1      -1.163  11.803  22.498  0.00  0.00    +0.000 A 
ATOM     23  C   UNL     1      -0.879  11.829  21.098  0.00  0.00    +0.000 A 
ATOM     24  C   UNL     1      -1.980  12.189  20.301  0.00  0.00    +0.000 A 
ATOM     25 CL   UNL     1      -1.891  12.256  18.578  0.00  0.00    +0.000 Cl
ATOM     26  C   UNL     1      -3.212  12.591  20.884  0.00  0.00    +0.000 A 
ENDBRANCH  18  23
BRANCH  18  27
ATOM     27  C   UNL     1       0.900  10.443  19.882  0.00  0.00    +0.000 A 
ATOM     28  C   UNL     1       1.026  10.285  18.463  0.00  0.00    +0.000 A 
ATOM     29  C   UNL     1       1.509   9.151  17.825  0.00  0.00    +0.000 A 
ATOM     30  C   UNL     1       1.848   8.072  18.603  0.00  0.00    +0.000 A 
ATOM     31  C   UNL     1       1.682   8.131  19.993  0.00  0.00    +0.000 A 
ATOM     32  C   UNL     1       1.213   9.303  20.630  0.00  0.00    +0.000 A 
ATOM     33 CL   UNL     1       1.116   9.278  22.351  0.00  0.00    +0.000 Cl
ENDBRANCH  18  27
ENDBRANCH   1  18
TORSDOF 5
ENDMDL
MODEL 6
REMARK VINA RESULT:      -6.3      3.796      6.818
REMARK  Name = 
REMARK  6 active torsions:
REMARK  status: ('A' for Active; 'I' for Inactive)
REMARK    1  A    between atoms: C_1  and  C_2
REMARK    2  A    between atoms: C_5  and  C_6
REMARK    3  A    between atoms: C_6  and  C_7
REMARK    4  A    between atoms: C_6  and  N_14
REMARK    5  A    between atoms: C_20  and  O_21
REMARK    6  A    between atoms: C_20  and  C_22
REMARK                            x       y       z     vdW  Elec       q    Type
REMARK                         _______ _______ _______ _____ _____    ______ ____
ROOT
ATOM      1  N   UNL     1      -2.185  13.344  20.193  0.00  0.00    +0.000 NA
ATOM      2  C   UNL     1      -2.154  11.959  19.792  0.00  0.00    +0.000 C 
ATOM      3  C   UNL     1      -1.549  12.156  18.393  0.00  0.00    +0.000 C 
ATOM      4  C   UNL     1      -0.485  13.207  18.536  0.00  0.00    +0.000 C 
ATOM      5  C   UNL     1      -0.663  13.595  20.029  0.00  0.00    +0.000 C 
ATOM      6  C   UNL     1       0.464  12.573  20.663  0.00  0.00    +0.000 C 
ATOM      7  C   UNL     1      -0.043  11.127  21.026  0.00  0.00    +0.000 C 
ATOM      8  C   UNL     1      -1.499  11.372  21.057  0.00  0.00    +0.000 C 
ENDROOT
BRANCH   7   9
ATOM      9  C   UNL     1       0.019   9.775  20.275  0.00  0.00    +0.000 C 
ATOM     10  C   UNL     1       1.248   9.553  19.390  0.00  0.00    +0.000 C 
ATOM     11  C   UNL     1       1.829   8.206  19.815  0.00  0.00    +0.000 C 
ATOM     12  N   UNL     1       1.411   8.019  21.162  0.00  0.00    +0.000 N 
ATOM     13  C   UNL     1       0.164   8.597  21.293  0.00  0.00    +0.000 C 
ATOM     14  O   UNL     1      -0.665   8.142  22.067  0.00  0.00    +0.000 OA
ATOM     15  H   UNL     1       1.575   7.194  21.699  0.00  0.00    +0.000 HD
ENDBRANCH   7   9
BRANCH   7  16
ATOM     16  O   UNL     1       0.461  10.895  22.362  0.00  0.00    +0.000 OA
ATOM     17  H   UNL     1       0.888  10.021  22.386  0.00  0.00    +0.000 HD
ENDBRANCH   7  16
BRANCH   1  18
ATOM     18  C   UNL     1      -3.208  13.609  21.356  0.00  0.00    +0.000 C 
BRANCH  18  23
ATOM     19  C   UNL     1      -3.871  18.459  24.700  0.00  0.00    +0.000 C 
ATOM     20  C   UNL     1      -3.493  17.375  23.740  0.00  0.00    +0.000 A 
ATOM     21  C   UNL     1      -4.156  17.267  22.537  0.00  0.00    +0.000 A 
ATOM     22  C   UNL     1      -3.937  16.152  21.723  0.00  0.00    +0.000 A 
ATOM     23  C   UNL     1      -3.048  15.077  22.032  0.00  0.00    +0.000 A 
ATOM     24  C   UNL     1      -2.311  15.270  23.213  0.00  0.00    +0.000 A 
ATOM     25 CL   UNL     1      -1.148  14.125  23.775  0.00  0.00    +0.000 Cl
ATOM     26  C   UNL     1      -2.542  16.394  24.051  0.00  0.00    +0.000 A 
ENDBRANCH  18  23
BRANCH  18  27
ATOM     27  C   UNL     1      -4.791  13.393  21.198  0.00  0.00    +0.000 A 
ATOM     28  C   UNL     1      -5.413  13.422  19.907  0.00  0.00    +0.000 A 
ATOM     29  C   UNL     1      -6.702  12.990  19.632  0.00  0.00    +0.000 A 
ATOM     30  C   UNL     1      -7.468  12.543  20.681  0.00  0.00    +0.000 A 
ATOM     31  C   UNL     1      -6.948  12.556  21.982  0.00  0.00    +0.000 A 
ATOM     32  C   UNL     1      -5.624  12.976  22.242  0.00  0.00    +0.000 A 
ATOM     33 CL   UNL     1      -5.075  12.880  23.874  0.00  0.00    +0.000 Cl
ENDBRANCH  18  27
ENDBRANCH   1  18
TORSDOF 5
ENDMDL
MODEL 7
REMARK VINA RESULT:      -6.3      1.082      1.367
REMARK  Name = 
REMARK  6 active torsions:
REMARK  status: ('A' for Active; 'I' for Inactive)
REMARK    1  A    between atoms: C_1  and  C_2
REMARK    2  A    between atoms: C_5  and  C_6
REMARK    3  A    between atoms: C_6  and  C_7
REMARK    4  A    between atoms: C_6  and  N_14
REMARK    5  A    between atoms: C_20  and  O_21
REMARK    6  A    between atoms: C_20  and  C_22
REMARK                            x       y       z     vdW  Elec       q    Type
REMARK                         _______ _______ _______ _____ _____    ______ ____
ROOT
ATOM      1  N   UNL     1       0.852  13.452  19.570  0.00  0.00    +0.000 NA
ATOM      2  C   UNL     1       2.219  13.141  19.907  0.00  0.00    +0.000 C 
ATOM      3  C   UNL     1       2.878  13.660  18.619  0.00  0.00    +0.000 C 
ATOM      4  C   UNL     1       2.173  14.939  18.267  0.00  0.00    +0.000 C 
ATOM      5  C   UNL     1       1.075  14.973  19.364  0.00  0.00    +0.000 C 
ATOM      6  C   UNL     1       1.887  15.892  20.466  0.00  0.00    +0.000 C 
ATOM      7  C   UNL     1       2.806  15.108  21.476  0.00  0.00    +0.000 C 
ATOM      8  C   UNL     1       2.246  13.750  21.322  0.00  0.00    +0.000 C 
ENDROOT
BRANCH   7   9
ATOM      9  C   UNL     1       4.325  14.807  21.493  0.00  0.00    +0.000 C 
ATOM     10  C   UNL     1       5.217  15.806  20.754  0.00  0.00    +0.000 C 
ATOM     11  C   UNL     1       6.299  16.215  21.751  0.00  0.00    +0.000 C 
ATOM     12  N   UNL     1       5.726  16.013  23.038  0.00  0.00    +0.000 N 
ATOM     13  C   UNL     1       4.882  14.925  22.950  0.00  0.00    +0.000 C 
ATOM     14  O   UNL     1       4.711  14.179  23.902  0.00  0.00    +0.000 OA
ATOM     15  H   UNL     1       6.214  16.126  23.901  0.00  0.00    +0.000 HD
ENDBRANCH   7   9
BRANCH   7  16
ATOM     16  O   UNL     1       2.465  15.654  22.771  0.00  0.00    +0.000 OA
ATOM     17  H   UNL     1       2.931  16.500  22.884  0.00  0.00    +0.000 HD
ENDBRANCH   7  16
BRANCH   1  18
ATOM     18  C   UNL     1      -0.178  12.610  20.408  0.00  0.00    +0.000 C 
BRANCH  18  23
ATOM     19  C   UNL     1      -6.001  11.958  19.503  0.00  0.00    +0.000 C 
ATOM     20  C   UNL     1      -4.555  12.341  19.559  0.00  0.00    +0.000 A 
ATOM     21  C   UNL     1      -3.651  11.715  18.729  0.00  0.00    +0.000 A 
ATOM     22  C   UNL     1      -2.281  11.932  18.907  0.00  0.00    +0.000 A 
ATOM     23  C   UNL     1      -1.712  12.784  19.904  0.00  0.00    +0.000 A 
ATOM     24  C   UNL     1      -2.665  13.487  20.662  0.00  0.00    +0.000 A 
ATOM     25 CL   UNL     1      -2.218  14.602  21.902  0.00  0.00    +0.000 Cl
ATOM     26  C   UNL     1      -4.057  13.256  20.495  0.00  0.00    +0.000 A 
ENDBRANCH  18  23
BRANCH  18  27
ATOM     27  C   UNL     1      -0.007  11.039  20.685  0.00  0.00    +0.000 A 
ATOM     28  C   UNL     1       0.725  10.206  19.777  0.00  0.00    +0.000 A 
ATOM     29  C   UNL     1       1.157   8.915  20.048  0.00  0.00    +0.000 A 
ATOM     30  C   UNL     1       0.819   8.366  21.261  0.00  0.00    +0.000 A 
ATOM     31  C   UNL     1       0.042   9.098  22.169  0.00  0.00    +0.000 A 
ATOM     32  C   UNL     1      -0.369  10.421  21.888  0.00  0.00    +0.000 A 
ATOM     33 CL   UNL     1      -1.261  11.244  23.111  0.00  0.00    +0.000 Cl
ENDBRANCH  18  27
ENDBRANCH   1  18
TORSDOF 5
ENDMDL
MODEL 8
REMARK VINA RESULT:      -6.1      1.713      2.242
REMARK  Name = 
REMARK  6 active torsions:
REMARK  status: ('A' for Active; 'I' for Inactive)
REMARK    1  A    between atoms: C_1  and  C_2
REMARK    2  A    between atoms: C_5  and  C_6
REMARK    3  A    between atoms: C_6  and  C_7
REMARK    4  A    between atoms: C_6  and  N_14
REMARK    5  A    between atoms: C_20  and  O_21
REMARK    6  A    between atoms: C_20  and  C_22
REMARK                            x       y       z     vdW  Elec       q    Type
REMARK                         _______ _______ _______ _____ _____    ______ ____
ROOT
ATOM      1  N   UNL     1       0.908  13.577  19.719  0.00  0.00    +0.000 NA
ATOM      2  C   UNL     1       2.104  13.744  20.507  0.00  0.00    +0.000 C 
ATOM      3  C   UNL     1       3.103  13.893  19.349  0.00  0.00    +0.000 C 
ATOM      4  C   UNL     1       2.427  14.748  18.314  0.00  0.00    +0.000 C 
ATOM      5  C   UNL     1       1.025  14.923  18.957  0.00  0.00    +0.000 C 
ATOM      6  C   UNL     1       1.312  16.346  19.738  0.00  0.00    +0.000 C 
ATOM      7  C   UNL     1       1.911  16.228  21.190  0.00  0.00    +0.000 C 
ATOM      8  C   UNL     1       1.584  14.818  21.482  0.00  0.00    +0.000 C 
ENDROOT
BRANCH   7   9
ATOM      9  C   UNL     1       3.356  16.322  21.737  0.00  0.00    +0.000 C 
ATOM     10  C   UNL     1       4.306  17.247  20.974  0.00  0.00    +0.000 C 
ATOM     11  C   UNL     1       4.913  18.178  22.023  0.00  0.00    +0.000 C 
ATOM     12  N   UNL     1       3.964  18.226  23.082  0.00  0.00    +0.000 N 
ATOM     13  C   UNL     1       3.355  16.989  23.152  0.00  0.00    +0.000 C 
ATOM     14  O   UNL     1       2.969  16.534  24.218  0.00  0.00    +0.000 OA
ATOM     15  H   UNL     1       4.104  18.700  23.950  0.00  0.00    +0.000 HD
ENDBRANCH   7   9
BRANCH   7  16
ATOM     16  O   UNL     1       1.094  17.115  21.989  0.00  0.00    +0.000 OA
ATOM     17  H   UNL     1       1.661  17.819  22.349  0.00  0.00    +0.000 HD
ENDBRANCH   7  16
BRANCH   1  18
ATOM     18  C   UNL     1      -0.250  12.885  20.526  0.00  0.00    +0.000 C 
BRANCH  18  23
ATOM     19  C   UNL     1      -5.283  10.947  18.064  0.00  0.00    +0.000 C 
ATOM     20  C   UNL     1      -4.072  11.675  18.555  0.00  0.00    +0.000 A 
ATOM     21  C   UNL     1      -2.875  11.538  17.885  0.00  0.00    +0.000 A 
ATOM     22  C   UNL     1      -1.705  12.063  18.442  0.00  0.00    +0.000 A 
ATOM     23  C   UNL     1      -1.635  12.762  19.687  0.00  0.00    +0.000 A 
ATOM     24  C   UNL     1      -2.887  12.975  20.290  0.00  0.00    +0.000 A 
ATOM     25 CL   UNL     1      -3.061  13.827  21.782  0.00  0.00    +0.000 Cl
ATOM     26  C   UNL     1      -4.076  12.430  19.735  0.00  0.00    +0.000 A 
ENDBRANCH  18  23
BRANCH  18  27
ATOM     27  C   UNL     1      -0.082  11.469  21.262  0.00  0.00    +0.000 A 
ATOM     28  C   UNL     1      -0.661  11.235  22.552  0.00  0.00    +0.000 A 
ATOM     29  C   UNL     1      -0.807   9.991  23.149  0.00  0.00    +0.000 A 
ATOM     30  C   UNL     1      -0.315   8.897  22.482  0.00  0.00    +0.000 A 
ATOM     31  C   UNL     1       0.329   9.060  21.248  0.00  0.00    +0.000 A 
ATOM     32  C   UNL     1       0.446  10.331  20.641  0.00  0.00    +0.000 A 
ATOM     33 CL   UNL     1       1.197  10.396  19.090  0.00  0.00    +0.000 Cl
ENDBRANCH  18  27
ENDBRANCH   1  18
TORSDOF 5
ENDMDL
MODEL 9
REMARK VINA RESULT:      -6.1      2.051      3.334
REMARK  Name = 
REMARK  6 active torsions:
REMARK  status: ('A' for Active; 'I' for Inactive)
REMARK    1  A    between atoms: C_1  and  C_2
REMARK    2  A    between atoms: C_5  and  C_6
REMARK    3  A    between atoms: C_6  and  C_7
REMARK    4  A    between atoms: C_6  and  N_14
REMARK    5  A    between atoms: C_20  and  O_21
REMARK    6  A    between atoms: C_20  and  C_22
REMARK                            x       y       z     vdW  Elec       q    Type
REMARK                         _______ _______ _______ _____ _____    ______ ____
ROOT
ATOM      1  N   UNL     1       0.000  14.057  19.473  0.00  0.00    +0.000 NA
ATOM      2  C   UNL     1       1.434  14.188  19.559  0.00  0.00    +0.000 C 
ATOM      3  C   UNL     1       1.611  15.288  18.500  0.00  0.00    +0.000 C 
ATOM      4  C   UNL     1       0.478  16.254  18.699  0.00  0.00    +0.000 C 
ATOM      5  C   UNL     1      -0.320  15.535  19.820  0.00  0.00    +0.000 C 
ATOM      6  C   UNL     1       0.367  16.297  21.110  0.00  0.00    +0.000 C 
ATOM      7  C   UNL     1       1.677  15.638  21.683  0.00  0.00    +0.000 C 
ATOM      8  C   UNL     1       1.559  14.290  21.091  0.00  0.00    +0.000 C 
ENDROOT
BRANCH   7   9
ATOM      9  C   UNL     1       3.181  15.933  21.464  0.00  0.00    +0.000 C 
ATOM     10  C   UNL     1       3.545  17.391  21.180  0.00  0.00    +0.000 C 
ATOM     11  C   UNL     1       4.644  17.748  22.180  0.00  0.00    +0.000 C 
ATOM     12  N   UNL     1       4.454  16.869  23.283  0.00  0.00    +0.000 N 
ATOM     13  C   UNL     1       3.980  15.673  22.784  0.00  0.00    +0.000 C 
ATOM     14  O   UNL     1       4.255  14.610  23.321  0.00  0.00    +0.000 OA
ATOM     15  H   UNL     1       5.061  16.809  24.073  0.00  0.00    +0.000 HD
ENDBRANCH   7   9
BRANCH   7  16
ATOM     16  O   UNL     1       1.457  15.585  23.112  0.00  0.00    +0.000 OA
ATOM     17  H   UNL     1       0.640  16.071  23.319  0.00  0.00    +0.000 HD
ENDBRANCH   7  16
BRANCH   1  18
ATOM     18  C   UNL     1      -0.510  12.678  20.028  0.00  0.00    +0.000 C 
BRANCH  18  23
ATOM     19  C   UNL     1      -4.413  12.387  24.481  0.00  0.00    +0.000 C 
ATOM     20  C   UNL     1      -3.262  12.584  23.545  0.00  0.00    +0.000 A 
ATOM     21  C   UNL     1      -3.237  13.685  22.716  0.00  0.00    +0.000 A 
ATOM     22  C   UNL     1      -2.266  13.776  21.714  0.00  0.00    +0.000 A 
ATOM     23  C   UNL     1      -1.254  12.798  21.466  0.00  0.00    +0.000 A 
ATOM     24  C   UNL     1      -1.244  11.743  22.395  0.00  0.00    +0.000 A 
ATOM     25 CL   UNL     1      -0.091  10.460  22.322  0.00  0.00    +0.000 Cl
ATOM     26  C   UNL     1      -2.238  11.638  23.404  0.00  0.00    +0.000 A 
ENDBRANCH  18  23
BRANCH  18  27
ATOM     27  C   UNL     1      -1.420  11.670  19.172  0.00  0.00    +0.000 A 
ATOM     28  C   UNL     1      -2.818  11.923  18.981  0.00  0.00    +0.000 A 
ATOM     29  C   UNL     1      -3.627  11.279  18.055  0.00  0.00    +0.000 A 
ATOM     30  C   UNL     1      -3.065  10.285  17.292  0.00  0.00    +0.000 A 
ATOM     31  C   UNL     1      -1.720   9.936  17.476  0.00  0.00    +0.000 A 
ATOM     32  C   UNL     1      -0.903  10.619  18.406  0.00  0.00    +0.000 A 
ATOM     33 CL   UNL     1       0.752  10.147  18.494  0.00  0.00    +0.000 Cl
ENDBRANCH  18  27
ENDBRANCH   1  18
TORSDOF 5
ENDMDL
