MODEL 1
REMARK VINA RESULT:      -4.9      0.000      0.000
REMARK  Name = 
REMARK  8 active torsions:
REMARK  status: ('A' for Active; 'I' for Inactive)
REMARK    1  A    between atoms: C_1  and  C_2
REMARK    2  A    between atoms: C_2  and  C_3
REMARK    3  A    between atoms: C_2  and  C_5
REMARK    4  A    between atoms: C_2  and  N_7
REMARK    5  A    between atoms: C_3  and  O_4
REMARK    6  A    between atoms: C_5  and  O_6
REMARK    7  A    between atoms: C_8  and  C_10
REMARK    8  A    between atoms: C_10  and  O_11
REMARK                            x       y       z     vdW  Elec       q    Type
REMARK                         _______ _______ _______ _____ _____    ______ ____
ROOT
ATOM      1  C   UNL     1       2.919   4.775  18.861  0.00  0.00    +0.000 C 
ATOM      2  C   UNL     1       3.749   3.511  18.575  0.00  0.00    +0.000 C 
ENDROOT
BRANCH   2   3
ATOM      3  N   UNL     1       4.957   3.844  17.784  0.00  0.00    +0.000 N 
ATOM      4  C   UNL     1       6.041   4.523  18.310  0.00  0.00    +0.000 C 
ATOM      5  O   UNL     1       6.094   4.992  19.443  0.00  0.00    +0.000 OA
ATOM      6  H   UNL     1       5.170   3.222  17.016  0.00  0.00    +0.000 HD
BRANCH   4   7
ATOM      7  C   UNL     1       7.206   4.705  17.331  0.00  0.00    +0.000 C 
BRANCH   7   8
ATOM      8  O   UNL     1       8.362   3.989  17.737  0.00  0.00    +0.000 OA
ATOM      9  H   UNL     1       8.425   4.109  18.706  0.00  0.00    +0.000 HD
ENDBRANCH   7   8
ENDBRANCH   4   7
ENDBRANCH   2   3
BRANCH   2  10
ATOM     10  C   UNL     1       4.131   2.818  19.914  0.00  0.00    +0.000 C 
BRANCH  10  11
ATOM     11  O   UNL     1       5.133   1.812  19.737  0.00  0.00    +0.000 OA
ATOM     12  H   UNL     1       4.664   0.996  19.466  0.00  0.00    +0.000 HD
ENDBRANCH  10  11
ENDBRANCH   2  10
BRANCH   2  13
ATOM     13  C   UNL     1       2.854   2.560  17.732  0.00  0.00    +0.000 C 
BRANCH  13  14
ATOM     14  O   UNL     1       2.645   1.309  18.398  0.00  0.00    +0.000 OA
ATOM     15  H   UNL     1       2.219   0.704  17.769  0.00  0.00    +0.000 HD
ENDBRANCH  13  14
ENDBRANCH   2  13
TORSDOF 7
ENDMDL
MODEL 2
REMARK VINA RESULT:      -4.8      1.721      4.037
REMARK  Name = 
REMARK  8 active torsions:
REMARK  status: ('A' for Active; 'I' for Inactive)
REMARK    1  A    between atoms: C_1  and  C_2
REMARK    2  A    between atoms: C_2  and  C_3
REMARK    3  A    between atoms: C_2  and  C_5
REMARK    4  A    between atoms: C_2  and  N_7
REMARK    5  A    between atoms: C_3  and  O_4
REMARK    6  A    between atoms: C_5  and  O_6
REMARK    7  A    between atoms: C_8  and  C_10
REMARK    8  A    between atoms: C_10  and  O_11
REMARK                            x       y       z     vdW  Elec       q    Type
REMARK                         _______ _______ _______ _____ _____    ______ ____
ROOT
ATOM      1  C   UNL     1       6.190   3.844  15.284  0.00  0.00    +0.000 C 
ATOM      2  C   UNL     1       5.968   4.542  16.638  0.00  0.00    +0.000 C 
ENDROOT
BRANCH   2   3
ATOM      3  N   UNL     1       5.327   3.620  17.605  0.00  0.00    +0.000 N 
ATOM      4  C   UNL     1       4.958   4.003  18.883  0.00  0.00    +0.000 C 
ATOM      5  O   UNL     1       5.190   5.100  19.382  0.00  0.00    +0.000 OA
ATOM      6  H   UNL     1       4.782   2.868  17.207  0.00  0.00    +0.000 HD
BRANCH   4   7
ATOM      7  C   UNL     1       4.254   2.907  19.690  0.00  0.00    +0.000 C 
BRANCH   7   8
ATOM      8  O   UNL     1       5.123   1.828  19.998  0.00  0.00    +0.000 OA
ATOM      9  H   UNL     1       5.570   1.596  19.158  0.00  0.00    +0.000 HD
ENDBRANCH   7   8
ENDBRANCH   4   7
ENDBRANCH   2   3
BRANCH   2  10
ATOM     10  C   UNL     1       7.325   5.073  17.185  0.00  0.00    +0.000 C 
BRANCH  10  11
ATOM     11  O   UNL     1       8.194   4.014  17.596  0.00  0.00    +0.000 OA
ATOM     12  H   UNL     1       9.090   4.404  17.675  0.00  0.00    +0.000 HD
ENDBRANCH  10  11
ENDBRANCH   2  10
BRANCH   2  13
ATOM     13  C   UNL     1       5.005   5.736  16.382  0.00  0.00    +0.000 C 
BRANCH  13  14
ATOM     14  O   UNL     1       5.727   6.938  16.094  0.00  0.00    +0.000 OA
ATOM     15  H   UNL     1       5.081   7.655  15.983  0.00  0.00    +0.000 HD
ENDBRANCH  13  14
ENDBRANCH   2  13
TORSDOF 7
ENDMDL
MODEL 3
REMARK VINA RESULT:      -4.7      2.091      4.398
REMARK  Name = 
REMARK  8 active torsions:
REMARK  status: ('A' for Active; 'I' for Inactive)
REMARK    1  A    between atoms: C_1  and  C_2
REMARK    2  A    between atoms: C_2  and  C_3
REMARK    3  A    between atoms: C_2  and  C_5
REMARK    4  A    between atoms: C_2  and  N_7
REMARK    5  A    between atoms: C_3  and  O_4
REMARK    6  A    between atoms: C_5  and  O_6
REMARK    7  A    between atoms: C_8  and  C_10
REMARK    8  A    between atoms: C_10  and  O_11
REMARK                            x       y       z     vdW  Elec       q    Type
REMARK                         _______ _______ _______ _____ _____    ______ ____
ROOT
ATOM      1  C   UNL     1       7.199   5.669  17.634  0.00  0.00    +0.000 C 
ATOM      2  C   UNL     1       6.051   4.989  16.866  0.00  0.00    +0.000 C 
ENDROOT
BRANCH   2   3
ATOM      3  N   UNL     1       5.460   3.892  17.667  0.00  0.00    +0.000 N 
ATOM      4  C   UNL     1       4.818   4.100  18.875  0.00  0.00    +0.000 C 
ATOM      5  O   UNL     1       4.738   5.181  19.451  0.00  0.00    +0.000 OA
ATOM      6  H   UNL     1       5.151   3.081  17.150  0.00  0.00    +0.000 HD
BRANCH   4   7
ATOM      7  C   UNL     1       4.228   2.832  19.501  0.00  0.00    +0.000 C 
BRANCH   7   8
ATOM      8  O   UNL     1       5.235   1.942  19.957  0.00  0.00    +0.000 OA
ATOM      9  H   UNL     1       6.001   2.504  20.195  0.00  0.00    +0.000 HD
ENDBRANCH   7   8
ENDBRANCH   4   7
ENDBRANCH   2   3
BRANCH   2  10
ATOM     10  C   UNL     1       4.975   6.046  16.484  0.00  0.00    +0.000 C 
BRANCH  10  11
ATOM     11  O   UNL     1       5.284   6.714  15.257  0.00  0.00    +0.000 OA
ATOM     12  H   UNL     1       5.252   7.675  15.448  0.00  0.00    +0.000 HD
ENDBRANCH  10  11
ENDBRANCH   2  10
BRANCH   2  13
ATOM     13  C   UNL     1       6.666   4.380  15.574  0.00  0.00    +0.000 C 
BRANCH  13  14
ATOM     14  O   UNL     1       7.581   5.288  14.951  0.00  0.00    +0.000 OA
ATOM     15  H   UNL     1       8.395   4.799  14.749  0.00  0.00    +0.000 HD
ENDBRANCH  13  14
ENDBRANCH   2  13
TORSDOF 7
ENDMDL
MODEL 4
REMARK VINA RESULT:      -4.7      1.711      2.378
REMARK  Name = 
REMARK  8 active torsions:
REMARK  status: ('A' for Active; 'I' for Inactive)
REMARK    1  A    between atoms: C_1  and  C_2
REMARK    2  A    between atoms: C_2  and  C_3
REMARK    3  A    between atoms: C_2  and  C_5
REMARK    4  A    between atoms: C_2  and  N_7
REMARK    5  A    between atoms: C_3  and  O_4
REMARK    6  A    between atoms: C_5  and  O_6
REMARK    7  A    between atoms: C_8  and  C_10
REMARK    8  A    between atoms: C_10  and  O_11
REMARK                            x       y       z     vdW  Elec       q    Type
REMARK                         _______ _______ _______ _____ _____    ______ ____
ROOT
ATOM      1  C   UNL     1       4.096   3.260  17.451  0.00  0.00    +0.000 C 
ATOM      2  C   UNL     1       4.329   3.726  18.900  0.00  0.00    +0.000 C 
ENDROOT
BRANCH   2   3
ATOM      3  N   UNL     1       5.745   4.107  19.107  0.00  0.00    +0.000 N 
ATOM      4  C   UNL     1       6.275   5.309  18.673  0.00  0.00    +0.000 C 
ATOM      5  O   UNL     1       5.670   6.144  18.007  0.00  0.00    +0.000 OA
ATOM      6  H   UNL     1       6.201   3.703  19.914  0.00  0.00    +0.000 HD
BRANCH   4   7
ATOM      7  C   UNL     1       7.745   5.522  19.049  0.00  0.00    +0.000 C 
BRANCH   7   8
ATOM      8  O   UNL     1       7.950   5.478  20.453  0.00  0.00    +0.000 OA
ATOM      9  H   UNL     1       8.851   5.830  20.603  0.00  0.00    +0.000 HD
ENDBRANCH   7   8
ENDBRANCH   4   7
ENDBRANCH   2   3
BRANCH   2  10
ATOM     10  C   UNL     1       3.375   4.909  19.233  0.00  0.00    +0.000 C 
BRANCH  10  11
ATOM     11  O   UNL     1       3.044   4.962  20.623  0.00  0.00    +0.000 OA
ATOM     12  H   UNL     1       2.675   4.084  20.856  0.00  0.00    +0.000 HD
ENDBRANCH  10  11
ENDBRANCH   2  10
BRANCH   2  13
ATOM     13  C   UNL     1       4.003   2.518  19.824  0.00  0.00    +0.000 C 
BRANCH  13  14
ATOM     14  O   UNL     1       5.169   1.728  20.084  0.00  0.00    +0.000 OA
ATOM     15  H   UNL     1       5.876   2.327  20.373  0.00  0.00    +0.000 HD
ENDBRANCH  13  14
ENDBRANCH   2  13
TORSDOF 7
ENDMDL
MODEL 5
REMARK VINA RESULT:      -4.7      1.323      1.323
REMARK  Name = 
REMARK  8 active torsions:
REMARK  status: ('A' for Active; 'I' for Inactive)
REMARK    1  A    between atoms: C_1  and  C_2
REMARK    2  A    between atoms: C_2  and  C_3
REMARK    3  A    between atoms: C_2  and  C_5
REMARK    4  A    between atoms: C_2  and  N_7
REMARK    5  A    between atoms: C_3  and  O_4
REMARK    6  A    between atoms: C_5  and  O_6
REMARK    7  A    between atoms: C_8  and  C_10
REMARK    8  A    between atoms: C_10  and  O_11
REMARK                            x       y       z     vdW  Elec       q    Type
REMARK                         _______ _______ _______ _____ _____    ______ ____
ROOT
ATOM      1  C   UNL     1       3.431   4.609  19.289  0.00  0.00    +0.000 C 
ATOM      2  C   UNL     1       4.226   3.331  18.967  0.00  0.00    +0.000 C 
ENDROOT
BRANCH   2   3
ATOM      3  N   UNL     1       5.579   3.667  18.465  0.00  0.00    +0.000 N 
ATOM      4  C   UNL     1       5.800   4.525  17.402  0.00  0.00    +0.000 C 
ATOM      5  O   UNL     1       4.918   5.030  16.713  0.00  0.00    +0.000 OA
ATOM      6  H   UNL     1       6.328   3.620  19.143  0.00  0.00    +0.000 HD
BRANCH   4   7
ATOM      7  C   UNL     1       7.279   4.779  17.094  0.00  0.00    +0.000 C 
BRANCH   7   8
ATOM      8  O   UNL     1       7.473   5.969  16.347  0.00  0.00    +0.000 OA
ATOM      9  H   UNL     1       6.580   6.259  16.068  0.00  0.00    +0.000 HD
ENDBRANCH   7   8
ENDBRANCH   4   7
ENDBRANCH   2   3
BRANCH   2  10
ATOM     10  C   UNL     1       4.306   2.428  20.231  0.00  0.00    +0.000 C 
BRANCH  10  11
ATOM     11  O   UNL     1       5.252   1.365  20.079  0.00  0.00    +0.000 OA
ATOM     12  H   UNL     1       5.769   1.332  20.911  0.00  0.00    +0.000 HD
ENDBRANCH  10  11
ENDBRANCH   2  10
BRANCH   2  13
ATOM     13  C   UNL     1       3.454   2.586  17.841  0.00  0.00    +0.000 C 
BRANCH  13  14
ATOM     14  O   UNL     1       2.914   1.345  18.310  0.00  0.00    +0.000 OA
ATOM     15  H   UNL     1       3.517   0.635  18.036  0.00  0.00    +0.000 HD
ENDBRANCH  13  14
ENDBRANCH   2  13
TORSDOF 7
ENDMDL
MODEL 6
REMARK VINA RESULT:      -4.7      1.404      1.876
REMARK  Name = 
REMARK  8 active torsions:
REMARK  status: ('A' for Active; 'I' for Inactive)
REMARK    1  A    between atoms: C_1  and  C_2
REMARK    2  A    between atoms: C_2  and  C_3
REMARK    3  A    between atoms: C_2  and  C_5
REMARK    4  A    between atoms: C_2  and  N_7
REMARK    5  A    between atoms: C_3  and  O_4
REMARK    6  A    between atoms: C_5  and  O_6
REMARK    7  A    between atoms: C_8  and  C_10
REMARK    8  A    between atoms: C_10  and  O_11
REMARK                            x       y       z     vdW  Elec       q    Type
REMARK                         _______ _______ _______ _____ _____    ______ ____
ROOT
ATOM      1  C   UNL     1       3.494   3.556  17.398  0.00  0.00    +0.000 C 
ATOM      2  C   UNL     1       4.183   3.511  18.774  0.00  0.00    +0.000 C 
ENDROOT
BRANCH   2   3
ATOM      3  N   UNL     1       5.625   3.827  18.648  0.00  0.00    +0.000 N 
ATOM      4  C   UNL     1       6.095   5.056  18.218  0.00  0.00    +0.000 C 
ATOM      5  O   UNL     1       5.389   5.977  17.819  0.00  0.00    +0.000 OA
ATOM      6  H   UNL     1       6.246   3.322  19.265  0.00  0.00    +0.000 HD
BRANCH   4   7
ATOM      7  C   UNL     1       7.622   5.183  18.225  0.00  0.00    +0.000 C 
BRANCH   7   8
ATOM      8  O   UNL     1       8.257   4.034  17.687  0.00  0.00    +0.000 OA
ATOM      9  H   UNL     1       8.605   3.537  18.454  0.00  0.00    +0.000 HD
ENDBRANCH   7   8
ENDBRANCH   4   7
ENDBRANCH   2   3
BRANCH   2  10
ATOM     10  C   UNL     1       3.477   4.496  19.749  0.00  0.00    +0.000 C 
BRANCH  10  11
ATOM     11  O   UNL     1       2.742   3.814  20.769  0.00  0.00    +0.000 OA
ATOM     12  H   UNL     1       1.793   3.957  20.572  0.00  0.00    +0.000 HD
ENDBRANCH  10  11
ENDBRANCH   2  10
BRANCH   2  13
ATOM     13  C   UNL     1       4.042   2.057  19.307  0.00  0.00    +0.000 C 
BRANCH  13  14
ATOM     14  O   UNL     1       5.083   1.737  20.235  0.00  0.00    +0.000 OA
ATOM     15  H   UNL     1       4.868   2.158  21.083  0.00  0.00    +0.000 HD
ENDBRANCH  13  14
ENDBRANCH   2  13
TORSDOF 7
ENDMDL
MODEL 7
REMARK VINA RESULT:      -4.7      1.649      4.545
REMARK  Name = 
REMARK  8 active torsions:
REMARK  status: ('A' for Active; 'I' for Inactive)
REMARK    1  A    between atoms: C_1  and  C_2
REMARK    2  A    between atoms: C_2  and  C_3
REMARK    3  A    between atoms: C_2  and  C_5
REMARK    4  A    between atoms: C_2  and  N_7
REMARK    5  A    between atoms: C_3  and  O_4
REMARK    6  A    between atoms: C_5  and  O_6
REMARK    7  A    between atoms: C_8  and  C_10
REMARK    8  A    between atoms: C_10  and  O_11
REMARK                            x       y       z     vdW  Elec       q    Type
REMARK                         _______ _______ _______ _____ _____    ______ ____
ROOT
ATOM      1  C   UNL     1       5.288   6.139  17.434  0.00  0.00    +0.000 C 
ATOM      2  C   UNL     1       6.066   4.811  17.376  0.00  0.00    +0.000 C 
ENDROOT
BRANCH   2   3
ATOM      3  N   UNL     1       5.352   3.751  18.125  0.00  0.00    +0.000 N 
ATOM      4  C   UNL     1       4.059   3.358  17.830  0.00  0.00    +0.000 C 
ATOM      5  O   UNL     1       3.339   3.886  16.987  0.00  0.00    +0.000 OA
ATOM      6  H   UNL     1       5.931   3.040  18.549  0.00  0.00    +0.000 HD
BRANCH   4   7
ATOM      7  C   UNL     1       3.540   2.202  18.691  0.00  0.00    +0.000 C 
BRANCH   7   8
ATOM      8  O   UNL     1       2.455   1.523  18.078  0.00  0.00    +0.000 OA
ATOM      9  H   UNL     1       1.791   1.387  18.784  0.00  0.00    +0.000 HD
ENDBRANCH   7   8
ENDBRANCH   4   7
ENDBRANCH   2   3
BRANCH   2  10
ATOM     10  C   UNL     1       6.289   4.396  15.894  0.00  0.00    +0.000 C 
BRANCH  10  11
ATOM     11  O   UNL     1       7.484   4.963  15.347  0.00  0.00    +0.000 OA
ATOM     12  H   UNL     1       8.234   4.506  15.783  0.00  0.00    +0.000 HD
ENDBRANCH  10  11
ENDBRANCH   2  10
BRANCH   2  13
ATOM     13  C   UNL     1       7.440   5.059  18.061  0.00  0.00    +0.000 C 
BRANCH  13  14
ATOM     14  O   UNL     1       8.372   4.016  17.757  0.00  0.00    +0.000 OA
ATOM     15  H   UNL     1       9.094   4.063  18.405  0.00  0.00    +0.000 HD
ENDBRANCH  13  14
ENDBRANCH   2  13
TORSDOF 7
ENDMDL
MODEL 8
REMARK VINA RESULT:      -4.7      1.666      4.356
REMARK  Name = 
REMARK  8 active torsions:
REMARK  status: ('A' for Active; 'I' for Inactive)
REMARK    1  A    between atoms: C_1  and  C_2
REMARK    2  A    between atoms: C_2  and  C_3
REMARK    3  A    between atoms: C_2  and  C_5
REMARK    4  A    between atoms: C_2  and  N_7
REMARK    5  A    between atoms: C_3  and  O_4
REMARK    6  A    between atoms: C_5  and  O_6
REMARK    7  A    between atoms: C_8  and  C_10
REMARK    8  A    between atoms: C_10  and  O_11
REMARK                            x       y       z     vdW  Elec       q    Type
REMARK                         _______ _______ _______ _____ _____    ______ ____
ROOT
ATOM      1  C   UNL     1       5.240   6.001  16.493  0.00  0.00    +0.000 C 
ATOM      2  C   UNL     1       5.979   4.659  16.647  0.00  0.00    +0.000 C 
ENDROOT
BRANCH   2   3
ATOM      3  N   UNL     1       5.036   3.580  17.022  0.00  0.00    +0.000 N 
ATOM      4  C   UNL     1       4.699   3.293  18.333  0.00  0.00    +0.000 C 
ATOM      5  O   UNL     1       5.195   3.830  19.319  0.00  0.00    +0.000 OA
ATOM      6  H   UNL     1       4.330   3.349  16.337  0.00  0.00    +0.000 HD
BRANCH   4   7
ATOM      7  C   UNL     1       3.657   2.180  18.487  0.00  0.00    +0.000 C 
BRANCH   7   8
ATOM      8  O   UNL     1       4.236   0.889  18.382  0.00  0.00    +0.000 OA
ATOM      9  H   UNL     1       4.035   0.435  19.226  0.00  0.00    +0.000 HD
ENDBRANCH   7   8
ENDBRANCH   4   7
ENDBRANCH   2   3
BRANCH   2  10
ATOM     10  C   UNL     1       6.727   4.315  15.327  0.00  0.00    +0.000 C 
BRANCH  10  11
ATOM     11  O   UNL     1       7.695   5.310  14.978  0.00  0.00    +0.000 OA
ATOM     12  H   UNL     1       8.058   5.653  15.822  0.00  0.00    +0.000 HD
ENDBRANCH  10  11
ENDBRANCH   2  10
BRANCH   2  13
ATOM     13  C   UNL     1       7.009   4.837  17.799  0.00  0.00    +0.000 C 
BRANCH  13  14
ATOM     14  O   UNL     1       8.181   4.046  17.579  0.00  0.00    +0.000 OA
ATOM     15  H   UNL     1       8.177   3.320  18.225  0.00  0.00    +0.000 HD
ENDBRANCH  13  14
ENDBRANCH   2  13
TORSDOF 7
ENDMDL
MODEL 9
REMARK VINA RESULT:      -4.7      2.254      4.436
REMARK  Name = 
REMARK  8 active torsions:
REMARK  status: ('A' for Active; 'I' for Inactive)
REMARK    1  A    between atoms: C_1  and  C_2
REMARK    2  A    between atoms: C_2  and  C_3
REMARK    3  A    between atoms: C_2  and  C_5
REMARK    4  A    between atoms: C_2  and  N_7
REMARK    5  A    between atoms: C_3  and  O_4
REMARK    6  A    between atoms: C_5  and  O_6
REMARK    7  A    between atoms: C_8  and  C_10
REMARK    8  A    between atoms: C_10  and  O_11
REMARK                            x       y       z     vdW  Elec       q    Type
REMARK                         _______ _______ _______ _____ _____    ______ ____
ROOT
ATOM      1  C   UNL     1       2.455   4.565  17.622  0.00  0.00    +0.000 C 
ATOM      2  C   UNL     1       3.283   3.504  18.370  0.00  0.00    +0.000 C 
ENDROOT
BRANCH   2   3
ATOM      3  N   UNL     1       2.805   3.354  19.765  0.00  0.00    +0.000 N 
ATOM      4  C   UNL     1       1.546   2.880  20.086  0.00  0.00    +0.000 C 
ATOM      5  O   UNL     1       0.667   2.614  19.270  0.00  0.00    +0.000 OA
ATOM      6  H   UNL     1       3.518   3.188  20.463  0.00  0.00    +0.000 HD
BRANCH   4   7
ATOM      7  C   UNL     1       1.287   2.747  21.590  0.00  0.00    +0.000 C 
BRANCH   7   8
ATOM      8  O   UNL     1       2.482   2.835  22.348  0.00  0.00    +0.000 OA
ATOM      9  H   UNL     1       2.231   2.621  23.270  0.00  0.00    +0.000 HD
ENDBRANCH   7   8
ENDBRANCH   4   7
ENDBRANCH   2   3
BRANCH   2  10
ATOM     10  C   UNL     1       3.217   2.150  17.607  0.00  0.00    +0.000 C 
BRANCH  10  11
ATOM     11  O   UNL     1       4.020   1.141  18.226  0.00  0.00    +0.000 OA
ATOM     12  H   UNL     1       4.901   1.542  18.381  0.00  0.00    +0.000 HD
ENDBRANCH  10  11
ENDBRANCH   2  10
BRANCH   2  13
ATOM     13  C   UNL     1       4.752   4.014  18.404  0.00  0.00    +0.000 C 
BRANCH  13  14
ATOM     14  O   UNL     1       5.511   3.354  19.423  0.00  0.00    +0.000 OA
ATOM     15  H   UNL     1       6.448   3.566  19.280  0.00  0.00    +0.000 HD
ENDBRANCH  13  14
ENDBRANCH   2  13
TORSDOF 7
ENDMDL
