MODEL 1
REMARK VINA RESULT:      -7.9      0.000      0.000
REMARK  Name = 
REMARK  12 active torsions:
REMARK  status: ('A' for Active; 'I' for Inactive)
REMARK    1  A    between atoms: C_1  and  C_2
REMARK    2  A    between atoms: C_2  and  O_3
REMARK    3  A    between atoms: O_3  and  C_4
REMARK    4  A    between atoms: C_4  and  C_6
REMARK    5  A    between atoms: C_16  and  C_18
REMARK    6  A    between atoms: C_18  and  S_19
REMARK    7  A    between atoms: S_19  and  C_20
REMARK    8  A    between atoms: C_23  and  C_24
REMARK    9  A    between atoms: C_24  and  N_25
REMARK   10  A    between atoms: N_25  and  C_26
REMARK   11  A    between atoms: N_32  and  C_33
REMARK   12  A    between atoms: C_33  and  C_34
REMARK                            x       y       z     vdW  Elec       q    Type
REMARK                         _______ _______ _______ _____ _____    ______ ____
ROOT
ATOM      1  C   UNL     1       1.024   8.028  20.329  0.00  0.00    +0.000 C 
ENDROOT
BRANCH   1  12
ATOM      2  C   UNL     1       5.278   5.334  16.027  0.00  0.00    +0.000 A 
ATOM      3  C   UNL     1       5.214   6.661  16.445  0.00  0.00    +0.000 A 
ATOM      4  C   UNL     1       4.361   7.027  17.489  0.00  0.00    +0.000 A 
ATOM      5  C   UNL     1       3.538   6.091  18.134  0.00  0.00    +0.000 A 
ATOM      6  C   UNL     1       3.627   4.743  17.727  0.00  0.00    +0.000 A 
ATOM      7  C   UNL     1       4.490   4.379  16.676  0.00  0.00    +0.000 A 
ATOM      8  C   UNL     1       2.841   3.641  18.389  0.00  0.00    +0.000 C 
ATOM      9  C   UNL     1       1.726   4.166  19.277  0.00  0.00    +0.000 C 
ATOM     10  C   UNL     1       2.217   5.364  20.069  0.00  0.00    +0.000 C 
ATOM     11  N   UNL     1       2.614   6.468  19.177  0.00  0.00    +0.000 N 
ATOM     12  C   UNL     1       2.115   7.784  19.292  0.00  0.00    +0.000 C 
ATOM     13  O   UNL     1       2.490   8.712  18.567  0.00  0.00    +0.000 OA
BRANCH   2  14
ATOM     14  C   UNL     1       6.229   4.876  14.983  0.00  0.00    +0.000 C 
ATOM     15  O   UNL     1       7.296   5.421  14.756  0.00  0.00    +0.000 OA
BRANCH  14  16
ATOM     16  O   UNL     1       5.667   3.876  14.259  0.00  0.00    +0.000 OA
BRANCH  16  18
ATOM     17  C   UNL     1       5.127   3.358  11.997  0.00  0.00    +0.000 C 
ATOM     18  C   UNL     1       6.253   3.652  12.972  0.00  0.00    +0.000 C 
ENDBRANCH  16  18
ENDBRANCH  14  16
ENDBRANCH   2  14
ENDBRANCH   1  12
BRANCH   1  19
ATOM     19  S   UNL     1       1.537   9.215  21.617  0.00  0.00    +0.000 S 
BRANCH  19  20
ATOM     20  C   UNL     1       0.133  10.221  21.771  0.00  0.00    +0.000 A 
ATOM     21  N   UNL     1      -0.651  10.294  22.821  0.00  0.00    +0.000 NA
ATOM     22  N   UNL     1      -1.513  11.350  22.622  0.00  0.00    +0.000 NA
ATOM     23  C   UNL     1      -1.241  11.903  21.453  0.00  0.00    +0.000 A 
ATOM     24  N   UNL     1      -0.245  11.161  20.846  0.00  0.00    +0.000 N 
BRANCH  24  25
ATOM     25  C   UNL     1       0.213  11.278  19.478  0.00  0.00    +0.000 C 
ATOM     26  C   UNL     1       1.443  12.153  19.312  0.00  0.00    +0.000 C 
ENDBRANCH  24  25
BRANCH  23  27
ATOM     27  C   UNL     1      -1.857  13.161  20.898  0.00  0.00    +0.000 C 
BRANCH  27  28
ATOM     28  N   UNL     1      -2.628  12.984  19.669  0.00  0.00    +0.000 N 
ATOM     29  H   UNL     1      -2.540  13.763  19.025  0.00  0.00    +0.000 HD
BRANCH  28  30
ATOM     30  C   UNL     1      -3.910  12.432  19.689  0.00  0.00    +0.000 A 
ATOM     31  C   UNL     1      -4.739  12.718  20.785  0.00  0.00    +0.000 A 
ATOM     32  C   UNL     1      -6.040  12.213  20.877  0.00  0.00    +0.000 A 
ATOM     33  C   UNL     1      -6.557  11.437  19.845  0.00  0.00    +0.000 A 
ATOM     34  C   UNL     1      -5.780  11.202  18.714  0.00  0.00    +0.000 A 
ATOM     35  C   UNL     1      -4.473  11.708  18.633  0.00  0.00    +0.000 A 
ENDBRANCH  28  30
ENDBRANCH  27  28
ENDBRANCH  23  27
ENDBRANCH  19  20
ENDBRANCH   1  19
TORSDOF 10
ENDMDL
MODEL 2
REMARK VINA RESULT:      -7.8      2.127      3.292
REMARK  Name = 
REMARK  12 active torsions:
REMARK  status: ('A' for Active; 'I' for Inactive)
REMARK    1  A    between atoms: C_1  and  C_2
REMARK    2  A    between atoms: C_2  and  O_3
REMARK    3  A    between atoms: O_3  and  C_4
REMARK    4  A    between atoms: C_4  and  C_6
REMARK    5  A    between atoms: C_16  and  C_18
REMARK    6  A    between atoms: C_18  and  S_19
REMARK    7  A    between atoms: S_19  and  C_20
REMARK    8  A    between atoms: C_23  and  C_24
REMARK    9  A    between atoms: C_24  and  N_25
REMARK   10  A    between atoms: N_25  and  C_26
REMARK   11  A    between atoms: N_32  and  C_33
REMARK   12  A    between atoms: C_33  and  C_34
REMARK                            x       y       z     vdW  Elec       q    Type
REMARK                         _______ _______ _______ _____ _____    ______ ____
ROOT
ATOM      1  C   UNL     1       0.973   7.861  20.609  0.00  0.00    +0.000 C 
ENDROOT
BRANCH   1  12
ATOM      2  C   UNL     1       5.161   5.377  16.119  0.00  0.00    +0.000 A 
ATOM      3  C   UNL     1       5.039   6.703  16.530  0.00  0.00    +0.000 A 
ATOM      4  C   UNL     1       4.218   7.029  17.613  0.00  0.00    +0.000 A 
ATOM      5  C   UNL     1       3.486   6.053  18.305  0.00  0.00    +0.000 A 
ATOM      6  C   UNL     1       3.634   4.708  17.904  0.00  0.00    +0.000 A 
ATOM      7  C   UNL     1       4.465   4.385  16.814  0.00  0.00    +0.000 A 
ATOM      8  C   UNL     1       2.949   3.568  18.614  0.00  0.00    +0.000 C 
ATOM      9  C   UNL     1       1.851   4.036  19.552  0.00  0.00    +0.000 C 
ATOM     10  C   UNL     1       2.308   5.269  20.309  0.00  0.00    +0.000 C 
ATOM     11  N   UNL     1       2.594   6.385  19.391  0.00  0.00    +0.000 N 
ATOM     12  C   UNL     1       2.023   7.670  19.520  0.00  0.00    +0.000 C 
ATOM     13  O   UNL     1       2.306   8.612  18.770  0.00  0.00    +0.000 OA
BRANCH   2  14
ATOM     14  C   UNL     1       6.085   4.965  15.033  0.00  0.00    +0.000 C 
ATOM     15  O   UNL     1       7.241   5.346  14.949  0.00  0.00    +0.000 OA
BRANCH  14  16
ATOM     16  O   UNL     1       5.409   4.238  14.109  0.00  0.00    +0.000 OA
BRANCH  16  18
ATOM     17  C   UNL     1       5.280   3.200  11.969  0.00  0.00    +0.000 C 
ATOM     18  C   UNL     1       6.214   3.679  13.066  0.00  0.00    +0.000 C 
ENDBRANCH  16  18
ENDBRANCH  14  16
ENDBRANCH   2  14
ENDBRANCH   1  12
BRANCH   1  19
ATOM     19  S   UNL     1       1.565   8.917  21.975  0.00  0.00    +0.000 S 
BRANCH  19  20
ATOM     20  C   UNL     1       0.210   9.966  22.243  0.00  0.00    +0.000 A 
ATOM     21  N   UNL     1      -0.667   9.859  23.213  0.00  0.00    +0.000 NA
ATOM     22  N   UNL     1      -1.446  10.995  23.195  0.00  0.00    +0.000 NA
ATOM     23  C   UNL     1      -1.031  11.776  22.212  0.00  0.00    +0.000 A 
ATOM     24  N   UNL     1      -0.023  11.117  21.534  0.00  0.00    +0.000 N 
BRANCH  24  25
ATOM     25  C   UNL     1       0.572  11.506  20.273  0.00  0.00    +0.000 C 
ATOM     26  C   UNL     1      -0.243  11.103  19.056  0.00  0.00    +0.000 C 
ENDBRANCH  24  25
BRANCH  23  27
ATOM     27  C   UNL     1      -1.520  13.170  21.917  0.00  0.00    +0.000 C 
BRANCH  27  28
ATOM     28  N   UNL     1      -0.642  14.246  22.375  0.00  0.00    +0.000 N 
ATOM     29  H   UNL     1       0.342  14.005  22.331  0.00  0.00    +0.000 HD
BRANCH  28  30
ATOM     30  C   UNL     1      -0.969  15.023  23.488  0.00  0.00    +0.000 A 
ATOM     31  C   UNL     1      -1.968  14.556  24.355  0.00  0.00    +0.000 A 
ATOM     32  C   UNL     1      -2.346  15.270  25.497  0.00  0.00    +0.000 A 
ATOM     33  C   UNL     1      -1.697  16.456  25.820  0.00  0.00    +0.000 A 
ATOM     34  C   UNL     1      -0.652  16.902  25.015  0.00  0.00    +0.000 A 
ATOM     35  C   UNL     1      -0.283  16.182  23.868  0.00  0.00    +0.000 A 
ENDBRANCH  28  30
ENDBRANCH  27  28
ENDBRANCH  23  27
ENDBRANCH  19  20
ENDBRANCH   1  19
TORSDOF 10
ENDMDL
MODEL 3
REMARK VINA RESULT:      -7.7      1.568      2.370
REMARK  Name = 
REMARK  12 active torsions:
REMARK  status: ('A' for Active; 'I' for Inactive)
REMARK    1  A    between atoms: C_1  and  C_2
REMARK    2  A    between atoms: C_2  and  O_3
REMARK    3  A    between atoms: O_3  and  C_4
REMARK    4  A    between atoms: C_4  and  C_6
REMARK    5  A    between atoms: C_16  and  C_18
REMARK    6  A    between atoms: C_18  and  S_19
REMARK    7  A    between atoms: S_19  and  C_20
REMARK    8  A    between atoms: C_23  and  C_24
REMARK    9  A    between atoms: C_24  and  N_25
REMARK   10  A    between atoms: N_25  and  C_26
REMARK   11  A    between atoms: N_32  and  C_33
REMARK   12  A    between atoms: C_33  and  C_34
REMARK                            x       y       z     vdW  Elec       q    Type
REMARK                         _______ _______ _______ _____ _____    ______ ____
ROOT
ATOM      1  C   UNL     1       0.816   8.109  20.735  0.00  0.00    +0.000 C 
ENDROOT
BRANCH   1  12
ATOM      2  C   UNL     1       4.864   4.795  16.674  0.00  0.00    +0.000 A 
ATOM      3  C   UNL     1       4.870   6.159  16.957  0.00  0.00    +0.000 A 
ATOM      4  C   UNL     1       4.053   6.669  17.969  0.00  0.00    +0.000 A 
ATOM      5  C   UNL     1       3.199   5.843  18.715  0.00  0.00    +0.000 A 
ATOM      6  C   UNL     1       3.217   4.458  18.445  0.00  0.00    +0.000 A 
ATOM      7  C   UNL     1       4.044   3.949  17.426  0.00  0.00    +0.000 A 
ATOM      8  C   UNL     1       2.392   3.467  19.226  0.00  0.00    +0.000 C 
ATOM      9  C   UNL     1       1.319   4.132  20.070  0.00  0.00    +0.000 C 
ATOM     10  C   UNL     1       1.878   5.378  20.730  0.00  0.00    +0.000 C 
ATOM     11  N   UNL     1       2.311   6.366  19.727  0.00  0.00    +0.000 N 
ATOM     12  C   UNL     1       1.876   7.710  19.714  0.00  0.00    +0.000 C 
ATOM     13  O   UNL     1       2.282   8.542  18.894  0.00  0.00    +0.000 OA
BRANCH   2  14
ATOM     14  C   UNL     1       5.775   4.189  15.670  0.00  0.00    +0.000 C 
ATOM     15  O   UNL     1       6.919   3.843  15.917  0.00  0.00    +0.000 OA
BRANCH  14  16
ATOM     16  O   UNL     1       5.191   4.216  14.447  0.00  0.00    +0.000 OA
BRANCH  16  18
ATOM     17  C   UNL     1       5.645   3.223  12.329  0.00  0.00    +0.000 C 
ATOM     18  C   UNL     1       6.097   4.262  13.339  0.00  0.00    +0.000 C 
ENDBRANCH  16  18
ENDBRANCH  14  16
ENDBRANCH   2  14
ENDBRANCH   1  12
BRANCH   1  19
ATOM     19  S   UNL     1       1.325   9.540  21.748  0.00  0.00    +0.000 S 
BRANCH  19  20
ATOM     20  C   UNL     1       0.709  10.877  20.832  0.00  0.00    +0.000 A 
ATOM     21  N   UNL     1       1.270  11.407  19.771  0.00  0.00    +0.000 NA
ATOM     22  N   UNL     1       0.368  12.295  19.225  0.00  0.00    +0.000 NA
ATOM     23  C   UNL     1      -0.727  12.292  19.965  0.00  0.00    +0.000 A 
ATOM     24  N   UNL     1      -0.517  11.455  21.044  0.00  0.00    +0.000 N 
BRANCH  24  25
ATOM     25  C   UNL     1      -1.363  11.314  22.210  0.00  0.00    +0.000 C 
ATOM     26  C   UNL     1      -1.377  12.535  23.113  0.00  0.00    +0.000 C 
ENDBRANCH  24  25
BRANCH  23  27
ATOM     27  C   UNL     1      -2.010  13.021  19.658  0.00  0.00    +0.000 C 
BRANCH  27  28
ATOM     28  N   UNL     1      -3.137  12.165  19.294  0.00  0.00    +0.000 N 
ATOM     29  H   UNL     1      -3.484  11.608  20.067  0.00  0.00    +0.000 HD
BRANCH  28  30
ATOM     30  C   UNL     1      -3.170  11.488  18.073  0.00  0.00    +0.000 A 
ATOM     31  C   UNL     1      -2.221  10.479  17.847  0.00  0.00    +0.000 A 
ATOM     32  C   UNL     1      -2.192   9.748  16.656  0.00  0.00    +0.000 A 
ATOM     33  C   UNL     1      -3.147   9.985  15.673  0.00  0.00    +0.000 A 
ATOM     34  C   UNL     1      -4.143  10.929  15.905  0.00  0.00    +0.000 A 
ATOM     35  C   UNL     1      -4.161  11.663  17.101  0.00  0.00    +0.000 A 
ENDBRANCH  28  30
ENDBRANCH  27  28
ENDBRANCH  23  27
ENDBRANCH  19  20
ENDBRANCH   1  19
TORSDOF 10
ENDMDL
MODEL 4
REMARK VINA RESULT:      -7.7      2.421      3.647
REMARK  Name = 
REMARK  12 active torsions:
REMARK  status: ('A' for Active; 'I' for Inactive)
REMARK    1  A    between atoms: C_1  and  C_2
REMARK    2  A    between atoms: C_2  and  O_3
REMARK    3  A    between atoms: O_3  and  C_4
REMARK    4  A    between atoms: C_4  and  C_6
REMARK    5  A    between atoms: C_16  and  C_18
REMARK    6  A    between atoms: C_18  and  S_19
REMARK    7  A    between atoms: S_19  and  C_20
REMARK    8  A    between atoms: C_23  and  C_24
REMARK    9  A    between atoms: C_24  and  N_25
REMARK   10  A    between atoms: N_25  and  C_26
REMARK   11  A    between atoms: N_32  and  C_33
REMARK   12  A    between atoms: C_33  and  C_34
REMARK                            x       y       z     vdW  Elec       q    Type
REMARK                         _______ _______ _______ _____ _____    ______ ____
ROOT
ATOM      1  C   UNL     1       1.157   7.777  20.507  0.00  0.00    +0.000 C 
ENDROOT
BRANCH   1  12
ATOM      2  C   UNL     1       5.216   5.276  15.909  0.00  0.00    +0.000 A 
ATOM      3  C   UNL     1       5.092   6.606  16.304  0.00  0.00    +0.000 A 
ATOM      4  C   UNL     1       4.306   6.938  17.410  0.00  0.00    +0.000 A 
ATOM      5  C   UNL     1       3.610   5.965  18.142  0.00  0.00    +0.000 A 
ATOM      6  C   UNL     1       3.762   4.615  17.757  0.00  0.00    +0.000 A 
ATOM      7  C   UNL     1       4.557   4.285  16.643  0.00  0.00    +0.000 A 
ATOM      8  C   UNL     1       3.117   3.478  18.507  0.00  0.00    +0.000 C 
ATOM      9  C   UNL     1       2.046   3.948  19.477  0.00  0.00    +0.000 C 
ATOM     10  C   UNL     1       2.513   5.198  20.198  0.00  0.00    +0.000 C 
ATOM     11  N   UNL     1       2.753   6.302  19.254  0.00  0.00    +0.000 N 
ATOM     12  C   UNL     1       2.171   7.583  19.384  0.00  0.00    +0.000 C 
ATOM     13  O   UNL     1       2.416   8.516  18.611  0.00  0.00    +0.000 OA
BRANCH   2  14
ATOM     14  C   UNL     1       6.106   4.858  14.797  0.00  0.00    +0.000 C 
ATOM     15  O   UNL     1       7.091   5.487  14.447  0.00  0.00    +0.000 OA
BRANCH  14  16
ATOM     16  O   UNL     1       5.578   3.779  14.169  0.00  0.00    +0.000 OA
BRANCH  16  18
ATOM     17  C   UNL     1       4.854   3.417  11.928  0.00  0.00    +0.000 C 
ATOM     18  C   UNL     1       6.060   3.550  12.840  0.00  0.00    +0.000 C 
ENDBRANCH  16  18
ENDBRANCH  14  16
ENDBRANCH   2  14
ENDBRANCH   1  12
BRANCH   1  19
ATOM     19  S   UNL     1       1.170   9.476  21.174  0.00  0.00    +0.000 S 
BRANCH  19  20
ATOM     20  C   UNL     1       0.213  10.336  20.010  0.00  0.00    +0.000 A 
ATOM     21  N   UNL     1      -0.986   9.998  19.599  0.00  0.00    +0.000 NA
ATOM     22  N   UNL     1      -1.475  11.043  18.846  0.00  0.00    +0.000 NA
ATOM     23  C   UNL     1      -0.564  12.000  18.810  0.00  0.00    +0.000 A 
ATOM     24  N   UNL     1       0.558  11.553  19.480  0.00  0.00    +0.000 N 
BRANCH  24  25
ATOM     25  C   UNL     1       1.861  12.184  19.508  0.00  0.00    +0.000 C 
ATOM     26  C   UNL     1       2.532  12.275  18.149  0.00  0.00    +0.000 C 
ENDBRANCH  24  25
BRANCH  23  27
ATOM     27  C   UNL     1      -0.736  13.369  18.204  0.00  0.00    +0.000 C 
BRANCH  27  28
ATOM     28  N   UNL     1      -0.731  14.475  19.159  0.00  0.00    +0.000 N 
ATOM     29  H   UNL     1      -1.601  14.565  19.672  0.00  0.00    +0.000 HD
BRANCH  28  30
ATOM     30  C   UNL     1      -0.152  15.705  18.841  0.00  0.00    +0.000 A 
ATOM     31  C   UNL     1       1.241  15.761  18.678  0.00  0.00    +0.000 A 
ATOM     32  C   UNL     1       1.897  16.952  18.349  0.00  0.00    +0.000 A 
ATOM     33  C   UNL     1       1.163  18.112  18.135  0.00  0.00    +0.000 A 
ATOM     34  C   UNL     1      -0.227  18.065  18.218  0.00  0.00    +0.000 A 
ATOM     35  C   UNL     1      -0.876  16.867  18.554  0.00  0.00    +0.000 A 
ENDBRANCH  28  30
ENDBRANCH  27  28
ENDBRANCH  23  27
ENDBRANCH  19  20
ENDBRANCH   1  19
TORSDOF 10
ENDMDL
MODEL 5
REMARK VINA RESULT:      -7.7      3.313     11.617
REMARK  Name = 
REMARK  12 active torsions:
REMARK  status: ('A' for Active; 'I' for Inactive)
REMARK    1  A    between atoms: C_1  and  C_2
REMARK    2  A    between atoms: C_2  and  O_3
REMARK    3  A    between atoms: O_3  and  C_4
REMARK    4  A    between atoms: C_4  and  C_6
REMARK    5  A    between atoms: C_16  and  C_18
REMARK    6  A    between atoms: C_18  and  S_19
REMARK    7  A    between atoms: S_19  and  C_20
REMARK    8  A    between atoms: C_23  and  C_24
REMARK    9  A    between atoms: C_24  and  N_25
REMARK   10  A    between atoms: N_25  and  C_26
REMARK   11  A    between atoms: N_32  and  C_33
REMARK   12  A    between atoms: C_33  and  C_34
REMARK                            x       y       z     vdW  Elec       q    Type
REMARK                         _______ _______ _______ _____ _____    ______ ____
ROOT
ATOM      1  C   UNL     1       1.904   7.850  18.818  0.00  0.00    +0.000 C 
ENDROOT
BRANCH   1  12
ATOM      2  C   UNL     1      -1.877  11.685  22.673  0.00  0.00    +0.000 A 
ATOM      3  C   UNL     1      -0.877  10.800  23.070  0.00  0.00    +0.000 A 
ATOM      4  C   UNL     1      -0.059  10.193  22.114  0.00  0.00    +0.000 A 
ATOM      5  C   UNL     1      -0.221  10.435  20.742  0.00  0.00    +0.000 A 
ATOM      6  C   UNL     1      -1.216  11.354  20.346  0.00  0.00    +0.000 A 
ATOM      7  C   UNL     1      -2.036  11.965  21.313  0.00  0.00    +0.000 A 
ATOM      8  C   UNL     1      -1.437  11.742  18.906  0.00  0.00    +0.000 C 
ATOM      9  C   UNL     1      -0.734  10.812  17.933  0.00  0.00    +0.000 C 
ATOM     10  C   UNL     1       0.652  10.474  18.449  0.00  0.00    +0.000 C 
ATOM     11  N   UNL     1       0.584   9.773  19.742  0.00  0.00    +0.000 N 
ATOM     12  C   UNL     1       1.215   8.534  19.994  0.00  0.00    +0.000 C 
ATOM     13  O   UNL     1       1.189   7.977  21.098  0.00  0.00    +0.000 OA
BRANCH   2  14
ATOM     14  C   UNL     1      -2.717  12.424  23.650  0.00  0.00    +0.000 C 
ATOM     15  O   UNL     1      -3.753  11.984  24.118  0.00  0.00    +0.000 OA
BRANCH  14  16
ATOM     16  O   UNL     1      -2.229  13.678  23.816  0.00  0.00    +0.000 OA
BRANCH  16  18
ATOM     17  C   UNL     1      -2.636  15.169  25.629  0.00  0.00    +0.000 C 
ATOM     18  C   UNL     1      -3.170  14.637  24.311  0.00  0.00    +0.000 C 
ENDBRANCH  16  18
ENDBRANCH  14  16
ENDBRANCH   2  14
ENDBRANCH   1  12
BRANCH   1  19
ATOM     19  S   UNL     1       2.925   6.429  19.336  0.00  0.00    +0.000 S 
BRANCH  19  20
ATOM     20  C   UNL     1       4.115   6.352  18.076  0.00  0.00    +0.000 A 
ATOM     21  N   UNL     1       4.454   7.336  17.276  0.00  0.00    +0.000 NA
ATOM     22  N   UNL     1       5.567   6.931  16.571  0.00  0.00    +0.000 NA
ATOM     23  C   UNL     1       5.886   5.707  16.953  0.00  0.00    +0.000 A 
ATOM     24  N   UNL     1       4.936   5.275  17.858  0.00  0.00    +0.000 N 
BRANCH  24  25
ATOM     25  C   UNL     1       4.774   3.931  18.372  0.00  0.00    +0.000 C 
ATOM     26  C   UNL     1       3.892   3.044  17.510  0.00  0.00    +0.000 C 
ENDBRANCH  24  25
BRANCH  23  27
ATOM     27  C   UNL     1       7.109   4.933  16.530  0.00  0.00    +0.000 C 
BRANCH  27  28
ATOM     28  N   UNL     1       7.633   5.275  15.209  0.00  0.00    +0.000 N 
ATOM     29  H   UNL     1       7.808   6.268  15.093  0.00  0.00    +0.000 HD
BRANCH  28  30
ATOM     30  C   UNL     1       7.141   4.666  14.053  0.00  0.00    +0.000 A 
ATOM     31  C   UNL     1       5.929   3.964  14.137  0.00  0.00    +0.000 A 
ATOM     32  C   UNL     1       5.364   3.334  13.023  0.00  0.00    +0.000 A 
ATOM     33  C   UNL     1       5.985   3.429  11.783  0.00  0.00    +0.000 A 
ATOM     34  C   UNL     1       7.150   4.182  11.660  0.00  0.00    +0.000 A 
ATOM     35  C   UNL     1       7.713   4.806  12.784  0.00  0.00    +0.000 A 
ENDBRANCH  28  30
ENDBRANCH  27  28
ENDBRANCH  23  27
ENDBRANCH  19  20
ENDBRANCH   1  19
TORSDOF 10
ENDMDL
MODEL 6
REMARK VINA RESULT:      -7.6      2.931      4.174
REMARK  Name = 
REMARK  12 active torsions:
REMARK  status: ('A' for Active; 'I' for Inactive)
REMARK    1  A    between atoms: C_1  and  C_2
REMARK    2  A    between atoms: C_2  and  O_3
REMARK    3  A    between atoms: O_3  and  C_4
REMARK    4  A    between atoms: C_4  and  C_6
REMARK    5  A    between atoms: C_16  and  C_18
REMARK    6  A    between atoms: C_18  and  S_19
REMARK    7  A    between atoms: S_19  and  C_20
REMARK    8  A    between atoms: C_23  and  C_24
REMARK    9  A    between atoms: C_24  and  N_25
REMARK   10  A    between atoms: N_25  and  C_26
REMARK   11  A    between atoms: N_32  and  C_33
REMARK   12  A    between atoms: C_33  and  C_34
REMARK                            x       y       z     vdW  Elec       q    Type
REMARK                         _______ _______ _______ _____ _____    ______ ____
ROOT
ATOM      1  C   UNL     1       1.041   9.013  19.566  0.00  0.00    +0.000 C 
ENDROOT
BRANCH   1  12
ATOM      2  C   UNL     1       5.096   5.097  16.088  0.00  0.00    +0.000 A 
ATOM      3  C   UNL     1       5.058   6.490  16.099  0.00  0.00    +0.000 A 
ATOM      4  C   UNL     1       4.251   7.162  17.021  0.00  0.00    +0.000 A 
ATOM      5  C   UNL     1       3.450   6.472  17.943  0.00  0.00    +0.000 A 
ATOM      6  C   UNL     1       3.514   5.062  17.949  0.00  0.00    +0.000 A 
ATOM      7  C   UNL     1       4.331   4.390  17.019  0.00  0.00    +0.000 A 
ATOM      8  C   UNL     1       2.751   4.217  18.936  0.00  0.00    +0.000 C 
ATOM      9  C   UNL     1       1.677   5.000  19.672  0.00  0.00    +0.000 C 
ATOM     10  C   UNL     1       2.207   6.369  20.056  0.00  0.00    +0.000 C 
ATOM     11  N   UNL     1       2.573   7.155  18.865  0.00  0.00    +0.000 N 
ATOM     12  C   UNL     1       2.086   8.455  18.605  0.00  0.00    +0.000 C 
ATOM     13  O   UNL     1       2.436   9.122  17.625  0.00  0.00    +0.000 OA
BRANCH   2  14
ATOM     14  C   UNL     1       6.000   4.335  15.190  0.00  0.00    +0.000 C 
ATOM     15  O   UNL     1       7.129   3.994  15.501  0.00  0.00    +0.000 OA
BRANCH  14  16
ATOM     16  O   UNL     1       5.433   4.215  13.965  0.00  0.00    +0.000 OA
BRANCH  16  18
ATOM     17  C   UNL     1       5.604   2.873  12.003  0.00  0.00    +0.000 C 
ATOM     18  C   UNL     1       6.330   3.850  12.911  0.00  0.00    +0.000 C 
ENDBRANCH  16  18
ENDBRANCH  14  16
ENDBRANCH   2  14
ENDBRANCH   1  12
BRANCH   1  19
ATOM     19  S   UNL     1      -0.233  10.004  18.714  0.00  0.00    +0.000 S 
BRANCH  19  20
ATOM     20  C   UNL     1       0.136  11.613  19.245  0.00  0.00    +0.000 A 
ATOM     21  N   UNL     1       1.329  12.158  19.279  0.00  0.00    +0.000 NA
ATOM     22  N   UNL     1       1.165  13.497  19.557  0.00  0.00    +0.000 NA
ATOM     23  C   UNL     1      -0.126  13.746  19.689  0.00  0.00    +0.000 A 
ATOM     24  N   UNL     1      -0.810  12.551  19.572  0.00  0.00    +0.000 N 
BRANCH  24  25
ATOM     25  C   UNL     1      -2.211  12.321  19.856  0.00  0.00    +0.000 C 
ATOM     26  C   UNL     1      -3.033  11.946  18.636  0.00  0.00    +0.000 C 
ENDBRANCH  24  25
BRANCH  23  27
ATOM     27  C   UNL     1      -0.757  15.102  19.871  0.00  0.00    +0.000 C 
BRANCH  27  28
ATOM     28  N   UNL     1       0.172  16.230  19.825  0.00  0.00    +0.000 N 
ATOM     29  H   UNL     1       0.162  16.791  20.670  0.00  0.00    +0.000 HD
BRANCH  28  30
ATOM     30  C   UNL     1       0.337  16.988  18.664  0.00  0.00    +0.000 A 
ATOM     31  C   UNL     1      -0.763  17.717  18.185  0.00  0.00    +0.000 A 
ATOM     32  C   UNL     1      -0.678  18.508  17.036  0.00  0.00    +0.000 A 
ATOM     33  C   UNL     1       0.531  18.620  16.359  0.00  0.00    +0.000 A 
ATOM     34  C   UNL     1       1.655  17.966  16.857  0.00  0.00    +0.000 A 
ATOM     35  C   UNL     1       1.559  17.168  18.008  0.00  0.00    +0.000 A 
ENDBRANCH  28  30
ENDBRANCH  27  28
ENDBRANCH  23  27
ENDBRANCH  19  20
ENDBRANCH   1  19
TORSDOF 10
ENDMDL
MODEL 7
REMARK VINA RESULT:      -7.6      2.219      2.947
REMARK  Name = 
REMARK  12 active torsions:
REMARK  status: ('A' for Active; 'I' for Inactive)
REMARK    1  A    between atoms: C_1  and  C_2
REMARK    2  A    between atoms: C_2  and  O_3
REMARK    3  A    between atoms: O_3  and  C_4
REMARK    4  A    between atoms: C_4  and  C_6
REMARK    5  A    between atoms: C_16  and  C_18
REMARK    6  A    between atoms: C_18  and  S_19
REMARK    7  A    between atoms: S_19  and  C_20
REMARK    8  A    between atoms: C_23  and  C_24
REMARK    9  A    between atoms: C_24  and  N_25
REMARK   10  A    between atoms: N_25  and  C_26
REMARK   11  A    between atoms: N_32  and  C_33
REMARK   12  A    between atoms: C_33  and  C_34
REMARK                            x       y       z     vdW  Elec       q    Type
REMARK                         _______ _______ _______ _____ _____    ______ ____
ROOT
ATOM      1  C   UNL     1       1.012   8.881  19.420  0.00  0.00    +0.000 C 
ENDROOT
BRANCH   1  12
ATOM      2  C   UNL     1       5.459   5.161  16.218  0.00  0.00    +0.000 A 
ATOM      3  C   UNL     1       5.364   6.551  16.235  0.00  0.00    +0.000 A 
ATOM      4  C   UNL     1       4.467   7.182  17.100  0.00  0.00    +0.000 A 
ATOM      5  C   UNL     1       3.631   6.452  17.959  0.00  0.00    +0.000 A 
ATOM      6  C   UNL     1       3.751   5.046  17.960  0.00  0.00    +0.000 A 
ATOM      7  C   UNL     1       4.658   4.415  17.087  0.00  0.00    +0.000 A 
ATOM      8  C   UNL     1       2.953   4.163  18.885  0.00  0.00    +0.000 C 
ATOM      9  C   UNL     1       1.799   4.897  19.546  0.00  0.00    +0.000 C 
ATOM     10  C   UNL     1       2.245   6.281  19.976  0.00  0.00    +0.000 C 
ATOM     11  N   UNL     1       2.663   7.092  18.819  0.00  0.00    +0.000 N 
ATOM     12  C   UNL     1       2.144   8.374  18.533  0.00  0.00    +0.000 C 
ATOM     13  O   UNL     1       2.536   9.063  17.585  0.00  0.00    +0.000 OA
BRANCH   2  14
ATOM     14  C   UNL     1       6.455   4.444  15.383  0.00  0.00    +0.000 C 
ATOM     15  O   UNL     1       7.645   4.714  15.369  0.00  0.00    +0.000 OA
BRANCH  14  16
ATOM     16  O   UNL     1       5.821   3.569  14.565  0.00  0.00    +0.000 OA
BRANCH  16  18
ATOM     17  C   UNL     1       6.213   3.132  12.255  0.00  0.00    +0.000 C 
ATOM     18  C   UNL     1       5.537   4.059  13.250  0.00  0.00    +0.000 C 
ENDBRANCH  16  18
ENDBRANCH  14  16
ENDBRANCH   2  14
ENDBRANCH   1  12
BRANCH   1  19
ATOM     19  S   UNL     1       1.227  10.630  19.896  0.00  0.00    +0.000 S 
BRANCH  19  20
ATOM     20  C   UNL     1       0.184  10.766  21.275  0.00  0.00    +0.000 A 
ATOM     21  N   UNL     1       0.448  10.336  22.486  0.00  0.00    +0.000 NA
ATOM     22  N   UNL     1      -0.533  10.822  23.322  0.00  0.00    +0.000 NA
ATOM     23  C   UNL     1      -1.380  11.541  22.606  0.00  0.00    +0.000 A 
ATOM     24  N   UNL     1      -0.997  11.465  21.280  0.00  0.00    +0.000 N 
BRANCH  24  25
ATOM     25  C   UNL     1      -1.749  11.923  20.132  0.00  0.00    +0.000 C 
ATOM     26  C   UNL     1      -1.456  13.359  19.735  0.00  0.00    +0.000 C 
ENDBRANCH  24  25
BRANCH  23  27
ATOM     27  C   UNL     1      -2.528  12.358  23.140  0.00  0.00    +0.000 C 
BRANCH  27  28
ATOM     28  N   UNL     1      -2.146  13.591  23.826  0.00  0.00    +0.000 N 
ATOM     29  H   UNL     1      -1.478  13.442  24.575  0.00  0.00    +0.000 HD
BRANCH  28  30
ATOM     30  C   UNL     1      -3.086  14.581  24.118  0.00  0.00    +0.000 A 
ATOM     31  C   UNL     1      -2.659  15.715  24.825  0.00  0.00    +0.000 A 
ATOM     32  C   UNL     1      -3.536  16.756  25.147  0.00  0.00    +0.000 A 
ATOM     33  C   UNL     1      -4.861  16.701  24.729  0.00  0.00    +0.000 A 
ATOM     34  C   UNL     1      -5.289  15.621  23.962  0.00  0.00    +0.000 A 
ATOM     35  C   UNL     1      -4.404  14.578  23.649  0.00  0.00    +0.000 A 
ENDBRANCH  28  30
ENDBRANCH  27  28
ENDBRANCH  23  27
ENDBRANCH  19  20
ENDBRANCH   1  19
TORSDOF 10
ENDMDL
MODEL 8
REMARK VINA RESULT:      -7.6      3.377     11.335
REMARK  Name = 
REMARK  12 active torsions:
REMARK  status: ('A' for Active; 'I' for Inactive)
REMARK    1  A    between atoms: C_1  and  C_2
REMARK    2  A    between atoms: C_2  and  O_3
REMARK    3  A    between atoms: O_3  and  C_4
REMARK    4  A    between atoms: C_4  and  C_6
REMARK    5  A    between atoms: C_16  and  C_18
REMARK    6  A    between atoms: C_18  and  S_19
REMARK    7  A    between atoms: S_19  and  C_20
REMARK    8  A    between atoms: C_23  and  C_24
REMARK    9  A    between atoms: C_24  and  N_25
REMARK   10  A    between atoms: N_25  and  C_26
REMARK   11  A    between atoms: N_32  and  C_33
REMARK   12  A    between atoms: C_33  and  C_34
REMARK                            x       y       z     vdW  Elec       q    Type
REMARK                         _______ _______ _______ _____ _____    ______ ____
ROOT
ATOM      1  C   UNL     1       2.129   7.247  19.857  0.00  0.00    +0.000 C 
ENDROOT
BRANCH   1  12
ATOM      2  C   UNL     1      -1.906  11.901  22.294  0.00  0.00    +0.000 A 
ATOM      3  C   UNL     1      -1.016  11.090  22.996  0.00  0.00    +0.000 A 
ATOM      4  C   UNL     1      -0.115  10.276  22.306  0.00  0.00    +0.000 A 
ATOM      5  C   UNL     1      -0.083  10.231  20.904  0.00  0.00    +0.000 A 
ATOM      6  C   UNL     1      -0.965  11.075  20.196  0.00  0.00    +0.000 A 
ATOM      7  C   UNL     1      -1.870  11.896  20.897  0.00  0.00    +0.000 A 
ATOM      8  C   UNL     1      -0.975  11.162  18.691  0.00  0.00    +0.000 C 
ATOM      9  C   UNL     1      -0.204  10.030  18.034  0.00  0.00    +0.000 C 
ATOM     10  C   UNL     1       1.082   9.770  18.794  0.00  0.00    +0.000 C 
ATOM     11  N   UNL     1       0.808   9.355  20.181  0.00  0.00    +0.000 N 
ATOM     12  C   UNL     1       1.331   8.179  20.763  0.00  0.00    +0.000 C 
ATOM     13  O   UNL     1       1.131   7.864  21.942  0.00  0.00    +0.000 OA
BRANCH   2  14
ATOM     14  C   UNL     1      -2.823  12.848  22.975  0.00  0.00    +0.000 C 
ATOM     15  O   UNL     1      -2.450  13.700  23.764  0.00  0.00    +0.000 OA
BRANCH  14  16
ATOM     16  O   UNL     1      -4.109  12.524  22.692  0.00  0.00    +0.000 OA
BRANCH  16  18
ATOM     17  C   UNL     1      -5.710  14.194  22.123  0.00  0.00    +0.000 C 
ATOM     18  C   UNL     1      -5.096  13.393  23.257  0.00  0.00    +0.000 C 
ENDBRANCH  16  18
ENDBRANCH  14  16
ENDBRANCH   2  14
ENDBRANCH   1  12
BRANCH   1  19
ATOM     19  S   UNL     1       2.136   5.524  20.458  0.00  0.00    +0.000 S 
BRANCH  19  20
ATOM     20  C   UNL     1       2.502   4.633  19.016  0.00  0.00    +0.000 A 
ATOM     21  N   UNL     1       1.641   4.271  18.095  0.00  0.00    +0.000 NA
ATOM     22  N   UNL     1       2.359   3.775  17.028  0.00  0.00    +0.000 NA
ATOM     23  C   UNL     1       3.646   3.843  17.318  0.00  0.00    +0.000 A 
ATOM     24  N   UNL     1       3.774   4.315  18.610  0.00  0.00    +0.000 N 
BRANCH  24  25
ATOM     25  C   UNL     1       4.982   4.350  19.406  0.00  0.00    +0.000 C 
ATOM     26  C   UNL     1       5.926   5.483  19.045  0.00  0.00    +0.000 C 
ENDBRANCH  24  25
BRANCH  23  27
ATOM     27  C   UNL     1       4.786   3.525  16.385  0.00  0.00    +0.000 C 
BRANCH  27  28
ATOM     28  N   UNL     1       5.263   4.650  15.582  0.00  0.00    +0.000 N 
ATOM     29  H   UNL     1       4.607   5.422  15.546  0.00  0.00    +0.000 HD
BRANCH  28  30
ATOM     30  C   UNL     1       5.939   4.446  14.378  0.00  0.00    +0.000 A 
ATOM     31  C   UNL     1       5.327   3.648  13.399  0.00  0.00    +0.000 A 
ATOM     32  C   UNL     1       5.933   3.404  12.162  0.00  0.00    +0.000 A 
ATOM     33  C   UNL     1       7.156   3.993  11.861  0.00  0.00    +0.000 A 
ATOM     34  C   UNL     1       7.747   4.849  12.787  0.00  0.00    +0.000 A 
ATOM     35  C   UNL     1       7.135   5.083  14.028  0.00  0.00    +0.000 A 
ENDBRANCH  28  30
ENDBRANCH  27  28
ENDBRANCH  23  27
ENDBRANCH  19  20
ENDBRANCH   1  19
TORSDOF 10
ENDMDL
MODEL 9
REMARK VINA RESULT:      -7.5      3.586     11.435
REMARK  Name = 
REMARK  12 active torsions:
REMARK  status: ('A' for Active; 'I' for Inactive)
REMARK    1  A    between atoms: C_1  and  C_2
REMARK    2  A    between atoms: C_2  and  O_3
REMARK    3  A    between atoms: O_3  and  C_4
REMARK    4  A    between atoms: C_4  and  C_6
REMARK    5  A    between atoms: C_16  and  C_18
REMARK    6  A    between atoms: C_18  and  S_19
REMARK    7  A    between atoms: S_19  and  C_20
REMARK    8  A    between atoms: C_23  and  C_24
REMARK    9  A    between atoms: C_24  and  N_25
REMARK   10  A    between atoms: N_25  and  C_26
REMARK   11  A    between atoms: N_32  and  C_33
REMARK   12  A    between atoms: C_33  and  C_34
REMARK                            x       y       z     vdW  Elec       q    Type
REMARK                         _______ _______ _______ _____ _____    ______ ____
ROOT
ATOM      1  C   UNL     1       1.447   8.624  20.514  0.00  0.00    +0.000 C 
ENDROOT
BRANCH   1  12
ATOM      2  C   UNL     1      -3.343  12.798  22.388  0.00  0.00    +0.000 A 
ATOM      3  C   UNL     1      -2.475  12.074  23.203  0.00  0.00    +0.000 A 
ATOM      4  C   UNL     1      -1.409  11.367  22.640  0.00  0.00    +0.000 A 
ATOM      5  C   UNL     1      -1.185  11.347  21.256  0.00  0.00    +0.000 A 
ATOM      6  C   UNL     1      -2.049  12.105  20.435  0.00  0.00    +0.000 A 
ATOM      7  C   UNL     1      -3.120  12.817  21.008  0.00  0.00    +0.000 A 
ATOM      8  C   UNL     1      -1.866  12.212  18.943  0.00  0.00    +0.000 C 
ATOM      9  C   UNL     1      -0.900  11.176  18.395  0.00  0.00    +0.000 C 
ATOM     10  C   UNL     1       0.293  11.039  19.322  0.00  0.00    +0.000 C 
ATOM     11  N   UNL     1      -0.119  10.578  20.659  0.00  0.00    +0.000 N 
ATOM     12  C   UNL     1       0.441   9.454  21.305  0.00  0.00    +0.000 C 
ATOM     13  O   UNL     1       0.119   9.103  22.446  0.00  0.00    +0.000 OA
BRANCH   2  14
ATOM     14  C   UNL     1      -4.437  13.635  22.939  0.00  0.00    +0.000 C 
ATOM     15  O   UNL     1      -4.257  14.722  23.464  0.00  0.00    +0.000 OA
BRANCH  14  16
ATOM     16  O   UNL     1      -5.606  12.950  22.892  0.00  0.00    +0.000 OA
BRANCH  16  18
ATOM     17  C   UNL     1      -7.523  13.400  24.233  0.00  0.00    +0.000 C 
ATOM     18  C   UNL     1      -6.197  12.664  24.164  0.00  0.00    +0.000 C 
ENDBRANCH  16  18
ENDBRANCH  14  16
ENDBRANCH   2  14
ENDBRANCH   1  12
BRANCH   1  19
ATOM     19  S   UNL     1       1.550   6.900  21.107  0.00  0.00    +0.000 S 
BRANCH  19  20
ATOM     20  C   UNL     1       2.204   6.076  19.728  0.00  0.00    +0.000 A 
ATOM     21  N   UNL     1       2.425   6.604  18.548  0.00  0.00    +0.000 NA
ATOM     22  N   UNL     1       3.137   5.685  17.809  0.00  0.00    +0.000 NA
ATOM     23  C   UNL     1       3.337   4.611  18.552  0.00  0.00    +0.000 A 
ATOM     24  N   UNL     1       2.690   4.793  19.759  0.00  0.00    +0.000 N 
BRANCH  24  25
ATOM     25  C   UNL     1       2.469   3.796  20.785  0.00  0.00    +0.000 C 
ATOM     26  C   UNL     1       1.148   3.058  20.653  0.00  0.00    +0.000 C 
ENDBRANCH  24  25
BRANCH  23  27
ATOM     27  C   UNL     1       4.179   3.417  18.181  0.00  0.00    +0.000 C 
BRANCH  27  28
ATOM     28  N   UNL     1       5.601   3.538  18.498  0.00  0.00    +0.000 N 
ATOM     29  H   UNL     1       5.847   3.134  19.395  0.00  0.00    +0.000 HD
BRANCH  28  30
ATOM     30  C   UNL     1       6.313   4.703  18.206  0.00  0.00    +0.000 A 
ATOM     31  C   UNL     1       7.086   5.281  19.224  0.00  0.00    +0.000 A 
ATOM     32  C   UNL     1       7.836   6.442  19.010  0.00  0.00    +0.000 A 
ATOM     33  C   UNL     1       7.861   7.030  17.751  0.00  0.00    +0.000 A 
ATOM     34  C   UNL     1       7.161   6.432  16.706  0.00  0.00    +0.000 A 
ATOM     35  C   UNL     1       6.406   5.271  16.931  0.00  0.00    +0.000 A 
ENDBRANCH  28  30
ENDBRANCH  27  28
ENDBRANCH  23  27
ENDBRANCH  19  20
ENDBRANCH   1  19
TORSDOF 10
ENDMDL
