MODEL 1
REMARK VINA RESULT:      -8.9      0.000      0.000
REMARK  Name = 
REMARK  8 active torsions:
REMARK  status: ('A' for Active; 'I' for Inactive)
REMARK    1  A    between atoms: C_1  and  C_2
REMARK    2  A    between atoms: C_2  and  C_3
REMARK    3  A    between atoms: C_7  and  N_8
REMARK    4  A    between atoms: C_9  and  C_11
REMARK    5  A    between atoms: C_11  and  C_12
REMARK    6  A    between atoms: C_12  and  S_13
REMARK    7  A    between atoms: S_13  and  C_16
REMARK    8  A    between atoms: C_24  and  C_25
REMARK                            x       y       z     vdW  Elec       q    Type
REMARK                         _______ _______ _______ _____ _____    ______ ____
ROOT
ATOM      1  S   UNL     1       6.205   5.077  17.308  0.00  0.00    +0.000 S 
ATOM      2  O   UNL     1       5.958   4.452  16.021  0.00  0.00    +0.000 OA
ATOM      3  O   UNL     1       7.022   4.411  18.298  0.00  0.00    +0.000 OA
ENDROOT
BRANCH   1   4
ATOM      4  C   UNL     1       4.616   5.426  18.029  0.00  0.00    +0.000 A 
ATOM      5  C   UNL     1       4.182   6.768  17.987  0.00  0.00    +0.000 A 
ATOM      6  C   UNL     1       2.820   7.073  18.092  0.00  0.00    +0.000 A 
ATOM      7 BR   UNL     1       2.255   8.867  17.906  0.00  0.00    +0.000 Br
ATOM      8  C   UNL     1       1.870   6.059  18.152  0.00  0.00    +0.000 A 
ATOM      9  C   UNL     1       2.327   4.751  18.142  0.00  0.00    +0.000 A 
ATOM     10  C   UNL     1       3.684   4.423  18.266  0.00  0.00    +0.000 A 
ATOM     11  N   UNL     1       3.831   3.014  18.151  0.00  0.00    +0.000 N 
ATOM     12  C   UNL     1       3.818   2.134  19.251  0.00  0.00    +0.000 C 
ATOM     13  C   UNL     1       3.506   2.646  20.643  0.00  0.00    +0.000 C 
ATOM     14  O   UNL     1       3.953   0.916  19.093  0.00  0.00    +0.000 OA
ATOM     15  C   UNL     1       2.736   2.665  17.223  0.00  0.00    +0.000 C 
ATOM     16  C   UNL     1       1.556   3.527  17.720  0.00  0.00    +0.000 C 
ENDBRANCH   1   4
BRANCH   1  17
ATOM     17  C   UNL     1       6.890   6.668  16.985  0.00  0.00    +0.000 C 
BRANCH  17  18
ATOM     18  C   UNL     1       7.781   7.118  18.131  0.00  0.00    +0.000 C 
BRANCH  18  20
ATOM     19  N   UNL     1       9.049   9.000  18.989  0.00  0.00    +0.000 N 
ATOM     20  C   UNL     1       8.071   8.604  18.098  0.00  0.00    +0.000 C 
ATOM     21  O   UNL     1       7.486   9.325  17.299  0.00  0.00    +0.000 OA
ATOM     22  H   UNL     1       9.616   8.283  19.418  0.00  0.00    +0.000 HD
BRANCH  19  27
ATOM     23  C   UNL     1      10.387  12.390  18.417  0.00  0.00    +0.000 A 
ATOM     24  C   UNL     1      10.263  12.958  19.687  0.00  0.00    +0.000 A 
ATOM     25  C   UNL     1       9.759  12.209  20.752  0.00  0.00    +0.000 A 
ATOM     26  C   UNL     1       9.363  10.888  20.553  0.00  0.00    +0.000 A 
ATOM     27  C   UNL     1       9.448  10.316  19.286  0.00  0.00    +0.000 A 
ATOM     28  C   UNL     1       9.976  11.065  18.227  0.00  0.00    +0.000 A 
BRANCH  23  30
ATOM     29  C   UNL     1      10.770  14.650  17.441  0.00  0.00    +0.000 C 
ATOM     30  C   UNL     1      11.007  13.157  17.279  0.00  0.00    +0.000 C 
ENDBRANCH  23  30
ENDBRANCH  19  27
ENDBRANCH  18  20
ENDBRANCH  17  18
ENDBRANCH   1  17
TORSDOF 6
ENDMDL
MODEL 2
REMARK VINA RESULT:      -8.7      0.977      1.049
REMARK  Name = 
REMARK  8 active torsions:
REMARK  status: ('A' for Active; 'I' for Inactive)
REMARK    1  A    between atoms: C_1  and  C_2
REMARK    2  A    between atoms: C_2  and  C_3
REMARK    3  A    between atoms: C_7  and  N_8
REMARK    4  A    between atoms: C_9  and  C_11
REMARK    5  A    between atoms: C_11  and  C_12
REMARK    6  A    between atoms: C_12  and  S_13
REMARK    7  A    between atoms: S_13  and  C_16
REMARK    8  A    between atoms: C_24  and  C_25
REMARK                            x       y       z     vdW  Elec       q    Type
REMARK                         _______ _______ _______ _____ _____    ______ ____
ROOT
ATOM      1  S   UNL     1       5.806   5.319  16.288  0.00  0.00    +0.000 S 
ATOM      2  O   UNL     1       5.544   6.060  15.068  0.00  0.00    +0.000 OA
ATOM      3  O   UNL     1       5.966   3.882  16.250  0.00  0.00    +0.000 OA
ENDROOT
BRANCH   1   4
ATOM      4  C   UNL     1       4.493   5.711  17.424  0.00  0.00    +0.000 A 
ATOM      5  C   UNL     1       4.107   7.065  17.503  0.00  0.00    +0.000 A 
ATOM      6  C   UNL     1       2.839   7.411  17.984  0.00  0.00    +0.000 A 
ATOM      7 BR   UNL     1       2.301   9.223  17.962  0.00  0.00    +0.000 Br
ATOM      8  C   UNL     1       1.912   6.426  18.309  0.00  0.00    +0.000 A 
ATOM      9  C   UNL     1       2.307   5.105  18.173  0.00  0.00    +0.000 A 
ATOM     10  C   UNL     1       3.634   4.735  17.913  0.00  0.00    +0.000 A 
ATOM     11  N   UNL     1       3.699   3.323  17.764  0.00  0.00    +0.000 N 
ATOM     12  C   UNL     1       3.966   2.435  18.825  0.00  0.00    +0.000 C 
ATOM     13  C   UNL     1       4.072   2.946  20.248  0.00  0.00    +0.000 C 
ATOM     14  O   UNL     1       4.013   1.215  18.637  0.00  0.00    +0.000 OA
ATOM     15  C   UNL     1       2.378   3.014  17.180  0.00  0.00    +0.000 C 
ATOM     16  C   UNL     1       1.411   3.908  17.986  0.00  0.00    +0.000 C 
ENDBRANCH   1   4
BRANCH   1  17
ATOM     17  C   UNL     1       7.240   6.030  17.026  0.00  0.00    +0.000 C 
BRANCH  17  18
ATOM     18  C   UNL     1       7.123   7.545  17.089  0.00  0.00    +0.000 C 
BRANCH  18  20
ATOM     19  N   UNL     1       8.209   9.532  17.955  0.00  0.00    +0.000 N 
ATOM     20  C   UNL     1       8.078   8.165  18.086  0.00  0.00    +0.000 C 
ATOM     21  O   UNL     1       8.617   7.464  18.934  0.00  0.00    +0.000 OA
ATOM     22  H   UNL     1       7.537  10.019  17.379  0.00  0.00    +0.000 HD
BRANCH  19  27
ATOM     23  C   UNL     1      10.946  11.958  18.439  0.00  0.00    +0.000 A 
ATOM     24  C   UNL     1      10.945  12.109  19.828  0.00  0.00    +0.000 A 
ATOM     25  C   UNL     1      10.052  11.383  20.618  0.00  0.00    +0.000 A 
ATOM     26  C   UNL     1       9.143  10.509  20.025  0.00  0.00    +0.000 A 
ATOM     27  C   UNL     1       9.108  10.371  18.639  0.00  0.00    +0.000 A 
ATOM     28  C   UNL     1      10.021  11.086  17.854  0.00  0.00    +0.000 A 
BRANCH  23  30
ATOM     29  C   UNL     1      11.341  13.890  16.914  0.00  0.00    +0.000 C 
ATOM     30  C   UNL     1      11.958  12.670  17.581  0.00  0.00    +0.000 C 
ENDBRANCH  23  30
ENDBRANCH  19  27
ENDBRANCH  18  20
ENDBRANCH  17  18
ENDBRANCH   1  17
TORSDOF 6
ENDMDL
MODEL 3
REMARK VINA RESULT:      -8.6      0.725      1.736
REMARK  Name = 
REMARK  8 active torsions:
REMARK  status: ('A' for Active; 'I' for Inactive)
REMARK    1  A    between atoms: C_1  and  C_2
REMARK    2  A    between atoms: C_2  and  C_3
REMARK    3  A    between atoms: C_7  and  N_8
REMARK    4  A    between atoms: C_9  and  C_11
REMARK    5  A    between atoms: C_11  and  C_12
REMARK    6  A    between atoms: C_12  and  S_13
REMARK    7  A    between atoms: S_13  and  C_16
REMARK    8  A    between atoms: C_24  and  C_25
REMARK                            x       y       z     vdW  Elec       q    Type
REMARK                         _______ _______ _______ _____ _____    ______ ____
ROOT
ATOM      1  S   UNL     1       6.296   5.265  17.635  0.00  0.00    +0.000 S 
ATOM      2  O   UNL     1       6.190   4.561  16.370  0.00  0.00    +0.000 OA
ATOM      3  O   UNL     1       7.078   4.710  18.716  0.00  0.00    +0.000 OA
ENDROOT
BRANCH   1   4
ATOM      4  C   UNL     1       4.636   5.533  18.219  0.00  0.00    +0.000 A 
ATOM      5  C   UNL     1       4.142   6.852  18.138  0.00  0.00    +0.000 A 
ATOM      6  C   UNL     1       2.762   7.090  18.127  0.00  0.00    +0.000 A 
ATOM      7 BR   UNL     1       2.126   8.854  17.892  0.00  0.00    +0.000 Br
ATOM      8  C   UNL     1       1.861   6.030  18.109  0.00  0.00    +0.000 A 
ATOM      9  C   UNL     1       2.382   4.746  18.140  0.00  0.00    +0.000 A 
ATOM     10  C   UNL     1       3.739   4.485  18.378  0.00  0.00    +0.000 A 
ATOM     11  N   UNL     1       3.964   3.085  18.278  0.00  0.00    +0.000 N 
ATOM     12  C   UNL     1       3.902   2.202  19.374  0.00  0.00    +0.000 C 
ATOM     13  C   UNL     1       3.449   2.695  20.734  0.00  0.00    +0.000 C 
ATOM     14  O   UNL     1       4.110   0.994  19.230  0.00  0.00    +0.000 OA
ATOM     15  C   UNL     1       2.970   2.685  17.262  0.00  0.00    +0.000 C 
ATOM     16  C   UNL     1       1.711   3.486  17.656  0.00  0.00    +0.000 C 
ENDBRANCH   1   4
BRANCH   1  17
ATOM     17  C   UNL     1       6.892   6.884  17.275  0.00  0.00    +0.000 C 
BRANCH  17  18
ATOM     18  C   UNL     1       7.993   7.284  18.244  0.00  0.00    +0.000 C 
BRANCH  18  20
ATOM     19  N   UNL     1       9.216   9.168  19.160  0.00  0.00    +0.000 N 
ATOM     20  C   UNL     1       8.245   8.777  18.259  0.00  0.00    +0.000 C 
ATOM     21  O   UNL     1       7.640   9.508  17.485  0.00  0.00    +0.000 OA
ATOM     22  H   UNL     1       9.801   8.452  19.564  0.00  0.00    +0.000 HD
BRANCH  19  27
ATOM     23  C   UNL     1       9.503  12.232  21.194  0.00  0.00    +0.000 A 
ATOM     24  C   UNL     1      10.249  13.060  20.352  0.00  0.00    +0.000 A 
ATOM     25  C   UNL     1      10.639  12.615  19.086  0.00  0.00    +0.000 A 
ATOM     26  C   UNL     1      10.296  11.334  18.658  0.00  0.00    +0.000 A 
ATOM     27  C   UNL     1       9.582  10.484  19.499  0.00  0.00    +0.000 A 
ATOM     28  C   UNL     1       9.175  10.944  20.758  0.00  0.00    +0.000 A 
BRANCH  23  30
ATOM     29  C   UNL     1       9.122  14.240  22.620  0.00  0.00    +0.000 C 
ATOM     30  C   UNL     1       9.003  12.727  22.526  0.00  0.00    +0.000 C 
ENDBRANCH  23  30
ENDBRANCH  19  27
ENDBRANCH  18  20
ENDBRANCH  17  18
ENDBRANCH   1  17
TORSDOF 6
ENDMDL
MODEL 4
REMARK VINA RESULT:      -8.6      4.603      6.522
REMARK  Name = 
REMARK  8 active torsions:
REMARK  status: ('A' for Active; 'I' for Inactive)
REMARK    1  A    between atoms: C_1  and  C_2
REMARK    2  A    between atoms: C_2  and  C_3
REMARK    3  A    between atoms: C_7  and  N_8
REMARK    4  A    between atoms: C_9  and  C_11
REMARK    5  A    between atoms: C_11  and  C_12
REMARK    6  A    between atoms: C_12  and  S_13
REMARK    7  A    between atoms: S_13  and  C_16
REMARK    8  A    between atoms: C_24  and  C_25
REMARK                            x       y       z     vdW  Elec       q    Type
REMARK                         _______ _______ _______ _____ _____    ______ ____
ROOT
ATOM      1  S   UNL     1       4.071   6.199  17.822  0.00  0.00    +0.000 S 
ATOM      2  O   UNL     1       3.849   7.599  17.510  0.00  0.00    +0.000 OA
ATOM      3  O   UNL     1       3.812   5.180  16.830  0.00  0.00    +0.000 OA
ENDROOT
BRANCH   1   4
ATOM      4  C   UNL     1       3.107   5.832  19.273  0.00  0.00    +0.000 A 
ATOM      5  C   UNL     1       2.530   6.930  19.944  0.00  0.00    +0.000 A 
ATOM      6  C   UNL     1       1.421   6.745  20.779  0.00  0.00    +0.000 A 
ATOM      7 BR   UNL     1       0.591   8.249  21.567  0.00  0.00    +0.000 Br
ATOM      8  C   UNL     1       0.821   5.495  20.891  0.00  0.00    +0.000 A 
ATOM      9  C   UNL     1       1.384   4.448  20.179  0.00  0.00    +0.000 A 
ATOM     10  C   UNL     1       2.617   4.556  19.522  0.00  0.00    +0.000 A 
ATOM     11  N   UNL     1       2.882   3.341  18.833  0.00  0.00    +0.000 N 
ATOM     12  C   UNL     1       3.604   2.267  19.390  0.00  0.00    +0.000 C 
ATOM     13  C   UNL     1       4.036   2.301  20.843  0.00  0.00    +0.000 C 
ATOM     14  O   UNL     1       3.807   1.234  18.744  0.00  0.00    +0.000 OA
ATOM     15  C   UNL     1       1.523   2.890  18.471  0.00  0.00    +0.000 C 
ATOM     16  C   UNL     1       0.697   3.179  19.743  0.00  0.00    +0.000 C 
ENDBRANCH   1   4
BRANCH   1  17
ATOM     17  C   UNL     1       5.741   6.051  18.366  0.00  0.00    +0.000 C 
BRANCH  17  18
ATOM     18  C   UNL     1       6.255   4.635  18.160  0.00  0.00    +0.000 C 
BRANCH  18  20
ATOM     19  N   UNL     1       6.268   4.841  15.743  0.00  0.00    +0.000 N 
ATOM     20  C   UNL     1       7.001   4.468  16.853  0.00  0.00    +0.000 C 
ATOM     21  O   UNL     1       8.161   4.075  16.856  0.00  0.00    +0.000 OA
ATOM     22  H   UNL     1       5.420   5.367  15.892  0.00  0.00    +0.000 HD
BRANCH  19  27
ATOM     23  C   UNL     1       6.180   3.520  12.300  0.00  0.00    +0.000 A 
ATOM     24  C   UNL     1       7.192   4.264  11.688  0.00  0.00    +0.000 A 
ATOM     25  C   UNL     1       7.932   5.192  12.424  0.00  0.00    +0.000 A 
ATOM     26  C   UNL     1       7.658   5.393  13.775  0.00  0.00    +0.000 A 
ATOM     27  C   UNL     1       6.630   4.684  14.393  0.00  0.00    +0.000 A 
ATOM     28  C   UNL     1       5.907   3.739  13.655  0.00  0.00    +0.000 A 
BRANCH  23  30
ATOM     29  C   UNL     1       4.072   2.970  11.090  0.00  0.00    +0.000 C 
ATOM     30  C   UNL     1       5.430   2.457  11.542  0.00  0.00    +0.000 C 
ENDBRANCH  23  30
ENDBRANCH  19  27
ENDBRANCH  18  20
ENDBRANCH  17  18
ENDBRANCH   1  17
TORSDOF 6
ENDMDL
MODEL 5
REMARK VINA RESULT:      -8.0      6.450      9.306
REMARK  Name = 
REMARK  8 active torsions:
REMARK  status: ('A' for Active; 'I' for Inactive)
REMARK    1  A    between atoms: C_1  and  C_2
REMARK    2  A    between atoms: C_2  and  C_3
REMARK    3  A    between atoms: C_7  and  N_8
REMARK    4  A    between atoms: C_9  and  C_11
REMARK    5  A    between atoms: C_11  and  C_12
REMARK    6  A    between atoms: C_12  and  S_13
REMARK    7  A    between atoms: S_13  and  C_16
REMARK    8  A    between atoms: C_24  and  C_25
REMARK                            x       y       z     vdW  Elec       q    Type
REMARK                         _______ _______ _______ _____ _____    ______ ____
ROOT
ATOM      1  S   UNL     1      -0.008   9.473  21.959  0.00  0.00    +0.000 S 
ATOM      2  O   UNL     1      -0.879   8.312  21.917  0.00  0.00    +0.000 OA
ATOM      3  O   UNL     1       0.226  10.165  23.206  0.00  0.00    +0.000 OA
ENDROOT
BRANCH   1   4
ATOM      4  C   UNL     1      -0.643  10.640  20.775  0.00  0.00    +0.000 A 
ATOM      5  C   UNL     1      -0.843  10.165  19.462  0.00  0.00    +0.000 A 
ATOM      6  C   UNL     1      -1.733  10.821  18.602  0.00  0.00    +0.000 A 
ATOM      7 BR   UNL     1      -2.077  10.092  16.893  0.00  0.00    +0.000 Br
ATOM      8  C   UNL     1      -2.494  11.894  19.055  0.00  0.00    +0.000 A 
ATOM      9  C   UNL     1      -2.308  12.303  20.366  0.00  0.00    +0.000 A 
ATOM     10  C   UNL     1      -1.270  11.815  21.171  0.00  0.00    +0.000 A 
ATOM     11  N   UNL     1      -1.392  12.375  22.472  0.00  0.00    +0.000 N 
ATOM     12  C   UNL     1      -0.753  13.564  22.875  0.00  0.00    +0.000 C 
ATOM     13  C   UNL     1       0.015  14.403  21.873  0.00  0.00    +0.000 C 
ATOM     14  O   UNL     1      -0.892  14.004  24.020  0.00  0.00    +0.000 OA
ATOM     15  C   UNL     1      -2.855  12.528  22.605  0.00  0.00    +0.000 C 
ATOM     16  C   UNL     1      -3.287  13.063  21.223  0.00  0.00    +0.000 C 
ENDBRANCH   1   4
BRANCH   1  17
ATOM     17  C   UNL     1       1.543   8.977  21.285  0.00  0.00    +0.000 C 
BRANCH  17  18
ATOM     18  C   UNL     1       1.588   7.472  21.074  0.00  0.00    +0.000 C 
BRANCH  18  20
ATOM     19  N   UNL     1       2.841   5.834  19.799  0.00  0.00    +0.000 N 
ATOM     20  C   UNL     1       2.253   7.082  19.771  0.00  0.00    +0.000 C 
ATOM     21  O   UNL     1       2.198   7.836  18.807  0.00  0.00    +0.000 OA
ATOM     22  H   UNL     1       2.614   5.221  20.568  0.00  0.00    +0.000 HD
BRANCH  19  27
ATOM     23  C   UNL     1       5.902   4.893  17.967  0.00  0.00    +0.000 A 
ATOM     24  C   UNL     1       5.379   4.127  16.922  0.00  0.00    +0.000 A 
ATOM     25  C   UNL     1       4.000   3.941  16.801  0.00  0.00    +0.000 A 
ATOM     26  C   UNL     1       3.133   4.509  17.732  0.00  0.00    +0.000 A 
ATOM     27  C   UNL     1       3.639   5.247  18.800  0.00  0.00    +0.000 A 
ATOM     28  C   UNL     1       5.021   5.449  18.902  0.00  0.00    +0.000 A 
BRANCH  23  30
ATOM     29  C   UNL     1       7.725   5.800  19.403  0.00  0.00    +0.000 C 
ATOM     30  C   UNL     1       7.379   5.173  18.062  0.00  0.00    +0.000 C 
ENDBRANCH  23  30
ENDBRANCH  19  27
ENDBRANCH  18  20
ENDBRANCH  17  18
ENDBRANCH   1  17
TORSDOF 6
ENDMDL
MODEL 6
REMARK VINA RESULT:      -7.9      4.342      6.382
REMARK  Name = 
REMARK  8 active torsions:
REMARK  status: ('A' for Active; 'I' for Inactive)
REMARK    1  A    between atoms: C_1  and  C_2
REMARK    2  A    between atoms: C_2  and  C_3
REMARK    3  A    between atoms: C_7  and  N_8
REMARK    4  A    between atoms: C_9  and  C_11
REMARK    5  A    between atoms: C_11  and  C_12
REMARK    6  A    between atoms: C_12  and  S_13
REMARK    7  A    between atoms: S_13  and  C_16
REMARK    8  A    between atoms: C_24  and  C_25
REMARK                            x       y       z     vdW  Elec       q    Type
REMARK                         _______ _______ _______ _____ _____    ______ ____
ROOT
ATOM      1  S   UNL     1       4.624   5.631  17.863  0.00  0.00    +0.000 S 
ATOM      2  O   UNL     1       4.939   7.047  17.850  0.00  0.00    +0.000 OA
ATOM      3  O   UNL     1       4.100   4.989  16.677  0.00  0.00    +0.000 OA
ENDROOT
BRANCH   1   4
ATOM      4  C   UNL     1       3.479   5.367  19.200  0.00  0.00    +0.000 A 
ATOM      5  C   UNL     1       2.910   6.518  19.783  0.00  0.00    +0.000 A 
ATOM      6  C   UNL     1       1.704   6.430  20.489  0.00  0.00    +0.000 A 
ATOM      7 BR   UNL     1       0.900   8.006  21.152  0.00  0.00    +0.000 Br
ATOM      8  C   UNL     1       1.008   5.228  20.553  0.00  0.00    +0.000 A 
ATOM      9  C   UNL     1       1.571   4.127  19.927  0.00  0.00    +0.000 A 
ATOM     10  C   UNL     1       2.875   4.134  19.412  0.00  0.00    +0.000 A 
ATOM     11  N   UNL     1       3.128   2.887  18.779  0.00  0.00    +0.000 N 
ATOM     12  C   UNL     1       3.704   1.780  19.432  0.00  0.00    +0.000 C 
ATOM     13  C   UNL     1       3.971   1.819  20.923  0.00  0.00    +0.000 C 
ATOM     14  O   UNL     1       3.904   0.720  18.830  0.00  0.00    +0.000 OA
ATOM     15  C   UNL     1       1.789   2.523  18.271  0.00  0.00    +0.000 C 
ATOM     16  C   UNL     1       0.849   2.898  19.436  0.00  0.00    +0.000 C 
ENDBRANCH   1   4
BRANCH   1  17
ATOM     17  C   UNL     1       6.082   4.782  18.371  0.00  0.00    +0.000 C 
BRANCH  17  18
ATOM     18  C   UNL     1       7.326   5.578  18.012  0.00  0.00    +0.000 C 
BRANCH  18  20
ATOM     19  N   UNL     1       6.984   4.813  15.736  0.00  0.00    +0.000 N 
ATOM     20  C   UNL     1       7.439   5.849  16.526  0.00  0.00    +0.000 C 
ATOM     21  O   UNL     1       7.864   6.928  16.132  0.00  0.00    +0.000 OA
ATOM     22  H   UNL     1       6.445   4.083  16.178  0.00  0.00    +0.000 HD
BRANCH  19  27
ATOM     23  C   UNL     1       6.282   3.556  12.339  0.00  0.00    +0.000 A 
ATOM     24  C   UNL     1       7.100   4.379  11.561  0.00  0.00    +0.000 A 
ATOM     25  C   UNL     1       7.915   5.340  12.163  0.00  0.00    +0.000 A 
ATOM     26  C   UNL     1       7.909   5.496  13.547  0.00  0.00    +0.000 A 
ATOM     27  C   UNL     1       7.074   4.707  14.336  0.00  0.00    +0.000 A 
ATOM     28  C   UNL     1       6.276   3.729  13.728  0.00  0.00    +0.000 A 
BRANCH  23  30
ATOM     29  C   UNL     1       6.359   1.361  11.163  0.00  0.00    +0.000 C 
ATOM     30  C   UNL     1       5.463   2.459  11.713  0.00  0.00    +0.000 C 
ENDBRANCH  23  30
ENDBRANCH  19  27
ENDBRANCH  18  20
ENDBRANCH  17  18
ENDBRANCH   1  17
TORSDOF 6
ENDMDL
MODEL 7
REMARK VINA RESULT:      -7.9      1.086      1.735
REMARK  Name = 
REMARK  8 active torsions:
REMARK  status: ('A' for Active; 'I' for Inactive)
REMARK    1  A    between atoms: C_1  and  C_2
REMARK    2  A    between atoms: C_2  and  C_3
REMARK    3  A    between atoms: C_7  and  N_8
REMARK    4  A    between atoms: C_9  and  C_11
REMARK    5  A    between atoms: C_11  and  C_12
REMARK    6  A    between atoms: C_12  and  S_13
REMARK    7  A    between atoms: S_13  and  C_16
REMARK    8  A    between atoms: C_24  and  C_25
REMARK                            x       y       z     vdW  Elec       q    Type
REMARK                         _______ _______ _______ _____ _____    ______ ____
ROOT
ATOM      1  S   UNL     1       5.926   5.087  16.341  0.00  0.00    +0.000 S 
ATOM      2  O   UNL     1       5.945   6.115  15.317  0.00  0.00    +0.000 OA
ATOM      3  O   UNL     1       5.798   3.694  15.975  0.00  0.00    +0.000 OA
ENDROOT
BRANCH   1   4
ATOM      4  C   UNL     1       4.607   5.498  17.464  0.00  0.00    +0.000 A 
ATOM      5  C   UNL     1       4.221   6.853  17.518  0.00  0.00    +0.000 A 
ATOM      6  C   UNL     1       2.950   7.208  17.987  0.00  0.00    +0.000 A 
ATOM      7 BR   UNL     1       2.414   9.019  17.932  0.00  0.00    +0.000 Br
ATOM      8  C   UNL     1       2.021   6.229  18.323  0.00  0.00    +0.000 A 
ATOM      9  C   UNL     1       2.416   4.906  18.210  0.00  0.00    +0.000 A 
ATOM     10  C   UNL     1       3.744   4.530  17.964  0.00  0.00    +0.000 A 
ATOM     11  N   UNL     1       3.809   3.116  17.838  0.00  0.00    +0.000 N 
ATOM     12  C   UNL     1       4.070   2.246  18.915  0.00  0.00    +0.000 C 
ATOM     13  C   UNL     1       4.168   2.780  20.330  0.00  0.00    +0.000 C 
ATOM     14  O   UNL     1       4.117   1.023  18.747  0.00  0.00    +0.000 OA
ATOM     15  C   UNL     1       2.491   2.799  17.252  0.00  0.00    +0.000 C 
ATOM     16  C   UNL     1       1.520   3.706  18.038  0.00  0.00    +0.000 C 
ENDBRANCH   1   4
BRANCH   1  17
ATOM     17  C   UNL     1       7.388   5.289  17.304  0.00  0.00    +0.000 C 
BRANCH  17  18
ATOM     18  C   UNL     1       7.194   6.359  18.367  0.00  0.00    +0.000 C 
BRANCH  18  20
ATOM     19  N   UNL     1       8.491   8.318  18.969  0.00  0.00    +0.000 N 
ATOM     20  C   UNL     1       7.776   7.697  17.964  0.00  0.00    +0.000 C 
ATOM     21  O   UNL     1       7.626   8.111  16.821  0.00  0.00    +0.000 OA
ATOM     22  H   UNL     1       8.739   7.771  19.780  0.00  0.00    +0.000 HD
BRANCH  19  27
ATOM     23  C   UNL     1       9.725  11.540  20.273  0.00  0.00    +0.000 A 
ATOM     24  C   UNL     1      10.135  12.179  19.100  0.00  0.00    +0.000 A 
ATOM     25  C   UNL     1       9.978  11.554  17.861  0.00  0.00    +0.000 A 
ATOM     26  C   UNL     1       9.421  10.279  17.786  0.00  0.00    +0.000 A 
ATOM     27  C   UNL     1       9.038   9.614  18.949  0.00  0.00    +0.000 A 
ATOM     28  C   UNL     1       9.177  10.256  20.186  0.00  0.00    +0.000 A 
BRANCH  23  30
ATOM     29  C   UNL     1       9.893  13.742  21.428  0.00  0.00    +0.000 C 
ATOM     30  C   UNL     1       9.810  12.235  21.607  0.00  0.00    +0.000 C 
ENDBRANCH  23  30
ENDBRANCH  19  27
ENDBRANCH  18  20
ENDBRANCH  17  18
ENDBRANCH   1  17
TORSDOF 6
ENDMDL
MODEL 8
REMARK VINA RESULT:      -7.9      1.683      1.939
REMARK  Name = 
REMARK  8 active torsions:
REMARK  status: ('A' for Active; 'I' for Inactive)
REMARK    1  A    between atoms: C_1  and  C_2
REMARK    2  A    between atoms: C_2  and  C_3
REMARK    3  A    between atoms: C_7  and  N_8
REMARK    4  A    between atoms: C_9  and  C_11
REMARK    5  A    between atoms: C_11  and  C_12
REMARK    6  A    between atoms: C_12  and  S_13
REMARK    7  A    between atoms: S_13  and  C_16
REMARK    8  A    between atoms: C_24  and  C_25
REMARK                            x       y       z     vdW  Elec       q    Type
REMARK                         _______ _______ _______ _____ _____    ______ ____
ROOT
ATOM      1  S   UNL     1       4.447   5.501  17.115  0.00  0.00    +0.000 S 
ATOM      2  O   UNL     1       4.268   6.864  16.650  0.00  0.00    +0.000 OA
ATOM      3  O   UNL     1       4.062   4.387  16.277  0.00  0.00    +0.000 OA
ENDROOT
BRANCH   1   4
ATOM      4  C   UNL     1       3.584   5.364  18.666  0.00  0.00    +0.000 A 
ATOM      5  C   UNL     1       3.132   6.568  19.247  0.00  0.00    +0.000 A 
ATOM      6  C   UNL     1       2.086   6.554  20.178  0.00  0.00    +0.000 A 
ATOM      7 BR   UNL     1       1.418   8.190  20.846  0.00  0.00    +0.000 Br
ATOM      8  C   UNL     1       1.422   5.369  20.478  0.00  0.00    +0.000 A 
ATOM      9  C   UNL     1       1.858   4.213  19.851  0.00  0.00    +0.000 A 
ATOM     10  C   UNL     1       3.038   4.161  19.096  0.00  0.00    +0.000 A 
ATOM     11  N   UNL     1       3.170   2.862  18.534  0.00  0.00    +0.000 N 
ATOM     12  C   UNL     1       3.868   1.808  19.156  0.00  0.00    +0.000 C 
ATOM     13  C   UNL     1       4.418   1.971  20.559  0.00  0.00    +0.000 C 
ATOM     14  O   UNL     1       3.953   0.699  18.620  0.00  0.00    +0.000 OA
ATOM     15  C   UNL     1       1.761   2.471  18.328  0.00  0.00    +0.000 C 
ATOM     16  C   UNL     1       1.062   2.956  19.616  0.00  0.00    +0.000 C 
ENDBRANCH   1   4
BRANCH   1  17
ATOM     17  C   UNL     1       6.145   5.323  17.551  0.00  0.00    +0.000 C 
BRANCH  17  18
ATOM     18  C   UNL     1       6.994   6.385  16.871  0.00  0.00    +0.000 C 
BRANCH  18  20
ATOM     19  N   UNL     1       7.698   8.619  17.501  0.00  0.00    +0.000 N 
ATOM     20  C   UNL     1       7.707   7.286  17.857  0.00  0.00    +0.000 C 
ATOM     21  O   UNL     1       8.187   6.813  18.880  0.00  0.00    +0.000 OA
ATOM     22  H   UNL     1       7.070   8.907  16.764  0.00  0.00    +0.000 HD
BRANCH  19  27
ATOM     23  C   UNL     1       8.846  12.066  18.139  0.00  0.00    +0.000 A 
ATOM     24  C   UNL     1       9.631  11.893  19.282  0.00  0.00    +0.000 A 
ATOM     25  C   UNL     1       9.809  10.623  19.834  0.00  0.00    +0.000 A 
ATOM     26  C   UNL     1       9.192   9.516  19.254  0.00  0.00    +0.000 A 
ATOM     27  C   UNL     1       8.378   9.675  18.135  0.00  0.00    +0.000 A 
ATOM     28  C   UNL     1       8.223  10.948  17.573  0.00  0.00    +0.000 A 
BRANCH  23  30
ATOM     29  C   UNL     1       9.737  14.392  18.044  0.00  0.00    +0.000 C 
ATOM     30  C   UNL     1       8.714  13.416  17.484  0.00  0.00    +0.000 C 
ENDBRANCH  23  30
ENDBRANCH  19  27
ENDBRANCH  18  20
ENDBRANCH  17  18
ENDBRANCH   1  17
TORSDOF 6
ENDMDL
MODEL 9
REMARK VINA RESULT:      -7.9      1.666      2.380
REMARK  Name = 
REMARK  8 active torsions:
REMARK  status: ('A' for Active; 'I' for Inactive)
REMARK    1  A    between atoms: C_1  and  C_2
REMARK    2  A    between atoms: C_2  and  C_3
REMARK    3  A    between atoms: C_7  and  N_8
REMARK    4  A    between atoms: C_9  and  C_11
REMARK    5  A    between atoms: C_11  and  C_12
REMARK    6  A    between atoms: C_12  and  S_13
REMARK    7  A    between atoms: S_13  and  C_16
REMARK    8  A    between atoms: C_24  and  C_25
REMARK                            x       y       z     vdW  Elec       q    Type
REMARK                         _______ _______ _______ _____ _____    ______ ____
ROOT
ATOM      1  S   UNL     1       4.468   5.916  17.388  0.00  0.00    +0.000 S 
ATOM      2  O   UNL     1       4.044   7.195  16.848  0.00  0.00    +0.000 OA
ATOM      3  O   UNL     1       4.402   4.722  16.574  0.00  0.00    +0.000 OA
ENDROOT
BRANCH   1   4
ATOM      4  C   UNL     1       3.526   5.641  18.872  0.00  0.00    +0.000 A 
ATOM      5  C   UNL     1       3.021   6.786  19.522  0.00  0.00    +0.000 A 
ATOM      6  C   UNL     1       1.927   6.680  20.390  0.00  0.00    +0.000 A 
ATOM      7 BR   UNL     1       1.191   8.247  21.150  0.00  0.00    +0.000 Br
ATOM      8  C   UNL     1       1.270   5.465  20.557  0.00  0.00    +0.000 A 
ATOM      9  C   UNL     1       1.763   4.371  19.865  0.00  0.00    +0.000 A 
ATOM     10  C   UNL     1       2.982   4.399  19.174  0.00  0.00    +0.000 A 
ATOM     11  N   UNL     1       3.170   3.152  18.518  0.00  0.00    +0.000 N 
ATOM     12  C   UNL     1       3.854   2.061  19.091  0.00  0.00    +0.000 C 
ATOM     13  C   UNL     1       4.325   2.118  20.530  0.00  0.00    +0.000 C 
ATOM     14  O   UNL     1       3.990   1.000  18.473  0.00  0.00    +0.000 OA
ATOM     15  C   UNL     1       1.782   2.757  18.204  0.00  0.00    +0.000 C 
ATOM     16  C   UNL     1       1.005   3.124  19.486  0.00  0.00    +0.000 C 
ENDBRANCH   1   4
BRANCH   1  17
ATOM     17  C   UNL     1       6.123   6.122  17.960  0.00  0.00    +0.000 C 
BRANCH  17  18
ATOM     18  C   UNL     1       6.814   7.257  17.223  0.00  0.00    +0.000 C 
BRANCH  18  20
ATOM     19  N   UNL     1       7.966   9.292  17.868  0.00  0.00    +0.000 N 
ATOM     20  C   UNL     1       7.889   7.926  18.054  0.00  0.00    +0.000 C 
ATOM     21  O   UNL     1       8.561   7.262  18.833  0.00  0.00    +0.000 OA
ATOM     22  H   UNL     1       7.207   9.747  17.383  0.00  0.00    +0.000 HD
BRANCH  19  27
ATOM     23  C   UNL     1       9.719  11.373  20.359  0.00  0.00    +0.000 A 
ATOM     24  C   UNL     1      10.784  11.875  19.606  0.00  0.00    +0.000 A 
ATOM     25  C   UNL     1      10.912  11.547  18.254  0.00  0.00    +0.000 A 
ATOM     26  C   UNL     1       9.983  10.705  17.647  0.00  0.00    +0.000 A 
ATOM     27  C   UNL     1       8.934  10.168  18.391  0.00  0.00    +0.000 A 
ATOM     28  C   UNL     1       8.799  10.519  19.741  0.00  0.00    +0.000 A 
BRANCH  23  30
ATOM     29  C   UNL     1       8.433  12.841  21.908  0.00  0.00    +0.000 C 
ATOM     30  C   UNL     1       9.520  11.784  21.794  0.00  0.00    +0.000 C 
ENDBRANCH  23  30
ENDBRANCH  19  27
ENDBRANCH  18  20
ENDBRANCH  17  18
ENDBRANCH   1  17
TORSDOF 6
ENDMDL
