MODEL 1
REMARK VINA RESULT:      -7.8      0.000      0.000
REMARK  Name = 
REMARK  8 active torsions:
REMARK  status: ('A' for Active; 'I' for Inactive)
REMARK    1  A    between atoms: C_1  and  C_2
REMARK    2  A    between atoms: C_2  and  C_3
REMARK    3  A    between atoms: C_2  and  C_4
REMARK    4  A    between atoms: C_2  and  N_5
REMARK    5  A    between atoms: C_9  and  C_11
REMARK    6  A    between atoms: C_11  and  O_12
REMARK    7  A    between atoms: O_12  and  C_13
REMARK    8  A    between atoms: C_13  and  C_15
REMARK                            x       y       z     vdW  Elec       q    Type
REMARK                         _______ _______ _______ _____ _____    ______ ____
ROOT
ATOM      1  N   UNL     1       3.138   3.652  19.706  0.00  0.00    +0.000 N 
ATOM      2  C   UNL     1       4.056   2.693  19.389  0.00  0.00    +0.000 C 
ATOM      3  O   UNL     1       3.878   1.485  19.521  0.00  0.00    +0.000 OA
ATOM      4  N   UNL     1       5.251   3.148  18.886  0.00  0.00    +0.000 N 
ATOM      5  C   UNL     1       5.647   4.453  18.654  0.00  0.00    +0.000 C 
ATOM      6  O   UNL     1       4.943   5.438  18.882  0.00  0.00    +0.000 OA
ATOM      7  H   UNL     1       3.419   4.612  19.517  0.00  0.00    +0.000 HD
ATOM      8  H   UNL     1       5.864   2.396  18.587  0.00  0.00    +0.000 HD
ENDROOT
BRANCH   1  10
ATOM      9  C   UNL     1       1.070   4.747  20.499  0.00  0.00    +0.000 C 
ATOM     10  C   UNL     1       1.786   3.415  20.229  0.00  0.00    +0.000 C 
ATOM     11  C   UNL     1       1.836   2.570  21.511  0.00  0.00    +0.000 C 
ATOM     12  C   UNL     1       0.974   2.642  19.171  0.00  0.00    +0.000 C 
ENDBRANCH   1  10
BRANCH   5  13
ATOM     13  C   UNL     1       7.045   4.596  18.065  0.00  0.00    +0.000 C 
BRANCH  13  14
ATOM     14  O   UNL     1       7.063   4.276  16.673  0.00  0.00    +0.000 OA
BRANCH  14  15
ATOM     15  C   UNL     1       7.185   5.344  15.850  0.00  0.00    +0.000 C 
ATOM     16  O   UNL     1       7.347   6.496  16.221  0.00  0.00    +0.000 OA
BRANCH  15  17
ATOM     17  C   UNL     1       7.118   4.924  14.423  0.00  0.00    +0.000 A 
ATOM     18  C   UNL     1       7.902   5.521  13.423  0.00  0.00    +0.000 A 
ATOM     19  C   UNL     1       7.796   5.098  12.094  0.00  0.00    +0.000 A 
ATOM     20  C   UNL     1       6.906   4.078  11.761  0.00  0.00    +0.000 A 
ATOM     21  C   UNL     1       6.130   3.492  12.755  0.00  0.00    +0.000 A 
ATOM     22  F   UNL     1       5.275   2.514  12.429  0.00  0.00    +0.000 F 
ATOM     23  C   UNL     1       6.226   3.902  14.080  0.00  0.00    +0.000 A 
ENDBRANCH  15  17
ENDBRANCH  14  15
ENDBRANCH  13  14
ENDBRANCH   5  13
TORSDOF 5
ENDMDL
MODEL 2
REMARK VINA RESULT:      -7.8      1.003      1.700
REMARK  Name = 
REMARK  8 active torsions:
REMARK  status: ('A' for Active; 'I' for Inactive)
REMARK    1  A    between atoms: C_1  and  C_2
REMARK    2  A    between atoms: C_2  and  C_3
REMARK    3  A    between atoms: C_2  and  C_4
REMARK    4  A    between atoms: C_2  and  N_5
REMARK    5  A    between atoms: C_9  and  C_11
REMARK    6  A    between atoms: C_11  and  O_12
REMARK    7  A    between atoms: O_12  and  C_13
REMARK    8  A    between atoms: C_13  and  C_15
REMARK                            x       y       z     vdW  Elec       q    Type
REMARK                         _______ _______ _______ _____ _____    ______ ____
ROOT
ATOM      1  N   UNL     1       3.423   4.038  19.487  0.00  0.00    +0.000 N 
ATOM      2  C   UNL     1       4.345   3.074  19.199  0.00  0.00    +0.000 C 
ATOM      3  O   UNL     1       4.112   1.868  19.184  0.00  0.00    +0.000 OA
ATOM      4  N   UNL     1       5.611   3.521  18.907  0.00  0.00    +0.000 N 
ATOM      5  C   UNL     1       6.075   4.823  18.862  0.00  0.00    +0.000 C 
ATOM      6  O   UNL     1       5.378   5.812  19.092  0.00  0.00    +0.000 OA
ATOM      7  H   UNL     1       3.757   4.999  19.434  0.00  0.00    +0.000 HD
ATOM      8  H   UNL     1       6.234   2.774  18.617  0.00  0.00    +0.000 HD
ENDROOT
BRANCH   1  10
ATOM      9  C   UNL     1       1.226   3.437  18.532  0.00  0.00    +0.000 C 
ATOM     10  C   UNL     1       2.006   3.814  19.800  0.00  0.00    +0.000 C 
ATOM     11  C   UNL     1       1.386   5.059  20.454  0.00  0.00    +0.000 C 
ATOM     12  C   UNL     1       1.897   2.641  20.794  0.00  0.00    +0.000 C 
ENDBRANCH   1  10
BRANCH   5  13
ATOM     13  C   UNL     1       7.545   4.958  18.480  0.00  0.00    +0.000 C 
BRANCH  13  14
ATOM     14  O   UNL     1       7.767   4.602  17.115  0.00  0.00    +0.000 OA
BRANCH  14  15
ATOM     15  C   UNL     1       7.374   5.535  16.216  0.00  0.00    +0.000 C 
ATOM     16  O   UNL     1       7.512   6.741  16.357  0.00  0.00    +0.000 OA
BRANCH  15  17
ATOM     17  C   UNL     1       6.766   4.896  15.018  0.00  0.00    +0.000 A 
ATOM     18  C   UNL     1       5.523   4.241  15.060  0.00  0.00    +0.000 A 
ATOM     19  C   UNL     1       4.998   3.646  13.909  0.00  0.00    +0.000 A 
ATOM     20  C   UNL     1       5.711   3.704  12.712  0.00  0.00    +0.000 A 
ATOM     21  C   UNL     1       6.941   4.351  12.677  0.00  0.00    +0.000 A 
ATOM     22  F   UNL     1       7.623   4.402  11.525  0.00  0.00    +0.000 F 
ATOM     23  C   UNL     1       7.476   4.947  13.814  0.00  0.00    +0.000 A 
ENDBRANCH  15  17
ENDBRANCH  14  15
ENDBRANCH  13  14
ENDBRANCH   5  13
TORSDOF 5
ENDMDL
MODEL 3
REMARK VINA RESULT:      -7.5      1.123      1.601
REMARK  Name = 
REMARK  8 active torsions:
REMARK  status: ('A' for Active; 'I' for Inactive)
REMARK    1  A    between atoms: C_1  and  C_2
REMARK    2  A    between atoms: C_2  and  C_3
REMARK    3  A    between atoms: C_2  and  C_4
REMARK    4  A    between atoms: C_2  and  N_5
REMARK    5  A    between atoms: C_9  and  C_11
REMARK    6  A    between atoms: C_11  and  O_12
REMARK    7  A    between atoms: O_12  and  C_13
REMARK    8  A    between atoms: C_13  and  C_15
REMARK                            x       y       z     vdW  Elec       q    Type
REMARK                         _______ _______ _______ _____ _____    ______ ____
ROOT
ATOM      1  N   UNL     1       2.964   3.719  19.480  0.00  0.00    +0.000 N 
ATOM      2  C   UNL     1       3.114   4.420  18.317  0.00  0.00    +0.000 C 
ATOM      3  O   UNL     1       2.186   4.830  17.625  0.00  0.00    +0.000 OA
ATOM      4  N   UNL     1       4.408   4.666  17.927  0.00  0.00    +0.000 N 
ATOM      5  C   UNL     1       5.583   4.301  18.560  0.00  0.00    +0.000 C 
ATOM      6  O   UNL     1       5.630   3.670  19.617  0.00  0.00    +0.000 OA
ATOM      7  H   UNL     1       3.826   3.467  19.958  0.00  0.00    +0.000 HD
ATOM      8  H   UNL     1       4.465   5.261  17.107  0.00  0.00    +0.000 HD
ENDROOT
BRANCH   1  10
ATOM      9  C   UNL     1       0.872   2.436  19.199  0.00  0.00    +0.000 C 
ATOM     10  C   UNL     1       1.689   3.360  20.114  0.00  0.00    +0.000 C 
ATOM     11  C   UNL     1       0.878   4.618  20.460  0.00  0.00    +0.000 C 
ATOM     12  C   UNL     1       1.983   2.599  21.422  0.00  0.00    +0.000 C 
ENDBRANCH   1  10
BRANCH   5  13
ATOM     13  C   UNL     1       6.852   4.762  17.854  0.00  0.00    +0.000 C 
BRANCH  13  14
ATOM     14  O   UNL     1       6.876   4.342  16.489  0.00  0.00    +0.000 OA
BRANCH  14  15
ATOM     15  C   UNL     1       6.501   5.291  15.600  0.00  0.00    +0.000 C 
ATOM     16  O   UNL     1       6.079   6.398  15.898  0.00  0.00    +0.000 OA
BRANCH  15  17
ATOM     17  C   UNL     1       6.691   4.815  14.203  0.00  0.00    +0.000 A 
ATOM     18  C   UNL     1       7.677   5.343  13.353  0.00  0.00    +0.000 A 
ATOM     19  C   UNL     1       7.811   4.868  12.044  0.00  0.00    +0.000 A 
ATOM     20  C   UNL     1       6.961   3.865  11.581  0.00  0.00    +0.000 A 
ATOM     21  C   UNL     1       5.986   3.347  12.426  0.00  0.00    +0.000 A 
ATOM     22  F   UNL     1       5.170   2.385  11.976  0.00  0.00    +0.000 F 
ATOM     23  C   UNL     1       5.841   3.809  13.730  0.00  0.00    +0.000 A 
ENDBRANCH  15  17
ENDBRANCH  14  15
ENDBRANCH  13  14
ENDBRANCH   5  13
TORSDOF 5
ENDMDL
MODEL 4
REMARK VINA RESULT:      -7.3      1.267      1.904
REMARK  Name = 
REMARK  8 active torsions:
REMARK  status: ('A' for Active; 'I' for Inactive)
REMARK    1  A    between atoms: C_1  and  C_2
REMARK    2  A    between atoms: C_2  and  C_3
REMARK    3  A    between atoms: C_2  and  C_4
REMARK    4  A    between atoms: C_2  and  N_5
REMARK    5  A    between atoms: C_9  and  C_11
REMARK    6  A    between atoms: C_11  and  O_12
REMARK    7  A    between atoms: O_12  and  C_13
REMARK    8  A    between atoms: C_13  and  C_15
REMARK                            x       y       z     vdW  Elec       q    Type
REMARK                         _______ _______ _______ _____ _____    ______ ____
ROOT
ATOM      1  N   UNL     1       3.199   3.973  19.497  0.00  0.00    +0.000 N 
ATOM      2  C   UNL     1       4.512   3.599  19.452  0.00  0.00    +0.000 C 
ATOM      3  O   UNL     1       4.962   2.570  19.951  0.00  0.00    +0.000 OA
ATOM      4  N   UNL     1       5.359   4.457  18.793  0.00  0.00    +0.000 N 
ATOM      5  C   UNL     1       5.056   5.651  18.163  0.00  0.00    +0.000 C 
ATOM      6  O   UNL     1       3.924   6.133  18.106  0.00  0.00    +0.000 OA
ATOM      7  H   UNL     1       2.970   4.840  19.016  0.00  0.00    +0.000 HD
ATOM      8  H   UNL     1       6.303   4.093  18.714  0.00  0.00    +0.000 HD
ENDROOT
BRANCH   1  10
ATOM      9  C   UNL     1       2.490   2.764  21.531  0.00  0.00    +0.000 C 
ATOM     10  C   UNL     1       2.105   3.213  20.114  0.00  0.00    +0.000 C 
ATOM     11  C   UNL     1       1.732   1.995  19.254  0.00  0.00    +0.000 C 
ATOM     12  C   UNL     1       0.867   4.125  20.222  0.00  0.00    +0.000 C 
ENDBRANCH   1  10
BRANCH   5  13
ATOM     13  C   UNL     1       6.247   6.341  17.509  0.00  0.00    +0.000 C 
BRANCH  13  14
ATOM     14  O   UNL     1       6.279   6.110  16.100  0.00  0.00    +0.000 OA
BRANCH  14  15
ATOM     15  C   UNL     1       6.985   5.019  15.722  0.00  0.00    +0.000 C 
ATOM     16  O   UNL     1       7.918   4.540  16.348  0.00  0.00    +0.000 OA
BRANCH  15  17
ATOM     17  C   UNL     1       6.459   4.462  14.446  0.00  0.00    +0.000 A 
ATOM     18  C   UNL     1       5.103   4.140  14.265  0.00  0.00    +0.000 A 
ATOM     19  C   UNL     1       4.659   3.610  13.049  0.00  0.00    +0.000 A 
ATOM     20  C   UNL     1       5.565   3.401  12.011  0.00  0.00    +0.000 A 
ATOM     21  C   UNL     1       6.906   3.720  12.196  0.00  0.00    +0.000 A 
ATOM     22  F   UNL     1       7.774   3.516  11.197  0.00  0.00    +0.000 F 
ATOM     23  C   UNL     1       7.363   4.248  13.400  0.00  0.00    +0.000 A 
ENDBRANCH  15  17
ENDBRANCH  14  15
ENDBRANCH  13  14
ENDBRANCH   5  13
TORSDOF 5
ENDMDL
MODEL 5
REMARK VINA RESULT:      -7.3      1.485      2.239
REMARK  Name = 
REMARK  8 active torsions:
REMARK  status: ('A' for Active; 'I' for Inactive)
REMARK    1  A    between atoms: C_1  and  C_2
REMARK    2  A    between atoms: C_2  and  C_3
REMARK    3  A    between atoms: C_2  and  C_4
REMARK    4  A    between atoms: C_2  and  N_5
REMARK    5  A    between atoms: C_9  and  C_11
REMARK    6  A    between atoms: C_11  and  O_12
REMARK    7  A    between atoms: O_12  and  C_13
REMARK    8  A    between atoms: C_13  and  C_15
REMARK                            x       y       z     vdW  Elec       q    Type
REMARK                         _______ _______ _______ _____ _____    ______ ____
ROOT
ATOM      1  N   UNL     1       3.512   4.260  18.713  0.00  0.00    +0.000 N 
ATOM      2  C   UNL     1       4.789   4.003  19.121  0.00  0.00    +0.000 C 
ATOM      3  O   UNL     1       5.116   3.065  19.844  0.00  0.00    +0.000 OA
ATOM      4  N   UNL     1       5.751   4.874  18.669  0.00  0.00    +0.000 N 
ATOM      5  C   UNL     1       5.596   5.978  17.849  0.00  0.00    +0.000 C 
ATOM      6  O   UNL     1       4.515   6.350  17.390  0.00  0.00    +0.000 OA
ATOM      7  H   UNL     1       3.398   5.059  18.093  0.00  0.00    +0.000 HD
ATOM      8  H   UNL     1       6.691   4.592  18.928  0.00  0.00    +0.000 HD
ENDROOT
BRANCH   1  10
ATOM      9  C   UNL     1       2.649   1.961  18.979  0.00  0.00    +0.000 C 
ATOM     10  C   UNL     1       2.324   3.460  19.038  0.00  0.00    +0.000 C 
ATOM     11  C   UNL     1       1.165   3.790  18.084  0.00  0.00    +0.000 C 
ATOM     12  C   UNL     1       1.877   3.796  20.475  0.00  0.00    +0.000 C 
ENDBRANCH   1  10
BRANCH   5  13
ATOM     13  C   UNL     1       6.891   6.714  17.527  0.00  0.00    +0.000 C 
BRANCH  13  14
ATOM     14  O   UNL     1       7.396   6.351  16.242  0.00  0.00    +0.000 OA
BRANCH  14  15
ATOM     15  C   UNL     1       7.543   5.018  16.049  0.00  0.00    +0.000 C 
ATOM     16  O   UNL     1       8.084   4.255  16.835  0.00  0.00    +0.000 OA
BRANCH  15  17
ATOM     17  C   UNL     1       6.937   4.600  14.756  0.00  0.00    +0.000 A 
ATOM     18  C   UNL     1       5.758   3.839  14.686  0.00  0.00    +0.000 A 
ATOM     19  C   UNL     1       5.232   3.462  13.446  0.00  0.00    +0.000 A 
ATOM     20  C   UNL     1       5.881   3.843  12.273  0.00  0.00    +0.000 A 
ATOM     21  C   UNL     1       7.049   4.594  12.348  0.00  0.00    +0.000 A 
ATOM     22  F   UNL     1       7.670   4.957  11.219  0.00  0.00    +0.000 F 
ATOM     23  C   UNL     1       7.583   4.977  13.574  0.00  0.00    +0.000 A 
ENDBRANCH  15  17
ENDBRANCH  14  15
ENDBRANCH  13  14
ENDBRANCH   5  13
TORSDOF 5
ENDMDL
MODEL 6
REMARK VINA RESULT:      -7.2      1.538      1.912
REMARK  Name = 
REMARK  8 active torsions:
REMARK  status: ('A' for Active; 'I' for Inactive)
REMARK    1  A    between atoms: C_1  and  C_2
REMARK    2  A    between atoms: C_2  and  C_3
REMARK    3  A    between atoms: C_2  and  C_4
REMARK    4  A    between atoms: C_2  and  N_5
REMARK    5  A    between atoms: C_9  and  C_11
REMARK    6  A    between atoms: C_11  and  O_12
REMARK    7  A    between atoms: O_12  and  C_13
REMARK    8  A    between atoms: C_13  and  C_15
REMARK                            x       y       z     vdW  Elec       q    Type
REMARK                         _______ _______ _______ _____ _____    ______ ____
ROOT
ATOM      1  N   UNL     1       3.072   3.653  19.066  0.00  0.00    +0.000 N 
ATOM      2  C   UNL     1       3.671   2.551  18.527  0.00  0.00    +0.000 C 
ATOM      3  O   UNL     1       3.424   1.393  18.853  0.00  0.00    +0.000 OA
ATOM      4  N   UNL     1       4.610   2.792  17.554  0.00  0.00    +0.000 N 
ATOM      5  C   UNL     1       5.027   4.008  17.042  0.00  0.00    +0.000 C 
ATOM      6  O   UNL     1       4.590   5.098  17.412  0.00  0.00    +0.000 OA
ATOM      7  H   UNL     1       3.362   4.548  18.676  0.00  0.00    +0.000 HD
ATOM      8  H   UNL     1       4.962   1.941  17.127  0.00  0.00    +0.000 HD
ENDROOT
BRANCH   1  10
ATOM      9  C   UNL     1       1.649   5.089  20.485  0.00  0.00    +0.000 C 
ATOM     10  C   UNL     1       2.024   3.652  20.093  0.00  0.00    +0.000 C 
ATOM     11  C   UNL     1       2.475   2.864  21.333  0.00  0.00    +0.000 C 
ATOM     12  C   UNL     1       0.766   2.970  19.518  0.00  0.00    +0.000 C 
ENDBRANCH   1  10
BRANCH   5  13
ATOM     13  C   UNL     1       6.081   3.905  15.945  0.00  0.00    +0.000 C 
BRANCH  13  14
ATOM     14  O   UNL     1       5.887   4.896  14.936  0.00  0.00    +0.000 OA
BRANCH  14  15
ATOM     15  C   UNL     1       6.773   4.842  13.914  0.00  0.00    +0.000 C 
ATOM     16  O   UNL     1       7.803   5.495  13.849  0.00  0.00    +0.000 OA
BRANCH  15  17
ATOM     17  C   UNL     1       6.336   3.862  12.883  0.00  0.00    +0.000 A 
ATOM     18  C   UNL     1       7.232   2.994  12.239  0.00  0.00    +0.000 A 
ATOM     19  C   UNL     1       6.774   2.096  11.269  0.00  0.00    +0.000 A 
ATOM     20  C   UNL     1       5.419   2.063  10.941  0.00  0.00    +0.000 A 
ATOM     21  C   UNL     1       4.536   2.926  11.581  0.00  0.00    +0.000 A 
ATOM     22  F   UNL     1       3.237   2.891  11.261  0.00  0.00    +0.000 F 
ATOM     23  C   UNL     1       4.978   3.824  12.547  0.00  0.00    +0.000 A 
ENDBRANCH  15  17
ENDBRANCH  14  15
ENDBRANCH  13  14
ENDBRANCH   5  13
TORSDOF 5
ENDMDL
MODEL 7
REMARK VINA RESULT:      -7.2      2.652      4.014
REMARK  Name = 
REMARK  8 active torsions:
REMARK  status: ('A' for Active; 'I' for Inactive)
REMARK    1  A    between atoms: C_1  and  C_2
REMARK    2  A    between atoms: C_2  and  C_3
REMARK    3  A    between atoms: C_2  and  C_4
REMARK    4  A    between atoms: C_2  and  N_5
REMARK    5  A    between atoms: C_9  and  C_11
REMARK    6  A    between atoms: C_11  and  O_12
REMARK    7  A    between atoms: O_12  and  C_13
REMARK    8  A    between atoms: C_13  and  C_15
REMARK                            x       y       z     vdW  Elec       q    Type
REMARK                         _______ _______ _______ _____ _____    ______ ____
ROOT
ATOM      1  N   UNL     1       2.851   3.620  19.080  0.00  0.00    +0.000 N 
ATOM      2  C   UNL     1       3.350   2.529  18.427  0.00  0.00    +0.000 C 
ATOM      3  O   UNL     1       3.233   1.370  18.814  0.00  0.00    +0.000 OA
ATOM      4  N   UNL     1       4.022   2.786  17.256  0.00  0.00    +0.000 N 
ATOM      5  C   UNL     1       4.257   4.005  16.647  0.00  0.00    +0.000 C 
ATOM      6  O   UNL     1       3.876   5.086  17.098  0.00  0.00    +0.000 OA
ATOM      7  H   UNL     1       3.004   4.517  18.623  0.00  0.00    +0.000 HD
ATOM      8  H   UNL     1       4.297   1.940  16.767  0.00  0.00    +0.000 HD
ENDROOT
BRANCH   1  10
ATOM      9  C   UNL     1       2.795   2.767  21.397  0.00  0.00    +0.000 C 
ATOM     10  C   UNL     1       2.075   3.600  20.326  0.00  0.00    +0.000 C 
ATOM     11  C   UNL     1       0.663   3.047  20.083  0.00  0.00    +0.000 C 
ATOM     12  C   UNL     1       1.945   5.044  20.852  0.00  0.00    +0.000 C 
ENDBRANCH   1  10
BRANCH   5  13
ATOM     13  C   UNL     1       5.025   3.919  15.333  0.00  0.00    +0.000 C 
BRANCH  13  14
ATOM     14  O   UNL     1       6.427   3.764  15.553  0.00  0.00    +0.000 OA
BRANCH  14  15
ATOM     15  C   UNL     1       7.154   4.893  15.380  0.00  0.00    +0.000 C 
ATOM     16  O   UNL     1       7.499   5.341  14.297  0.00  0.00    +0.000 OA
BRANCH  15  17
ATOM     17  C   UNL     1       7.462   5.532  16.688  0.00  0.00    +0.000 A 
ATOM     18  C   UNL     1       7.673   4.788  17.861  0.00  0.00    +0.000 A 
ATOM     19  C   UNL     1       7.951   5.436  19.069  0.00  0.00    +0.000 A 
ATOM     20  C   UNL     1       8.018   6.828  19.110  0.00  0.00    +0.000 A 
ATOM     21  C   UNL     1       7.805   7.560  17.946  0.00  0.00    +0.000 A 
ATOM     22  F   UNL     1       7.869   8.896  17.991  0.00  0.00    +0.000 F 
ATOM     23  C   UNL     1       7.529   6.929  16.738  0.00  0.00    +0.000 A 
ENDBRANCH  15  17
ENDBRANCH  14  15
ENDBRANCH  13  14
ENDBRANCH   5  13
TORSDOF 5
ENDMDL
MODEL 8
REMARK VINA RESULT:      -7.2      0.880      1.330
REMARK  Name = 
REMARK  8 active torsions:
REMARK  status: ('A' for Active; 'I' for Inactive)
REMARK    1  A    between atoms: C_1  and  C_2
REMARK    2  A    between atoms: C_2  and  C_3
REMARK    3  A    between atoms: C_2  and  C_4
REMARK    4  A    between atoms: C_2  and  N_5
REMARK    5  A    between atoms: C_9  and  C_11
REMARK    6  A    between atoms: C_11  and  O_12
REMARK    7  A    between atoms: O_12  and  C_13
REMARK    8  A    between atoms: C_13  and  C_15
REMARK                            x       y       z     vdW  Elec       q    Type
REMARK                         _______ _______ _______ _____ _____    ______ ____
ROOT
ATOM      1  N   UNL     1       3.319   3.798  19.574  0.00  0.00    +0.000 N 
ATOM      2  C   UNL     1       3.802   2.853  18.715  0.00  0.00    +0.000 C 
ATOM      3  O   UNL     1       3.283   1.757  18.520  0.00  0.00    +0.000 OA
ATOM      4  N   UNL     1       4.950   3.187  18.038  0.00  0.00    +0.000 N 
ATOM      5  C   UNL     1       5.680   4.360  18.107  0.00  0.00    +0.000 C 
ATOM      6  O   UNL     1       5.385   5.315  18.827  0.00  0.00    +0.000 OA
ATOM      7  H   UNL     1       3.843   4.670  19.611  0.00  0.00    +0.000 HD
ATOM      8  H   UNL     1       5.219   2.489  17.352  0.00  0.00    +0.000 HD
ENDROOT
BRANCH   1  10
ATOM      9  C   UNL     1       2.334   2.771  21.593  0.00  0.00    +0.000 C 
ATOM     10  C   UNL     1       2.099   3.687  20.383  0.00  0.00    +0.000 C 
ATOM     11  C   UNL     1       0.928   3.161  19.538  0.00  0.00    +0.000 C 
ATOM     12  C   UNL     1       1.724   5.087  20.910  0.00  0.00    +0.000 C 
ENDBRANCH   1  10
BRANCH   5  13
ATOM     13  C   UNL     1       6.900   4.401  17.194  0.00  0.00    +0.000 C 
BRANCH  13  14
ATOM     14  O   UNL     1       6.980   5.636  16.481  0.00  0.00    +0.000 OA
BRANCH  14  15
ATOM     15  C   UNL     1       6.028   5.804  15.534  0.00  0.00    +0.000 C 
ATOM     16  O   UNL     1       5.007   6.459  15.680  0.00  0.00    +0.000 OA
BRANCH  15  17
ATOM     17  C   UNL     1       6.400   5.101  14.276  0.00  0.00    +0.000 A 
ATOM     18  C   UNL     1       7.589   5.374  13.581  0.00  0.00    +0.000 A 
ATOM     19  C   UNL     1       7.890   4.693  12.398  0.00  0.00    +0.000 A 
ATOM     20  C   UNL     1       7.004   3.736  11.905  0.00  0.00    +0.000 A 
ATOM     21  C   UNL     1       5.827   3.470  12.596  0.00  0.00    +0.000 A 
ATOM     22  F   UNL     1       4.978   2.551  12.117  0.00  0.00    +0.000 F 
ATOM     23  C   UNL     1       5.515   4.140  13.774  0.00  0.00    +0.000 A 
ENDBRANCH  15  17
ENDBRANCH  14  15
ENDBRANCH  13  14
ENDBRANCH   5  13
TORSDOF 5
ENDMDL
MODEL 9
REMARK VINA RESULT:      -7.1      1.463      2.131
REMARK  Name = 
REMARK  8 active torsions:
REMARK  status: ('A' for Active; 'I' for Inactive)
REMARK    1  A    between atoms: C_1  and  C_2
REMARK    2  A    between atoms: C_2  and  C_3
REMARK    3  A    between atoms: C_2  and  C_4
REMARK    4  A    between atoms: C_2  and  N_5
REMARK    5  A    between atoms: C_9  and  C_11
REMARK    6  A    between atoms: C_11  and  O_12
REMARK    7  A    between atoms: O_12  and  C_13
REMARK    8  A    between atoms: C_13  and  C_15
REMARK                            x       y       z     vdW  Elec       q    Type
REMARK                         _______ _______ _______ _____ _____    ______ ____
ROOT
ATOM      1  N   UNL     1       2.886   3.673  18.939  0.00  0.00    +0.000 N 
ATOM      2  C   UNL     1       3.719   2.835  18.256  0.00  0.00    +0.000 C 
ATOM      3  O   UNL     1       3.620   1.610  18.242  0.00  0.00    +0.000 OA
ATOM      4  N   UNL     1       4.727   3.438  17.544  0.00  0.00    +0.000 N 
ATOM      5  C   UNL     1       5.008   4.788  17.424  0.00  0.00    +0.000 C 
ATOM      6  O   UNL     1       4.356   5.679  17.970  0.00  0.00    +0.000 OA
ATOM      7  H   UNL     1       3.077   4.667  18.835  0.00  0.00    +0.000 HD
ATOM      8  H   UNL     1       5.264   2.781  16.988  0.00  0.00    +0.000 HD
ENDROOT
BRANCH   1  10
ATOM      9  C   UNL     1       0.768   2.401  18.914  0.00  0.00    +0.000 C 
ATOM     10  C   UNL     1       1.725   3.271  19.743  0.00  0.00    +0.000 C 
ATOM     11  C   UNL     1       0.985   4.502  20.288  0.00  0.00    +0.000 C 
ATOM     12  C   UNL     1       2.216   2.434  20.940  0.00  0.00    +0.000 C 
ENDBRANCH   1  10
BRANCH   5  13
ATOM     13  C   UNL     1       6.199   5.109  16.529  0.00  0.00    +0.000 C 
BRANCH  13  14
ATOM     14  O   UNL     1       5.806   5.259  15.165  0.00  0.00    +0.000 OA
BRANCH  14  15
ATOM     15  C   UNL     1       6.779   4.987  14.263  0.00  0.00    +0.000 C 
ATOM     16  O   UNL     1       7.924   5.408  14.326  0.00  0.00    +0.000 OA
BRANCH  15  17
ATOM     17  C   UNL     1       6.274   4.086  13.192  0.00  0.00    +0.000 A 
ATOM     18  C   UNL     1       4.908   3.970  12.885  0.00  0.00    +0.000 A 
ATOM     19  C   UNL     1       4.482   3.102  11.875  0.00  0.00    +0.000 A 
ATOM     20  C   UNL     1       5.417   2.347  11.169  0.00  0.00    +0.000 A 
ATOM     21  C   UNL     1       6.768   2.465  11.479  0.00  0.00    +0.000 A 
ATOM     22  F   UNL     1       7.663   1.736  10.799  0.00  0.00    +0.000 F 
ATOM     23  C   UNL     1       7.207   3.324  12.480  0.00  0.00    +0.000 A 
ENDBRANCH  15  17
ENDBRANCH  14  15
ENDBRANCH  13  14
ENDBRANCH   5  13
TORSDOF 5
ENDMDL
