MODEL 1
REMARK VINA RESULT:      -7.2      0.000      0.000
REMARK  Name = 
REMARK  4 active torsions:
REMARK  status: ('A' for Active; 'I' for Inactive)
REMARK    1  A    between atoms: C_1  and  C_2
REMARK    2  A    between atoms: C_5  and  N_6
REMARK    3  A    between atoms: N_6  and  C_7
REMARK    4  A    between atoms: C_7  and  C_8
REMARK                            x       y       z     vdW  Elec       q    Type
REMARK                         _______ _______ _______ _____ _____    ______ ____
ROOT
ATOM      1  C   UNL     1       5.357   3.937  16.149  0.00  0.00    +0.000 C 
ENDROOT
BRANCH   1   2
ATOM      2  C   UNL     1       4.306   4.120  17.229  0.00  0.00    +0.000 A 
ATOM      3  C   UNL     1       3.588   5.326  17.320  0.00  0.00    +0.000 A 
ATOM      4  C   UNL     1       2.619   5.508  18.311  0.00  0.00    +0.000 A 
ATOM      5  C   UNL     1       2.354   4.486  19.218  0.00  0.00    +0.000 A 
ATOM      6  C   UNL     1       3.038   3.271  19.119  0.00  0.00    +0.000 A 
ATOM      7  C   UNL     1       4.019   3.094  18.141  0.00  0.00    +0.000 A 
ATOM      8  O   UNL     1       2.802   2.209  19.955  0.00  0.00    +0.000 OA
ATOM      9  C   UNL     1       1.569   2.369  20.668  0.00  0.00    +0.000 C 
ATOM     10  C   UNL     1       1.452   3.776  21.230  0.00  0.00    +0.000 C 
ATOM     11  O   UNL     1       1.403   4.741  20.174  0.00  0.00    +0.000 OA
ENDBRANCH   1   2
BRANCH   1  12
ATOM     12  N   UNL     1       6.672   3.904  16.774  0.00  0.00    +0.000 N 
ATOM     13  H   UNL     1       7.374   3.520  16.149  0.00  0.00    +0.000 HD
BRANCH  12  18
ATOM     14  C   UNL     1       8.572   8.861  18.621  0.00  0.00    +0.000 C 
ATOM     15  C   UNL     1       8.042   7.543  18.157  0.00  0.00    +0.000 A 
ATOM     16  C   UNL     1       8.089   6.406  18.957  0.00  0.00    +0.000 A 
ATOM     17  N   UNL     1       7.643   5.186  18.555  0.00  0.00    +0.000 NA
ATOM     18  C   UNL     1       7.124   5.118  17.312  0.00  0.00    +0.000 A 
ATOM     19  C   UNL     1       7.085   6.268  16.516  0.00  0.00    +0.000 A 
ATOM     20  N   UNL     1       7.525   7.490  16.909  0.00  0.00    +0.000 NA
ENDBRANCH  12  18
ENDBRANCH   1  12
TORSDOF 3
ENDMDL
MODEL 2
REMARK VINA RESULT:      -7.1      1.100      1.414
REMARK  Name = 
REMARK  4 active torsions:
REMARK  status: ('A' for Active; 'I' for Inactive)
REMARK    1  A    between atoms: C_1  and  C_2
REMARK    2  A    between atoms: C_5  and  N_6
REMARK    3  A    between atoms: N_6  and  C_7
REMARK    4  A    between atoms: C_7  and  C_8
REMARK                            x       y       z     vdW  Elec       q    Type
REMARK                         _______ _______ _______ _____ _____    ______ ____
ROOT
ATOM      1  C   UNL     1       5.331   3.912  16.455  0.00  0.00    +0.000 C 
ENDROOT
BRANCH   1   2
ATOM      2  C   UNL     1       4.172   3.739  17.418  0.00  0.00    +0.000 A 
ATOM      3  C   UNL     1       2.852   3.960  16.986  0.00  0.00    +0.000 A 
ATOM      4  C   UNL     1       1.775   3.805  17.863  0.00  0.00    +0.000 A 
ATOM      5  C   UNL     1       2.006   3.424  19.182  0.00  0.00    +0.000 A 
ATOM      6  C   UNL     1       3.309   3.169  19.617  0.00  0.00    +0.000 A 
ATOM      7  C   UNL     1       4.387   3.341  18.746  0.00  0.00    +0.000 A 
ATOM      8  O   UNL     1       3.605   2.754  20.891  0.00  0.00    +0.000 OA
ATOM      9  C   UNL     1       2.436   2.284  21.573  0.00  0.00    +0.000 C 
ATOM     10  C   UNL     1       1.275   3.243  21.373  0.00  0.00    +0.000 C 
ATOM     11  O   UNL     1       0.904   3.308  19.992  0.00  0.00    +0.000 OA
ENDBRANCH   1   2
BRANCH   1  12
ATOM     12  N   UNL     1       6.566   4.014  17.220  0.00  0.00    +0.000 N 
ATOM     13  H   UNL     1       7.298   3.428  16.829  0.00  0.00    +0.000 HD
BRANCH  12  18
ATOM     14  C   UNL     1       8.472   9.178  18.359  0.00  0.00    +0.000 C 
ATOM     15  C   UNL     1       7.987   7.804  18.026  0.00  0.00    +0.000 A 
ATOM     16  C   UNL     1       7.320   7.525  16.839  0.00  0.00    +0.000 A 
ATOM     17  N   UNL     1       6.841   6.293  16.519  0.00  0.00    +0.000 NA
ATOM     18  C   UNL     1       7.053   5.314  17.423  0.00  0.00    +0.000 A 
ATOM     19  C   UNL     1       7.723   5.609  18.616  0.00  0.00    +0.000 A 
ATOM     20  N   UNL     1       8.207   6.834  18.942  0.00  0.00    +0.000 NA
ENDBRANCH  12  18
ENDBRANCH   1  12
TORSDOF 3
ENDMDL
MODEL 3
REMARK VINA RESULT:      -7.0      1.883      3.388
REMARK  Name = 
REMARK  4 active torsions:
REMARK  status: ('A' for Active; 'I' for Inactive)
REMARK    1  A    between atoms: C_1  and  C_2
REMARK    2  A    between atoms: C_5  and  N_6
REMARK    3  A    between atoms: N_6  and  C_7
REMARK    4  A    between atoms: C_7  and  C_8
REMARK                            x       y       z     vdW  Elec       q    Type
REMARK                         _______ _______ _______ _____ _____    ______ ____
ROOT
ATOM      1  C   UNL     1       6.261   6.343  17.859  0.00  0.00    +0.000 C 
ENDROOT
BRANCH   1   2
ATOM      2  C   UNL     1       4.910   5.807  18.296  0.00  0.00    +0.000 A 
ATOM      3  C   UNL     1       3.726   6.396  17.818  0.00  0.00    +0.000 A 
ATOM      4  C   UNL     1       2.475   5.912  18.213  0.00  0.00    +0.000 A 
ATOM      5  C   UNL     1       2.395   4.831  19.087  0.00  0.00    +0.000 A 
ATOM      6  C   UNL     1       3.563   4.215  19.544  0.00  0.00    +0.000 A 
ATOM      7  C   UNL     1       4.813   4.709  19.165  0.00  0.00    +0.000 A 
ATOM      8  O   UNL     1       3.557   3.124  20.376  0.00  0.00    +0.000 OA
ATOM      9  C   UNL     1       2.266   2.503  20.415  0.00  0.00    +0.000 C 
ATOM     10  C   UNL     1       1.173   3.547  20.578  0.00  0.00    +0.000 C 
ATOM     11  O   UNL     1       1.135   4.421  19.445  0.00  0.00    +0.000 OA
ENDBRANCH   1   2
BRANCH   1  12
ATOM     12  N   UNL     1       7.075   5.233  17.384  0.00  0.00    +0.000 N 
ATOM     13  H   UNL     1       6.983   4.418  17.983  0.00  0.00    +0.000 HD
BRANCH  12  18
ATOM     14  C   UNL     1       6.243   3.449  12.119  0.00  0.00    +0.000 C 
ATOM     15  C   UNL     1       6.453   3.958  13.509  0.00  0.00    +0.000 A 
ATOM     16  C   UNL     1       7.351   4.980  13.792  0.00  0.00    +0.000 A 
ATOM     17  N   UNL     1       7.587   5.444  15.049  0.00  0.00    +0.000 NA
ATOM     18  C   UNL     1       6.884   4.865  16.044  0.00  0.00    +0.000 A 
ATOM     19  C   UNL     1       5.985   3.835  15.745  0.00  0.00    +0.000 A 
ATOM     20  N   UNL     1       5.742   3.367  14.495  0.00  0.00    +0.000 NA
ENDBRANCH  12  18
ENDBRANCH   1  12
TORSDOF 3
ENDMDL
MODEL 4
REMARK VINA RESULT:      -7.0      0.810      1.689
REMARK  Name = 
REMARK  4 active torsions:
REMARK  status: ('A' for Active; 'I' for Inactive)
REMARK    1  A    between atoms: C_1  and  C_2
REMARK    2  A    between atoms: C_5  and  N_6
REMARK    3  A    between atoms: N_6  and  C_7
REMARK    4  A    between atoms: C_7  and  C_8
REMARK                            x       y       z     vdW  Elec       q    Type
REMARK                         _______ _______ _______ _____ _____    ______ ____
ROOT
ATOM      1  C   UNL     1       4.969   3.803  15.943  0.00  0.00    +0.000 C 
ENDROOT
BRANCH   1   2
ATOM      2  C   UNL     1       4.155   3.435  17.170  0.00  0.00    +0.000 A 
ATOM      3  C   UNL     1       3.921   2.085  17.486  0.00  0.00    +0.000 A 
ATOM      4  C   UNL     1       3.171   1.732  18.612  0.00  0.00    +0.000 A 
ATOM      5  C   UNL     1       2.651   2.726  19.437  0.00  0.00    +0.000 A 
ATOM      6  C   UNL     1       2.904   4.071  19.153  0.00  0.00    +0.000 A 
ATOM      7  C   UNL     1       3.637   4.425  18.018  0.00  0.00    +0.000 A 
ATOM      8  O   UNL     1       2.454   5.099  19.943  0.00  0.00    +0.000 OA
ATOM      9  C   UNL     1       2.032   4.625  21.228  0.00  0.00    +0.000 C 
ATOM     10  C   UNL     1       1.164   3.387  21.085  0.00  0.00    +0.000 C 
ATOM     11  O   UNL     1       1.911   2.307  20.514  0.00  0.00    +0.000 OA
ENDBRANCH   1   2
BRANCH   1  12
ATOM     12  N   UNL     1       6.383   3.768  16.291  0.00  0.00    +0.000 N 
ATOM     13  H   UNL     1       6.962   3.564  15.482  0.00  0.00    +0.000 HD
BRANCH  12  18
ATOM     14  C   UNL     1       8.451   8.422  18.669  0.00  0.00    +0.000 C 
ATOM     15  C   UNL     1       7.876   7.182  18.064  0.00  0.00    +0.000 A 
ATOM     16  C   UNL     1       7.892   5.962  18.730  0.00  0.00    +0.000 A 
ATOM     17  N   UNL     1       7.405   4.809  18.196  0.00  0.00    +0.000 NA
ATOM     18  C   UNL     1       6.877   4.899  16.958  0.00  0.00    +0.000 A 
ATOM     19  C   UNL     1       6.870   6.133  16.298  0.00  0.00    +0.000 A 
ATOM     20  N   UNL     1       7.352   7.287  16.823  0.00  0.00    +0.000 NA
ENDBRANCH  12  18
ENDBRANCH   1  12
TORSDOF 3
ENDMDL
MODEL 5
REMARK VINA RESULT:      -6.9      0.664      1.133
REMARK  Name = 
REMARK  4 active torsions:
REMARK  status: ('A' for Active; 'I' for Inactive)
REMARK    1  A    between atoms: C_1  and  C_2
REMARK    2  A    between atoms: C_5  and  N_6
REMARK    3  A    between atoms: N_6  and  C_7
REMARK    4  A    between atoms: C_7  and  C_8
REMARK                            x       y       z     vdW  Elec       q    Type
REMARK                         _______ _______ _______ _____ _____    ______ ____
ROOT
ATOM      1  C   UNL     1       5.170   4.186  15.970  0.00  0.00    +0.000 C 
ENDROOT
BRANCH   1   2
ATOM      2  C   UNL     1       4.179   4.323  17.110  0.00  0.00    +0.000 A 
ATOM      3  C   UNL     1       3.658   5.585  17.448  0.00  0.00    +0.000 A 
ATOM      4  C   UNL     1       2.745   5.726  18.497  0.00  0.00    +0.000 A 
ATOM      5  C   UNL     1       2.339   4.606  19.217  0.00  0.00    +0.000 A 
ATOM      6  C   UNL     1       2.823   3.341  18.871  0.00  0.00    +0.000 A 
ATOM      7  C   UNL     1       3.749   3.202  17.835  0.00  0.00    +0.000 A 
ATOM      8  O   UNL     1       2.437   2.191  19.512  0.00  0.00    +0.000 OA
ATOM      9  C   UNL     1       1.255   2.401  20.296  0.00  0.00    +0.000 C 
ATOM     10  C   UNL     1       1.369   3.681  21.106  0.00  0.00    +0.000 C 
ATOM     11  O   UNL     1       1.454   4.821  20.244  0.00  0.00    +0.000 OA
ENDBRANCH   1   2
BRANCH   1  12
ATOM     12  N   UNL     1       6.515   4.100  16.525  0.00  0.00    +0.000 N 
ATOM     13  H   UNL     1       7.163   3.673  15.870  0.00  0.00    +0.000 HD
BRANCH  12  18
ATOM     14  C   UNL     1       8.586   8.807  18.794  0.00  0.00    +0.000 C 
ATOM     15  C   UNL     1       8.060   7.558  18.163  0.00  0.00    +0.000 A 
ATOM     16  C   UNL     1       7.497   7.555  16.892  0.00  0.00    +0.000 A 
ATOM     17  N   UNL     1       6.983   6.443  16.302  0.00  0.00    +0.000 NA
ATOM     18  C   UNL     1       7.051   5.300  17.015  0.00  0.00    +0.000 A 
ATOM     19  C   UNL     1       7.618   5.317  18.295  0.00  0.00    +0.000 A 
ATOM     20  N   UNL     1       8.135   6.421  18.890  0.00  0.00    +0.000 NA
ENDBRANCH  12  18
ENDBRANCH   1  12
TORSDOF 3
ENDMDL
MODEL 6
REMARK VINA RESULT:      -6.8      2.710      4.356
REMARK  Name = 
REMARK  4 active torsions:
REMARK  status: ('A' for Active; 'I' for Inactive)
REMARK    1  A    between atoms: C_1  and  C_2
REMARK    2  A    between atoms: C_5  and  N_6
REMARK    3  A    between atoms: N_6  and  C_7
REMARK    4  A    between atoms: C_7  and  C_8
REMARK                            x       y       z     vdW  Elec       q    Type
REMARK                         _______ _______ _______ _____ _____    ______ ____
ROOT
ATOM      1  C   UNL     1       3.944   4.127  18.305  0.00  0.00    +0.000 C 
ENDROOT
BRANCH   1   2
ATOM      2  C   UNL     1       3.235   5.396  18.739  0.00  0.00    +0.000 A 
ATOM      3  C   UNL     1       2.729   5.513  20.046  0.00  0.00    +0.000 A 
ATOM      4  C   UNL     1       2.073   6.676  20.459  0.00  0.00    +0.000 A 
ATOM      5  C   UNL     1       1.918   7.736  19.571  0.00  0.00    +0.000 A 
ATOM      6  C   UNL     1       2.445   7.647  18.279  0.00  0.00    +0.000 A 
ATOM      7  C   UNL     1       3.084   6.478  17.860  0.00  0.00    +0.000 A 
ATOM      8  O   UNL     1       2.362   8.667  17.365  0.00  0.00    +0.000 OA
ATOM      9  C   UNL     1       2.012   9.906  17.994  0.00  0.00    +0.000 C 
ATOM     10  C   UNL     1       0.862   9.708  18.968  0.00  0.00    +0.000 C 
ATOM     11  O   UNL     1       1.249   8.840  20.038  0.00  0.00    +0.000 OA
ENDBRANCH   1   2
BRANCH   1  12
ATOM     12  N   UNL     1       5.377   4.386  18.248  0.00  0.00    +0.000 N 
ATOM     13  H   UNL     1       5.900   3.713  18.800  0.00  0.00    +0.000 HD
BRANCH  12  18
ATOM     14  C   UNL     1       7.660   5.091  13.161  0.00  0.00    +0.000 C 
ATOM     15  C   UNL     1       7.063   4.868  14.513  0.00  0.00    +0.000 A 
ATOM     16  C   UNL     1       6.031   3.961  14.722  0.00  0.00    +0.000 A 
ATOM     17  N   UNL     1       5.446   3.757  15.933  0.00  0.00    +0.000 NA
ATOM     18  C   UNL     1       5.930   4.482  16.963  0.00  0.00    +0.000 A 
ATOM     19  C   UNL     1       6.968   5.393  16.738  0.00  0.00    +0.000 A 
ATOM     20  N   UNL     1       7.558   5.603  15.534  0.00  0.00    +0.000 NA
ENDBRANCH  12  18
ENDBRANCH   1  12
TORSDOF 3
ENDMDL
MODEL 7
REMARK VINA RESULT:      -6.7      1.010      1.979
REMARK  Name = 
REMARK  4 active torsions:
REMARK  status: ('A' for Active; 'I' for Inactive)
REMARK    1  A    between atoms: C_1  and  C_2
REMARK    2  A    between atoms: C_5  and  N_6
REMARK    3  A    between atoms: N_6  and  C_7
REMARK    4  A    between atoms: C_7  and  C_8
REMARK                            x       y       z     vdW  Elec       q    Type
REMARK                         _______ _______ _______ _____ _____    ______ ____
ROOT
ATOM      1  C   UNL     1       5.417   3.965  16.100  0.00  0.00    +0.000 C 
ENDROOT
BRANCH   1   2
ATOM      2  C   UNL     1       4.366   3.628  17.142  0.00  0.00    +0.000 A 
ATOM      3  C   UNL     1       4.039   2.286  17.410  0.00  0.00    +0.000 A 
ATOM      4  C   UNL     1       3.073   1.962  18.366  0.00  0.00    +0.000 A 
ATOM      5  C   UNL     1       2.425   2.975  19.067  0.00  0.00    +0.000 A 
ATOM      6  C   UNL     1       2.762   4.311  18.835  0.00  0.00    +0.000 A 
ATOM      7  C   UNL     1       3.714   4.637  17.866  0.00  0.00    +0.000 A 
ATOM      8  O   UNL     1       2.191   5.357  19.515  0.00  0.00    +0.000 OA
ATOM      9  C   UNL     1       1.510   4.905  20.692  0.00  0.00    +0.000 C 
ATOM     10  C   UNL     1       0.656   3.686  20.384  0.00  0.00    +0.000 C 
ATOM     11  O   UNL     1       1.475   2.584  19.978  0.00  0.00    +0.000 OA
ENDBRANCH   1   2
BRANCH   1  12
ATOM     12  N   UNL     1       6.723   3.996  16.744  0.00  0.00    +0.000 N 
ATOM     13  H   UNL     1       7.427   3.526  16.183  0.00  0.00    +0.000 HD
BRANCH  12  18
ATOM     14  C   UNL     1       8.484   9.004  18.592  0.00  0.00    +0.000 C 
ATOM     15  C   UNL     1       8.042   7.673  18.074  0.00  0.00    +0.000 A 
ATOM     16  C   UNL     1       7.556   7.509  16.782  0.00  0.00    +0.000 A 
ATOM     17  N   UNL     1       7.118   6.319  16.291  0.00  0.00    +0.000 NA
ATOM     18  C   UNL     1       7.186   5.264  17.128  0.00  0.00    +0.000 A 
ATOM     19  C   UNL     1       7.674   5.443  18.427  0.00  0.00    +0.000 A 
ATOM     20  N   UNL     1       8.115   6.626  18.925  0.00  0.00    +0.000 NA
ENDBRANCH  12  18
ENDBRANCH   1  12
TORSDOF 3
ENDMDL
MODEL 8
REMARK VINA RESULT:      -6.7      5.158      6.747
REMARK  Name = 
REMARK  4 active torsions:
REMARK  status: ('A' for Active; 'I' for Inactive)
REMARK    1  A    between atoms: C_1  and  C_2
REMARK    2  A    between atoms: C_5  and  N_6
REMARK    3  A    between atoms: N_6  and  C_7
REMARK    4  A    between atoms: C_7  and  C_8
REMARK                            x       y       z     vdW  Elec       q    Type
REMARK                         _______ _______ _______ _____ _____    ______ ____
ROOT
ATOM      1  C   UNL     1       1.981   8.063  19.543  0.00  0.00    +0.000 C 
ENDROOT
BRANCH   1   2
ATOM      2  C   UNL     1       2.558   6.714  19.157  0.00  0.00    +0.000 A 
ATOM      3  C   UNL     1       3.178   6.540  17.907  0.00  0.00    +0.000 A 
ATOM      4  C   UNL     1       3.713   5.302  17.539  0.00  0.00    +0.000 A 
ATOM      5  C   UNL     1       3.638   4.225  18.418  0.00  0.00    +0.000 A 
ATOM      6  C   UNL     1       3.054   4.392  19.677  0.00  0.00    +0.000 A 
ATOM      7  C   UNL     1       2.502   5.624  20.038  0.00  0.00    +0.000 A 
ATOM      8  O   UNL     1       2.979   3.386  20.606  0.00  0.00    +0.000 OA
ATOM      9  C   UNL     1       3.861   2.305  20.279  0.00  0.00    +0.000 C 
ATOM     10  C   UNL     1       3.745   1.944  18.807  0.00  0.00    +0.000 C 
ATOM     11  O   UNL     1       4.168   3.036  17.984  0.00  0.00    +0.000 OA
ENDBRANCH   1   2
BRANCH   1  12
ATOM     12  N   UNL     1       1.669   8.050  20.966  0.00  0.00    +0.000 N 
ATOM     13  H   UNL     1       2.511   7.998  21.532  0.00  0.00    +0.000 HD
BRANCH  12  18
ATOM     14  C   UNL     1      -1.690  12.045  23.051  0.00  0.00    +0.000 C 
ATOM     15  C   UNL     1      -0.776  11.009  22.481  0.00  0.00    +0.000 A 
ATOM     16  C   UNL     1      -0.582  10.870  21.112  0.00  0.00    +0.000 A 
ATOM     17  N   UNL     1       0.220   9.919  20.561  0.00  0.00    +0.000 NA
ATOM     18  C   UNL     1       0.851   9.095  21.422  0.00  0.00    +0.000 A 
ATOM     19  C   UNL     1       0.645   9.244  22.798  0.00  0.00    +0.000 A 
ATOM     20  N   UNL     1      -0.151  10.190  23.356  0.00  0.00    +0.000 NA
ENDBRANCH  12  18
ENDBRANCH   1  12
TORSDOF 3
ENDMDL
MODEL 9
REMARK VINA RESULT:      -6.6      4.022      6.065
REMARK  Name = 
REMARK  4 active torsions:
REMARK  status: ('A' for Active; 'I' for Inactive)
REMARK    1  A    between atoms: C_1  and  C_2
REMARK    2  A    between atoms: C_5  and  N_6
REMARK    3  A    between atoms: N_6  and  C_7
REMARK    4  A    between atoms: C_7  and  C_8
REMARK                            x       y       z     vdW  Elec       q    Type
REMARK                         _______ _______ _______ _____ _____    ______ ____
ROOT
ATOM      1  C   UNL     1       2.577   5.135  19.365  0.00  0.00    +0.000 C 
ENDROOT
BRANCH   1   2
ATOM      2  C   UNL     1       3.871   5.035  18.578  0.00  0.00    +0.000 A 
ATOM      3  C   UNL     1       5.108   5.215  19.223  0.00  0.00    +0.000 A 
ATOM      4  C   UNL     1       6.307   5.127  18.510  0.00  0.00    +0.000 A 
ATOM      5  C   UNL     1       6.282   4.854  17.145  0.00  0.00    +0.000 A 
ATOM      6  C   UNL     1       5.062   4.641  16.498  0.00  0.00    +0.000 A 
ATOM      7  C   UNL     1       3.863   4.747  17.206  0.00  0.00    +0.000 A 
ATOM      8  O   UNL     1       4.966   4.331  15.164  0.00  0.00    +0.000 OA
ATOM      9  C   UNL     1       6.229   3.912  14.633  0.00  0.00    +0.000 C 
ATOM     10  C   UNL     1       7.339   4.847  15.083  0.00  0.00    +0.000 C 
ATOM     11  O   UNL     1       7.496   4.799  16.505  0.00  0.00    +0.000 OA
ENDBRANCH   1   2
BRANCH   1  12
ATOM     12  N   UNL     1       2.682   6.247  20.301  0.00  0.00    +0.000 N 
ATOM     13  H   UNL     1       3.640   6.389  20.607  0.00  0.00    +0.000 HD
BRANCH  12  18
ATOM     14  C   UNL     1       0.232  11.074  18.786  0.00  0.00    +0.000 C 
ATOM     15  C   UNL     1       0.917   9.805  19.181  0.00  0.00    +0.000 A 
ATOM     16  C   UNL     1       1.663   9.058  18.276  0.00  0.00    +0.000 A 
ATOM     17  N   UNL     1       2.273   7.885  18.596  0.00  0.00    +0.000 NA
ATOM     18  C   UNL     1       2.132   7.463  19.869  0.00  0.00    +0.000 A 
ATOM     19  C   UNL     1       1.376   8.223  20.769  0.00  0.00    +0.000 A 
ATOM     20  N   UNL     1       0.766   9.395  20.460  0.00  0.00    +0.000 NA
ENDBRANCH  12  18
ENDBRANCH   1  12
TORSDOF 3
ENDMDL
