MODEL 1
REMARK VINA RESULT:      -7.8      0.000      0.000
REMARK  Name = 
REMARK  10 active torsions:
REMARK  status: ('A' for Active; 'I' for Inactive)
REMARK    1  A    between atoms: C_2  and  C_3
REMARK    2  A    between atoms: C_2  and  C_4
REMARK    3  A    between atoms: C_4  and  O_5
REMARK    4  A    between atoms: O_5  and  C_6
REMARK    5  A    between atoms: C_8  and  C_9
REMARK    6  A    between atoms: C_14  and  C_15
REMARK    7  A    between atoms: C_16  and  C_17
REMARK    8  A    between atoms: C_17  and  C_18
REMARK    9  A    between atoms: C_18  and  C_19
REMARK   10  A    between atoms: C_21  and  O_22
REMARK                            x       y       z     vdW  Elec       q    Type
REMARK                         _______ _______ _______ _____ _____    ______ ____
ROOT
ATOM      1  C   UNL     1       4.631   6.199  16.741  0.00  0.00    +0.000 C 
ATOM      2  C   UNL     1       4.991   5.904  15.265  0.00  0.00    +0.000 C 
ATOM      3  C   UNL     1       5.846   4.636  15.094  0.00  0.00    +0.000 C 
ATOM      4  C   UNL     1       7.351   4.903  15.219  0.00  0.00    +0.000 C 
ATOM      5  C   UNL     1       5.426   3.541  16.042  0.00  0.00    +0.000 C 
ATOM      6  C   UNL     1       4.498   3.673  17.003  0.00  0.00    +0.000 C 
ATOM      7  C   UNL     1       4.167   2.533  17.829  0.00  0.00    +0.000 C 
ATOM      8  C   UNL     1       3.240   2.571  18.791  0.00  0.00    +0.000 C 
ATOM      9  C   UNL     1       2.454   3.800  19.143  0.00  0.00    +0.000 C 
ATOM     10  C   UNL     1       1.031   3.626  18.583  0.00  0.00    +0.000 C 
ATOM     11  C   UNL     1       3.197   5.113  18.718  0.00  0.00    +0.000 C 
ATOM     12  C   UNL     1       3.755   4.996  17.254  0.00  0.00    +0.000 C 
ENDROOT
BRANCH   1  13
ATOM     13  O   UNL     1       5.799   6.407  17.559  0.00  0.00    +0.000 OA
BRANCH  13  14
ATOM     14  C   UNL     1       6.585   7.540  17.160  0.00  0.00    +0.000 C 
BRANCH  14  16
ATOM     15  C   UNL     1       8.449   8.943  18.157  0.00  0.00    +0.000 C 
ATOM     16  C   UNL     1       7.792   7.777  18.044  0.00  0.00    +0.000 C 
ATOM     17  C   UNL     1       8.210   6.575  18.854  0.00  0.00    +0.000 C 
ENDBRANCH  14  16
ENDBRANCH  13  14
ENDBRANCH   1  13
BRANCH  11  18
ATOM     18  C   UNL     1       2.290   6.356  18.922  0.00  0.00    +0.000 C 
BRANCH  18  19
ATOM     19  C   UNL     1       1.880   6.664  20.379  0.00  0.00    +0.000 C 
BRANCH  19  20
ATOM     20  C   UNL     1       1.631   8.141  20.718  0.00  0.00    +0.000 C 
ATOM     21  C   UNL     1       0.355   8.263  21.549  0.00  0.00    +0.000 C 
ATOM     22  C   UNL     1      -0.187   9.674  21.514  0.00  0.00    +0.000 C 
ATOM     23  C   UNL     1      -0.440  10.096  20.088  0.00  0.00    +0.000 C 
ATOM     24  C   UNL     1       0.712   9.845  19.160  0.00  0.00    +0.000 C 
ATOM     25  O   UNL     1       0.804  10.441  18.096  0.00  0.00    +0.000 OA
ATOM     26  O   UNL     1       1.597   8.878  19.482  0.00  0.00    +0.000 OA
BRANCH  22  27
ATOM     27  O   UNL     1       0.673  10.578  22.199  0.00  0.00    +0.000 OA
ATOM     28  H   UNL     1       1.429  10.816  21.634  0.00  0.00    +0.000 HD
ENDBRANCH  22  27
ENDBRANCH  19  20
ENDBRANCH  18  19
ENDBRANCH  11  18
TORSDOF 7
ENDMDL
MODEL 2
REMARK VINA RESULT:      -7.5      1.106      1.823
REMARK  Name = 
REMARK  10 active torsions:
REMARK  status: ('A' for Active; 'I' for Inactive)
REMARK    1  A    between atoms: C_2  and  C_3
REMARK    2  A    between atoms: C_2  and  C_4
REMARK    3  A    between atoms: C_4  and  O_5
REMARK    4  A    between atoms: O_5  and  C_6
REMARK    5  A    between atoms: C_8  and  C_9
REMARK    6  A    between atoms: C_14  and  C_15
REMARK    7  A    between atoms: C_16  and  C_17
REMARK    8  A    between atoms: C_17  and  C_18
REMARK    9  A    between atoms: C_18  and  C_19
REMARK   10  A    between atoms: C_21  and  O_22
REMARK                            x       y       z     vdW  Elec       q    Type
REMARK                         _______ _______ _______ _____ _____    ______ ____
ROOT
ATOM      1  C   UNL     1       4.531   6.067  17.177  0.00  0.00    +0.000 C 
ATOM      2  C   UNL     1       4.742   5.391  15.801  0.00  0.00    +0.000 C 
ATOM      3  C   UNL     1       5.519   4.066  15.893  0.00  0.00    +0.000 C 
ATOM      4  C   UNL     1       7.040   4.254  15.831  0.00  0.00    +0.000 C 
ATOM      5  C   UNL     1       5.137   3.272  17.116  0.00  0.00    +0.000 C 
ATOM      6  C   UNL     1       4.307   3.701  18.080  0.00  0.00    +0.000 C 
ATOM      7  C   UNL     1       4.000   2.827  19.190  0.00  0.00    +0.000 C 
ATOM      8  C   UNL     1       3.166   3.165  20.179  0.00  0.00    +0.000 C 
ATOM      9  C   UNL     1       2.472   4.492  20.266  0.00  0.00    +0.000 C 
ATOM     10  C   UNL     1       0.998   4.281  19.879  0.00  0.00    +0.000 C 
ATOM     11  C   UNL     1       3.234   5.606  19.468  0.00  0.00    +0.000 C 
ATOM     12  C   UNL     1       3.651   5.091  18.043  0.00  0.00    +0.000 C 
ENDROOT
BRANCH   1  13
ATOM     13  O   UNL     1       5.777   6.393  17.825  0.00  0.00    +0.000 OA
BRANCH  13  14
ATOM     14  C   UNL     1       6.461   7.505  17.227  0.00  0.00    +0.000 C 
BRANCH  14  16
ATOM     15  C   UNL     1       8.308   9.107  17.903  0.00  0.00    +0.000 C 
ATOM     16  C   UNL     1       7.726   7.898  17.962  0.00  0.00    +0.000 C 
ATOM     17  C   UNL     1       8.301   6.808  18.831  0.00  0.00    +0.000 C 
ENDBRANCH  14  16
ENDBRANCH  13  14
ENDBRANCH   1  13
BRANCH  11  18
ATOM     18  C   UNL     1       2.408   6.919  19.418  0.00  0.00    +0.000 C 
BRANCH  18  19
ATOM     19  C   UNL     1       1.800   7.388  20.759  0.00  0.00    +0.000 C 
BRANCH  19  20
ATOM     20  C   UNL     1       0.638   8.388  20.667  0.00  0.00    +0.000 C 
ATOM     21  C   UNL     1       1.011   9.512  19.702  0.00  0.00    +0.000 C 
ATOM     22  C   UNL     1       0.143  10.730  19.921  0.00  0.00    +0.000 C 
ATOM     23  C   UNL     1       0.258  11.198  21.352  0.00  0.00    +0.000 C 
ATOM     24  C   UNL     1       0.078  10.110  22.369  0.00  0.00    +0.000 C 
ATOM     25  O   UNL     1      -0.214  10.374  23.527  0.00  0.00    +0.000 OA
ATOM     26  O   UNL     1       0.336   8.837  22.001  0.00  0.00    +0.000 OA
BRANCH  22  27
ATOM     27  O   UNL     1      -1.206  10.481  19.543  0.00  0.00    +0.000 OA
ATOM     28  H   UNL     1      -1.789  10.536  20.320  0.00  0.00    +0.000 HD
ENDBRANCH  22  27
ENDBRANCH  19  20
ENDBRANCH  18  19
ENDBRANCH  11  18
TORSDOF 7
ENDMDL
MODEL 3
REMARK VINA RESULT:      -7.4      0.882      1.737
REMARK  Name = 
REMARK  10 active torsions:
REMARK  status: ('A' for Active; 'I' for Inactive)
REMARK    1  A    between atoms: C_2  and  C_3
REMARK    2  A    between atoms: C_2  and  C_4
REMARK    3  A    between atoms: C_4  and  O_5
REMARK    4  A    between atoms: O_5  and  C_6
REMARK    5  A    between atoms: C_8  and  C_9
REMARK    6  A    between atoms: C_14  and  C_15
REMARK    7  A    between atoms: C_16  and  C_17
REMARK    8  A    between atoms: C_17  and  C_18
REMARK    9  A    between atoms: C_18  and  C_19
REMARK   10  A    between atoms: C_21  and  O_22
REMARK                            x       y       z     vdW  Elec       q    Type
REMARK                         _______ _______ _______ _____ _____    ______ ____
ROOT
ATOM      1  C   UNL     1       4.818   6.274  16.578  0.00  0.00    +0.000 C 
ATOM      2  C   UNL     1       5.216   5.930  15.122  0.00  0.00    +0.000 C 
ATOM      3  C   UNL     1       6.027   4.627  15.011  0.00  0.00    +0.000 C 
ATOM      4  C   UNL     1       7.536   4.839  15.183  0.00  0.00    +0.000 C 
ATOM      5  C   UNL     1       5.533   3.572  15.968  0.00  0.00    +0.000 C 
ATOM      6  C   UNL     1       4.578   3.763  16.893  0.00  0.00    +0.000 C 
ATOM      7  C   UNL     1       4.174   2.656  17.732  0.00  0.00    +0.000 C 
ATOM      8  C   UNL     1       3.217   2.752  18.659  0.00  0.00    +0.000 C 
ATOM      9  C   UNL     1       2.468   4.018  18.955  0.00  0.00    +0.000 C 
ATOM     10  C   UNL     1       1.059   3.885  18.349  0.00  0.00    +0.000 C 
ATOM     11  C   UNL     1       3.276   5.292  18.527  0.00  0.00    +0.000 C 
ATOM     12  C   UNL     1       3.879   5.118  17.087  0.00  0.00    +0.000 C 
ENDROOT
BRANCH   1  13
ATOM     13  O   UNL     1       5.964   6.458  17.432  0.00  0.00    +0.000 OA
BRANCH  13  14
ATOM     14  C   UNL     1       6.699   7.659  17.156  0.00  0.00    +0.000 C 
BRANCH  14  16
ATOM     15  C   UNL     1       8.395   6.953  18.906  0.00  0.00    +0.000 C 
ATOM     16  C   UNL     1       7.856   7.889  18.108  0.00  0.00    +0.000 C 
ATOM     17  C   UNL     1       8.413   9.290  18.076  0.00  0.00    +0.000 C 
ENDBRANCH  14  16
ENDBRANCH  13  14
ENDBRANCH   1  13
BRANCH  11  18
ATOM     18  C   UNL     1       2.412   6.573  18.670  0.00  0.00    +0.000 C 
BRANCH  18  19
ATOM     19  C   UNL     1       2.194   7.086  20.111  0.00  0.00    +0.000 C 
BRANCH  19  20
ATOM     20  C   UNL     1       1.037   8.074  20.315  0.00  0.00    +0.000 C 
ATOM     21  C   UNL     1       1.255   9.301  19.431  0.00  0.00    +0.000 C 
ATOM     22  C   UNL     1       0.437  10.476  19.917  0.00  0.00    +0.000 C 
ATOM     23  C   UNL     1       0.781  10.789  21.353  0.00  0.00    +0.000 C 
ATOM     24  C   UNL     1       0.763   9.595  22.261  0.00  0.00    +0.000 C 
ATOM     25  O   UNL     1       0.661   9.729  23.473  0.00  0.00    +0.000 OA
ATOM     26  O   UNL     1       0.954   8.373  21.721  0.00  0.00    +0.000 OA
BRANCH  22  27
ATOM     27  O   UNL     1      -0.956  10.251  19.733  0.00  0.00    +0.000 OA
ATOM     28  H   UNL     1      -1.361  11.009  19.275  0.00  0.00    +0.000 HD
ENDBRANCH  22  27
ENDBRANCH  19  20
ENDBRANCH  18  19
ENDBRANCH  11  18
TORSDOF 7
ENDMDL
MODEL 4
REMARK VINA RESULT:      -7.4      1.025      1.252
REMARK  Name = 
REMARK  10 active torsions:
REMARK  status: ('A' for Active; 'I' for Inactive)
REMARK    1  A    between atoms: C_2  and  C_3
REMARK    2  A    between atoms: C_2  and  C_4
REMARK    3  A    between atoms: C_4  and  O_5
REMARK    4  A    between atoms: O_5  and  C_6
REMARK    5  A    between atoms: C_8  and  C_9
REMARK    6  A    between atoms: C_14  and  C_15
REMARK    7  A    between atoms: C_16  and  C_17
REMARK    8  A    between atoms: C_17  and  C_18
REMARK    9  A    between atoms: C_18  and  C_19
REMARK   10  A    between atoms: C_21  and  O_22
REMARK                            x       y       z     vdW  Elec       q    Type
REMARK                         _______ _______ _______ _____ _____    ______ ____
ROOT
ATOM      1  C   UNL     1       4.768   6.557  16.895  0.00  0.00    +0.000 C 
ATOM      2  C   UNL     1       4.906   6.299  15.375  0.00  0.00    +0.000 C 
ATOM      3  C   UNL     1       5.600   4.964  15.050  0.00  0.00    +0.000 C 
ATOM      4  C   UNL     1       7.127   5.079  14.986  0.00  0.00    +0.000 C 
ATOM      5  C   UNL     1       5.195   3.871  16.007  0.00  0.00    +0.000 C 
ATOM      6  C   UNL     1       4.415   4.046  17.086  0.00  0.00    +0.000 C 
ATOM      7  C   UNL     1       4.078   2.905  17.908  0.00  0.00    +0.000 C 
ATOM      8  C   UNL     1       3.289   2.987  18.984  0.00  0.00    +0.000 C 
ATOM      9  C   UNL     1       2.682   4.267  19.477  0.00  0.00    +0.000 C 
ATOM     10  C   UNL     1       1.190   4.257  19.103  0.00  0.00    +0.000 C 
ATOM     11  C   UNL     1       3.495   5.522  19.004  0.00  0.00    +0.000 C 
ATOM     12  C   UNL     1       3.848   5.420  17.477  0.00  0.00    +0.000 C 
ENDROOT
BRANCH   1  13
ATOM     13  O   UNL     1       6.046   6.614  17.559  0.00  0.00    +0.000 OA
BRANCH  13  14
ATOM     14  C   UNL     1       6.812   7.782  17.231  0.00  0.00    +0.000 C 
BRANCH  14  16
ATOM     15  C   UNL     1       8.652   9.175  18.286  0.00  0.00    +0.000 C 
ATOM     16  C   UNL     1       7.980   8.018  18.167  0.00  0.00    +0.000 C 
ATOM     17  C   UNL     1       8.336   6.829  19.024  0.00  0.00    +0.000 C 
ENDBRANCH  14  16
ENDBRANCH  13  14
ENDBRANCH   1  13
BRANCH  11  18
ATOM     18  C   UNL     1       2.752   6.835  19.368  0.00  0.00    +0.000 C 
BRANCH  18  19
ATOM     19  C   UNL     1       2.230   7.671  18.177  0.00  0.00    +0.000 C 
BRANCH  19  20
ATOM     20  C   UNL     1       1.733   9.086  18.505  0.00  0.00    +0.000 C 
ATOM     21  C   UNL     1       1.442   9.188  20.001  0.00  0.00    +0.000 C 
ATOM     22  C   UNL     1       0.533  10.358  20.302  0.00  0.00    +0.000 C 
ATOM     23  C   UNL     1      -0.751  10.232  19.519  0.00  0.00    +0.000 C 
ATOM     24  C   UNL     1      -0.553   9.952  18.058  0.00  0.00    +0.000 C 
ATOM     25  O   UNL     1      -1.442  10.178  17.249  0.00  0.00    +0.000 OA
ATOM     26  O   UNL     1       0.595   9.358  17.667  0.00  0.00    +0.000 OA
BRANCH  22  27
ATOM     27  O   UNL     1       1.188  11.599  20.065  0.00  0.00    +0.000 OA
ATOM     28  H   UNL     1       1.539  11.958  20.899  0.00  0.00    +0.000 HD
ENDBRANCH  22  27
ENDBRANCH  19  20
ENDBRANCH  18  19
ENDBRANCH  11  18
TORSDOF 7
ENDMDL
MODEL 5
REMARK VINA RESULT:      -7.3      2.776      6.956
REMARK  Name = 
REMARK  10 active torsions:
REMARK  status: ('A' for Active; 'I' for Inactive)
REMARK    1  A    between atoms: C_2  and  C_3
REMARK    2  A    between atoms: C_2  and  C_4
REMARK    3  A    between atoms: C_4  and  O_5
REMARK    4  A    between atoms: O_5  and  C_6
REMARK    5  A    between atoms: C_8  and  C_9
REMARK    6  A    between atoms: C_14  and  C_15
REMARK    7  A    between atoms: C_16  and  C_17
REMARK    8  A    between atoms: C_17  and  C_18
REMARK    9  A    between atoms: C_18  and  C_19
REMARK   10  A    between atoms: C_21  and  O_22
REMARK                            x       y       z     vdW  Elec       q    Type
REMARK                         _______ _______ _______ _____ _____    ______ ____
ROOT
ATOM      1  C   UNL     1       2.726   4.411  18.758  0.00  0.00    +0.000 C 
ATOM      2  C   UNL     1       1.554   3.413  18.916  0.00  0.00    +0.000 C 
ATOM      3  C   UNL     1       0.884   3.483  20.300  0.00  0.00    +0.000 C 
ATOM      4  C   UNL     1       1.556   2.581  21.342  0.00  0.00    +0.000 C 
ATOM      5  C   UNL     1       0.794   4.899  20.811  0.00  0.00    +0.000 C 
ATOM      6  C   UNL     1       1.329   5.969  20.202  0.00  0.00    +0.000 C 
ATOM      7  C   UNL     1       1.145   7.281  20.784  0.00  0.00    +0.000 C 
ATOM      8  C   UNL     1       1.622   8.400  20.231  0.00  0.00    +0.000 C 
ATOM      9  C   UNL     1       2.420   8.427  18.961  0.00  0.00    +0.000 C 
ATOM     10  C   UNL     1       1.507   8.955  17.841  0.00  0.00    +0.000 C 
ATOM     11  C   UNL     1       3.121   7.053  18.679  0.00  0.00    +0.000 C 
ATOM     12  C   UNL     1       2.122   5.859  18.890  0.00  0.00    +0.000 C 
ENDROOT
BRANCH   1  13
ATOM     13  O   UNL     1       3.781   4.175  19.711  0.00  0.00    +0.000 OA
BRANCH  13  14
ATOM     14  C   UNL     1       4.828   3.330  19.211  0.00  0.00    +0.000 C 
BRANCH  14  16
ATOM     15  C   UNL     1       4.035   1.001  18.594  0.00  0.00    +0.000 C 
ATOM     16  C   UNL     1       4.588   1.857  19.469  0.00  0.00    +0.000 C 
ATOM     17  C   UNL     1       5.062   1.380  20.819  0.00  0.00    +0.000 C 
ENDBRANCH  14  16
ENDBRANCH  13  14
ENDBRANCH   1  13
BRANCH  11  18
ATOM     18  C   UNL     1       3.786   7.046  17.277  0.00  0.00    +0.000 C 
BRANCH  18  19
ATOM     19  C   UNL     1       5.256   7.517  17.221  0.00  0.00    +0.000 C 
BRANCH  19  20
ATOM     20  C   UNL     1       6.193   6.716  16.306  0.00  0.00    +0.000 C 
ATOM     21  C   UNL     1       5.362   5.878  15.336  0.00  0.00    +0.000 C 
ATOM     22  C   UNL     1       6.179   4.750  14.750  0.00  0.00    +0.000 C 
ATOM     23  C   UNL     1       6.736   3.885  15.854  0.00  0.00    +0.000 C 
ATOM     24  C   UNL     1       7.420   4.652  16.947  0.00  0.00    +0.000 C 
ATOM     25  O   UNL     1       8.215   4.102  17.698  0.00  0.00    +0.000 OA
ATOM     26  O   UNL     1       7.072   5.941  17.143  0.00  0.00    +0.000 OA
BRANCH  22  27
ATOM     27  O   UNL     1       7.197   5.240  13.884  0.00  0.00    +0.000 OA
ATOM     28  H   UNL     1       7.314   6.198  14.012  0.00  0.00    +0.000 HD
ENDBRANCH  22  27
ENDBRANCH  19  20
ENDBRANCH  18  19
ENDBRANCH  11  18
TORSDOF 7
ENDMDL
MODEL 6
REMARK VINA RESULT:      -7.2      0.993      1.840
REMARK  Name = 
REMARK  10 active torsions:
REMARK  status: ('A' for Active; 'I' for Inactive)
REMARK    1  A    between atoms: C_2  and  C_3
REMARK    2  A    between atoms: C_2  and  C_4
REMARK    3  A    between atoms: C_4  and  O_5
REMARK    4  A    between atoms: O_5  and  C_6
REMARK    5  A    between atoms: C_8  and  C_9
REMARK    6  A    between atoms: C_14  and  C_15
REMARK    7  A    between atoms: C_16  and  C_17
REMARK    8  A    between atoms: C_17  and  C_18
REMARK    9  A    between atoms: C_18  and  C_19
REMARK   10  A    between atoms: C_21  and  O_22
REMARK                            x       y       z     vdW  Elec       q    Type
REMARK                         _______ _______ _______ _____ _____    ______ ____
ROOT
ATOM      1  C   UNL     1       4.627   6.371  17.107  0.00  0.00    +0.000 C 
ATOM      2  C   UNL     1       4.735   5.943  15.624  0.00  0.00    +0.000 C 
ATOM      3  C   UNL     1       5.444   4.591  15.437  0.00  0.00    +0.000 C 
ATOM      4  C   UNL     1       6.968   4.719  15.324  0.00  0.00    +0.000 C 
ATOM      5  C   UNL     1       5.079   3.608  16.521  0.00  0.00    +0.000 C 
ATOM      6  C   UNL     1       4.320   3.894  17.591  0.00  0.00    +0.000 C 
ATOM      7  C   UNL     1       4.020   2.850  18.546  0.00  0.00    +0.000 C 
ATOM      8  C   UNL     1       3.253   3.043  19.624  0.00  0.00    +0.000 C 
ATOM      9  C   UNL     1       2.636   4.362  19.982  0.00  0.00    +0.000 C 
ATOM     10  C   UNL     1       1.136   4.289  19.647  0.00  0.00    +0.000 C 
ATOM     11  C   UNL     1       3.417   5.566  19.350  0.00  0.00    +0.000 C 
ATOM     12  C   UNL     1       3.738   5.296  17.836  0.00  0.00    +0.000 C 
ENDROOT
BRANCH   1  13
ATOM     13  O   UNL     1       5.917   6.522  17.731  0.00  0.00    +0.000 OA
BRANCH  13  14
ATOM     14  C   UNL     1       6.675   7.630  17.223  0.00  0.00    +0.000 C 
BRANCH  14  16
ATOM     15  C   UNL     1       8.480   9.179  18.105  0.00  0.00    +0.000 C 
ATOM     16  C   UNL     1       7.877   7.979  18.077  0.00  0.00    +0.000 C 
ATOM     17  C   UNL     1       8.355   6.854  18.960  0.00  0.00    +0.000 C 
ENDBRANCH  14  16
ENDBRANCH  13  14
ENDBRANCH   1  13
BRANCH  11  18
ATOM     18  C   UNL     1       2.660   6.902  19.579  0.00  0.00    +0.000 C 
BRANCH  18  19
ATOM     19  C   UNL     1       2.365   7.739  18.315  0.00  0.00    +0.000 C 
BRANCH  19  20
ATOM     20  C   UNL     1       1.371   8.897  18.482  0.00  0.00    +0.000 C 
ATOM     21  C   UNL     1       2.040  10.205  18.063  0.00  0.00    +0.000 C 
ATOM     22  C   UNL     1       1.307  11.399  18.630  0.00  0.00    +0.000 C 
ATOM     23  C   UNL     1       1.237  11.297  20.135  0.00  0.00    +0.000 C 
ATOM     24  C   UNL     1       0.753   9.969  20.637  0.00  0.00    +0.000 C 
ATOM     25  O   UNL     1       0.306   9.851  21.769  0.00  0.00    +0.000 OA
ATOM     26  O   UNL     1       0.908   8.887  19.845  0.00  0.00    +0.000 OA
BRANCH  22  27
ATOM     27  O   UNL     1       0.020  11.548  18.040  0.00  0.00    +0.000 OA
ATOM     28  H   UNL     1       0.108  11.795  17.103  0.00  0.00    +0.000 HD
ENDBRANCH  22  27
ENDBRANCH  19  20
ENDBRANCH  18  19
ENDBRANCH  11  18
TORSDOF 7
ENDMDL
MODEL 7
REMARK VINA RESULT:      -7.2      1.903      6.287
REMARK  Name = 
REMARK  10 active torsions:
REMARK  status: ('A' for Active; 'I' for Inactive)
REMARK    1  A    between atoms: C_2  and  C_3
REMARK    2  A    between atoms: C_2  and  C_4
REMARK    3  A    between atoms: C_4  and  O_5
REMARK    4  A    between atoms: O_5  and  C_6
REMARK    5  A    between atoms: C_8  and  C_9
REMARK    6  A    between atoms: C_14  and  C_15
REMARK    7  A    between atoms: C_16  and  C_17
REMARK    8  A    between atoms: C_17  and  C_18
REMARK    9  A    between atoms: C_18  and  C_19
REMARK   10  A    between atoms: C_21  and  O_22
REMARK                            x       y       z     vdW  Elec       q    Type
REMARK                         _______ _______ _______ _____ _____    ______ ____
ROOT
ATOM      1  C   UNL     1       2.995   6.308  18.672  0.00  0.00    +0.000 C 
ATOM      2  C   UNL     1       3.254   6.863  20.094  0.00  0.00    +0.000 C 
ATOM      3  C   UNL     1       2.030   6.747  21.019  0.00  0.00    +0.000 C 
ATOM      4  C   UNL     1       1.081   7.947  20.919  0.00  0.00    +0.000 C 
ATOM      5  C   UNL     1       1.274   5.461  20.795  0.00  0.00    +0.000 C 
ATOM      6  C   UNL     1       1.552   4.566  19.833  0.00  0.00    +0.000 C 
ATOM      7  C   UNL     1       0.766   3.355  19.745  0.00  0.00    +0.000 C 
ATOM      8  C   UNL     1       0.990   2.403  18.834  0.00  0.00    +0.000 C 
ATOM      9  C   UNL     1       2.062   2.486  17.788  0.00  0.00    +0.000 C 
ATOM     10  C   UNL     1       3.204   1.543  18.205  0.00  0.00    +0.000 C 
ATOM     11  C   UNL     1       2.476   3.968  17.490  0.00  0.00    +0.000 C 
ATOM     12  C   UNL     1       2.692   4.771  18.823  0.00  0.00    +0.000 C 
ENDROOT
BRANCH   1  13
ATOM     13  O   UNL     1       1.931   7.007  17.996  0.00  0.00    +0.000 OA
BRANCH  13  14
ATOM     14  C   UNL     1       2.328   8.277  17.460  0.00  0.00    +0.000 C 
BRANCH  14  16
ATOM     15  C   UNL     1       0.036   9.314  17.792  0.00  0.00    +0.000 C 
ATOM     16  C   UNL     1       1.376   9.403  17.812  0.00  0.00    +0.000 C 
ATOM     17  C   UNL     1       2.058  10.678  18.240  0.00  0.00    +0.000 C 
ENDBRANCH  14  16
ENDBRANCH  13  14
ENDBRANCH   1  13
BRANCH  11  18
ATOM     18  C   UNL     1       3.707   4.022  16.546  0.00  0.00    +0.000 C 
BRANCH  18  19
ATOM     19  C   UNL     1       4.501   5.347  16.541  0.00  0.00    +0.000 C 
BRANCH  19  20
ATOM     20  C   UNL     1       6.013   5.236  16.785  0.00  0.00    +0.000 C 
ATOM     21  C   UNL     1       6.261   4.581  18.143  0.00  0.00    +0.000 C 
ATOM     22  C   UNL     1       7.662   4.863  18.637  0.00  0.00    +0.000 C 
ATOM     23  C   UNL     1       7.892   6.353  18.718  0.00  0.00    +0.000 C 
ATOM     24  C   UNL     1       7.504   7.101  17.476  0.00  0.00    +0.000 C 
ATOM     25  O   UNL     1       7.951   8.217  17.249  0.00  0.00    +0.000 OA
ATOM     26  O   UNL     1       6.578   6.555  16.660  0.00  0.00    +0.000 OA
BRANCH  22  27
ATOM     27  O   UNL     1       8.638   4.210  17.835  0.00  0.00    +0.000 OA
ATOM     28  H   UNL     1       8.483   3.249  17.833  0.00  0.00    +0.000 HD
ENDBRANCH  22  27
ENDBRANCH  19  20
ENDBRANCH  18  19
ENDBRANCH  11  18
TORSDOF 7
ENDMDL
MODEL 8
REMARK VINA RESULT:      -7.0      1.083      1.293
REMARK  Name = 
REMARK  10 active torsions:
REMARK  status: ('A' for Active; 'I' for Inactive)
REMARK    1  A    between atoms: C_2  and  C_3
REMARK    2  A    between atoms: C_2  and  C_4
REMARK    3  A    between atoms: C_4  and  O_5
REMARK    4  A    between atoms: O_5  and  C_6
REMARK    5  A    between atoms: C_8  and  C_9
REMARK    6  A    between atoms: C_14  and  C_15
REMARK    7  A    between atoms: C_16  and  C_17
REMARK    8  A    between atoms: C_17  and  C_18
REMARK    9  A    between atoms: C_18  and  C_19
REMARK   10  A    between atoms: C_21  and  O_22
REMARK                            x       y       z     vdW  Elec       q    Type
REMARK                         _______ _______ _______ _____ _____    ______ ____
ROOT
ATOM      1  C   UNL     1       4.065   5.699  17.666  0.00  0.00    +0.000 C 
ATOM      2  C   UNL     1       4.246   5.108  16.247  0.00  0.00    +0.000 C 
ATOM      3  C   UNL     1       5.146   3.861  16.224  0.00  0.00    +0.000 C 
ATOM      4  C   UNL     1       6.636   4.194  16.079  0.00  0.00    +0.000 C 
ATOM      5  C   UNL     1       4.920   2.980  17.426  0.00  0.00    +0.000 C 
ATOM      6  C   UNL     1       4.119   3.284  18.460  0.00  0.00    +0.000 C 
ATOM      7  C   UNL     1       3.967   2.336  19.542  0.00  0.00    +0.000 C 
ATOM      8  C   UNL     1       3.173   2.548  20.595  0.00  0.00    +0.000 C 
ATOM      9  C   UNL     1       2.367   3.799  20.792  0.00  0.00    +0.000 C 
ATOM     10  C   UNL     1       0.897   3.466  20.485  0.00  0.00    +0.000 C 
ATOM     11  C   UNL     1       2.969   5.014  20.006  0.00  0.00    +0.000 C 
ATOM     12  C   UNL     1       3.337   4.606  18.534  0.00  0.00    +0.000 C 
ENDROOT
BRANCH   1  13
ATOM     13  O   UNL     1       5.315   6.113  18.252  0.00  0.00    +0.000 OA
BRANCH  13  14
ATOM     14  C   UNL     1       5.957   7.181  17.540  0.00  0.00    +0.000 C 
BRANCH  14  16
ATOM     15  C   UNL     1       8.124   8.493  17.670  0.00  0.00    +0.000 C 
ATOM     16  C   UNL     1       7.398   7.398  17.952  0.00  0.00    +0.000 C 
ATOM     17  C   UNL     1       7.985   6.272  18.766  0.00  0.00    +0.000 C 
ENDBRANCH  14  16
ENDBRANCH  13  14
ENDBRANCH   1  13
BRANCH  11  18
ATOM     18  C   UNL     1       2.024   6.243  20.074  0.00  0.00    +0.000 C 
BRANCH  18  19
ATOM     19  C   UNL     1       2.351   7.404  19.108  0.00  0.00    +0.000 C 
BRANCH  19  20
ATOM     20  C   UNL     1       1.892   8.803  19.545  0.00  0.00    +0.000 C 
ATOM     21  C   UNL     1       1.228   8.714  20.918  0.00  0.00    +0.000 C 
ATOM     22  C   UNL     1       0.362   9.924  21.185  0.00  0.00    +0.000 C 
ATOM     23  C   UNL     1      -0.679  10.066  20.102  0.00  0.00    +0.000 C 
ATOM     24  C   UNL     1      -0.128   9.986  18.709  0.00  0.00    +0.000 C 
ATOM     25  O   UNL     1      -0.755  10.432  17.758  0.00  0.00    +0.000 OA
ATOM     26  O   UNL     1       1.035   9.328  18.514  0.00  0.00    +0.000 OA
BRANCH  22  27
ATOM     27  O   UNL     1       1.146  11.101  21.337  0.00  0.00    +0.000 OA
ATOM     28  H   UNL     1       0.990  11.499  22.211  0.00  0.00    +0.000 HD
ENDBRANCH  22  27
ENDBRANCH  19  20
ENDBRANCH  18  19
ENDBRANCH  11  18
TORSDOF 7
ENDMDL
MODEL 9
REMARK VINA RESULT:      -7.0      1.260      1.648
REMARK  Name = 
REMARK  10 active torsions:
REMARK  status: ('A' for Active; 'I' for Inactive)
REMARK    1  A    between atoms: C_2  and  C_3
REMARK    2  A    between atoms: C_2  and  C_4
REMARK    3  A    between atoms: C_4  and  O_5
REMARK    4  A    between atoms: O_5  and  C_6
REMARK    5  A    between atoms: C_8  and  C_9
REMARK    6  A    between atoms: C_14  and  C_15
REMARK    7  A    between atoms: C_16  and  C_17
REMARK    8  A    between atoms: C_17  and  C_18
REMARK    9  A    between atoms: C_18  and  C_19
REMARK   10  A    between atoms: C_21  and  O_22
REMARK                            x       y       z     vdW  Elec       q    Type
REMARK                         _______ _______ _______ _____ _____    ______ ____
ROOT
ATOM      1  C   UNL     1       4.302   5.325  18.462  0.00  0.00    +0.000 C 
ATOM      2  C   UNL     1       4.384   5.713  16.966  0.00  0.00    +0.000 C 
ATOM      3  C   UNL     1       4.692   4.517  16.049  0.00  0.00    +0.000 C 
ATOM      4  C   UNL     1       6.193   4.258  15.878  0.00  0.00    +0.000 C 
ATOM      5  C   UNL     1       3.991   3.262  16.504  0.00  0.00    +0.000 C 
ATOM      6  C   UNL     1       3.274   3.152  17.634  0.00  0.00    +0.000 C 
ATOM      7  C   UNL     1       2.626   1.895  17.942  0.00  0.00    +0.000 C 
ATOM      8  C   UNL     1       1.875   1.707  19.031  0.00  0.00    +0.000 C 
ATOM      9  C   UNL     1       1.635   2.763  20.070  0.00  0.00    +0.000 C 
ATOM     10  C   UNL     1       0.201   3.291  19.884  0.00  0.00    +0.000 C 
ATOM     11  C   UNL     1       2.766   3.848  20.075  0.00  0.00    +0.000 C 
ATOM     12  C   UNL     1       3.098   4.322  18.615  0.00  0.00    +0.000 C 
ENDROOT
BRANCH   1  13
ATOM     13  O   UNL     1       5.537   4.768  18.953  0.00  0.00    +0.000 OA
BRANCH  13  14
ATOM     14  C   UNL     1       6.422   5.746  19.519  0.00  0.00    +0.000 C 
BRANCH  14  16
ATOM     15  C   UNL     1       8.027   7.228  18.229  0.00  0.00    +0.000 C 
ATOM     16  C   UNL     1       7.645   6.016  18.665  0.00  0.00    +0.000 C 
ATOM     17  C   UNL     1       8.463   4.789  18.351  0.00  0.00    +0.000 C 
ENDBRANCH  14  16
ENDBRANCH  13  14
ENDBRANCH   1  13
BRANCH  11  18
ATOM     18  C   UNL     1       2.404   5.023  21.025  0.00  0.00    +0.000 C 
BRANCH  18  19
ATOM     19  C   UNL     1       1.323   6.000  20.513  0.00  0.00    +0.000 C 
BRANCH  19  20
ATOM     20  C   UNL     1       1.650   7.496  20.626  0.00  0.00    +0.000 C 
ATOM     21  C   UNL     1       0.450   8.235  21.216  0.00  0.00    +0.000 C 
ATOM     22  C   UNL     1       0.522   9.716  20.922  0.00  0.00    +0.000 C 
ATOM     23  C   UNL     1       0.606   9.946  19.433  0.00  0.00    +0.000 C 
ATOM     24  C   UNL     1       1.652   9.119  18.744  0.00  0.00    +0.000 C 
ATOM     25  O   UNL     1       2.083   9.440  17.645  0.00  0.00    +0.000 OA
ATOM     26  O   UNL     1       2.040   7.962  19.321  0.00  0.00    +0.000 OA
BRANCH  22  27
ATOM     27  O   UNL     1       1.595  10.333  21.624  0.00  0.00    +0.000 OA
ATOM     28  H   UNL     1       2.410  10.295  21.093  0.00  0.00    +0.000 HD
ENDBRANCH  22  27
ENDBRANCH  19  20
ENDBRANCH  18  19
ENDBRANCH  11  18
TORSDOF 7
ENDMDL
