MODEL 1
REMARK VINA RESULT:      -8.5      0.000      0.000
REMARK  Name = 
REMARK  6 active torsions:
REMARK  status: ('A' for Active; 'I' for Inactive)
REMARK    1  A    between atoms: C_1  and  C_2
REMARK    2  A    between atoms: C_2  and  N_3
REMARK    3  A    between atoms: C_2  and  C_20
REMARK    4  A    between atoms: N_3  and  C_4
REMARK    5  A    between atoms: C_10  and  C_11
REMARK    6  A    between atoms: C_14  and  O_15
REMARK                            x       y       z     vdW  Elec       q    Type
REMARK                         _______ _______ _______ _____ _____    ______ ____
ROOT
ATOM      1  C   UNL     1       4.244   4.401  17.697  0.00  0.00    +0.000 A 
ATOM      2  N   UNL     1       4.500   3.159  18.215  0.00  0.00    +0.000 NA
ATOM      3  C   UNL     1       4.020   2.770  19.433  0.00  0.00    +0.000 A 
ATOM      4  N   UNL     1       3.277   3.629  20.186  0.00  0.00    +0.000 NA
ATOM      5  C   UNL     1       3.026   4.864  19.692  0.00  0.00    +0.000 A 
ATOM      6  N   UNL     1       2.343   5.829  20.315  0.00  0.00    +0.000 N 
ATOM      7  C   UNL     1       2.349   6.899  19.478  0.00  0.00    +0.000 A 
ATOM      8  C   UNL     1       3.047   6.577  18.302  0.00  0.00    +0.000 A 
ATOM      9  C   UNL     1       3.475   5.271  18.473  0.00  0.00    +0.000 A 
ATOM     10  H   UNL     1       1.918   5.740  21.262  0.00  0.00    +0.000 HD
ENDROOT
BRANCH   7  11
ATOM     11  C   UNL     1       1.713   8.210  19.809  0.00  0.00    +0.000 A 
ATOM     12  C   UNL     1       1.299   8.487  21.130  0.00  0.00    +0.000 A 
ATOM     13  C   UNL     1       0.710   9.709  21.455  0.00  0.00    +0.000 A 
ATOM     14  C   UNL     1       0.519  10.682  20.471  0.00  0.00    +0.000 A 
ATOM     15  C   UNL     1       0.924  10.426  19.158  0.00  0.00    +0.000 A 
ATOM     16  C   UNL     1       1.518   9.201  18.826  0.00  0.00    +0.000 A 
BRANCH  14  17
ATOM     17  O   UNL     1      -0.053  11.866  20.778  0.00  0.00    +0.000 OA
ATOM     18  H   UNL     1      -0.990  12.042  20.606  0.00  0.00    +0.000 HD
ENDBRANCH  14  17
ENDBRANCH   7  11
BRANCH   1  19
ATOM     19  N   UNL     1       4.763   4.769  16.425  0.00  0.00    +0.000 N 
ATOM     20  H   UNL     1       4.118   5.111  15.696  0.00  0.00    +0.000 HD
BRANCH  19  22
ATOM     21  C   UNL     1       6.885   5.962  16.677  0.00  0.00    +0.000 C 
ATOM     22  C   UNL     1       6.193   4.690  16.156  0.00  0.00    +0.000 C 
BRANCH  22  23
ATOM     23  C   UNL     1       6.471   4.502  14.677  0.00  0.00    +0.000 A 
ATOM     24  C   UNL     1       7.501   5.244  14.068  0.00  0.00    +0.000 A 
ATOM     25  C   UNL     1       7.777   5.092  12.708  0.00  0.00    +0.000 A 
ATOM     26  C   UNL     1       7.030   4.201  11.937  0.00  0.00    +0.000 A 
ATOM     27  C   UNL     1       6.001   3.460  12.527  0.00  0.00    +0.000 A 
ATOM     28  F   UNL     1       5.276   2.597  11.774  0.00  0.00    +0.000 F 
ATOM     29  C   UNL     1       5.721   3.606  13.890  0.00  0.00    +0.000 A 
ENDBRANCH  22  23
ENDBRANCH  19  22
ENDBRANCH   1  19
TORSDOF 5
ENDMDL
MODEL 2
REMARK VINA RESULT:      -8.5      0.376      1.017
REMARK  Name = 
REMARK  6 active torsions:
REMARK  status: ('A' for Active; 'I' for Inactive)
REMARK    1  A    between atoms: C_1  and  C_2
REMARK    2  A    between atoms: C_2  and  N_3
REMARK    3  A    between atoms: C_2  and  C_20
REMARK    4  A    between atoms: N_3  and  C_4
REMARK    5  A    between atoms: C_10  and  C_11
REMARK    6  A    between atoms: C_14  and  O_15
REMARK                            x       y       z     vdW  Elec       q    Type
REMARK                         _______ _______ _______ _____ _____    ______ ____
ROOT
ATOM      1  C   UNL     1       4.201   3.998  17.707  0.00  0.00    +0.000 A 
ATOM      2  N   UNL     1       4.470   2.818  18.348  0.00  0.00    +0.000 NA
ATOM      3  C   UNL     1       4.050   2.576  19.626  0.00  0.00    +0.000 A 
ATOM      4  N   UNL     1       3.359   3.527  20.314  0.00  0.00    +0.000 NA
ATOM      5  C   UNL     1       3.096   4.703  19.697  0.00  0.00    +0.000 A 
ATOM      6  N   UNL     1       2.459   5.744  20.241  0.00  0.00    +0.000 N 
ATOM      7  C   UNL     1       2.432   6.713  19.290  0.00  0.00    +0.000 A 
ATOM      8  C   UNL     1       3.063   6.249  18.122  0.00  0.00    +0.000 A 
ATOM      9  C   UNL     1       3.484   4.963  18.418  0.00  0.00    +0.000 A 
ATOM     10  H   UNL     1       2.083   5.769  21.213  0.00  0.00    +0.000 HD
ENDROOT
BRANCH   7  11
ATOM     11  C   UNL     1       1.830   8.064  19.502  0.00  0.00    +0.000 A 
ATOM     12  C   UNL     1       1.760   8.988  18.438  0.00  0.00    +0.000 A 
ATOM     13  C   UNL     1       1.195  10.250  18.620  0.00  0.00    +0.000 A 
ATOM     14  C   UNL     1       0.688  10.621  19.868  0.00  0.00    +0.000 A 
ATOM     15  C   UNL     1       0.747   9.718  20.933  0.00  0.00    +0.000 A 
ATOM     16  C   UNL     1       1.312   8.448  20.756  0.00  0.00    +0.000 A 
BRANCH  14  17
ATOM     17  O   UNL     1       0.143  11.842  20.052  0.00  0.00    +0.000 OA
ATOM     18  H   UNL     1       0.230  12.546  19.394  0.00  0.00    +0.000 HD
ENDBRANCH  14  17
ENDBRANCH   7  11
BRANCH   1  19
ATOM     19  N   UNL     1       4.656   4.212  16.377  0.00  0.00    +0.000 N 
ATOM     20  H   UNL     1       3.977   4.192  15.601  0.00  0.00    +0.000 HD
BRANCH  19  22
ATOM     21  C   UNL     1       6.424   5.887  16.619  0.00  0.00    +0.000 C 
ATOM     22  C   UNL     1       6.063   4.482  16.108  0.00  0.00    +0.000 C 
BRANCH  22  23
ATOM     23  C   UNL     1       6.380   4.356  14.630  0.00  0.00    +0.000 A 
ATOM     24  C   UNL     1       7.421   5.128  14.080  0.00  0.00    +0.000 A 
ATOM     25  C   UNL     1       7.734   5.032  12.722  0.00  0.00    +0.000 A 
ATOM     26  C   UNL     1       7.012   4.170  11.896  0.00  0.00    +0.000 A 
ATOM     27  C   UNL     1       5.974   3.399  12.428  0.00  0.00    +0.000 A 
ATOM     28  F   UNL     1       5.274   2.563  11.622  0.00  0.00    +0.000 F 
ATOM     29  C   UNL     1       5.657   3.488  13.788  0.00  0.00    +0.000 A 
ENDBRANCH  22  23
ENDBRANCH  19  22
ENDBRANCH   1  19
TORSDOF 5
ENDMDL
MODEL 3
REMARK VINA RESULT:      -8.5      2.458      3.593
REMARK  Name = 
REMARK  6 active torsions:
REMARK  status: ('A' for Active; 'I' for Inactive)
REMARK    1  A    between atoms: C_1  and  C_2
REMARK    2  A    between atoms: C_2  and  N_3
REMARK    3  A    between atoms: C_2  and  C_20
REMARK    4  A    between atoms: N_3  and  C_4
REMARK    5  A    between atoms: C_10  and  C_11
REMARK    6  A    between atoms: C_14  and  O_15
REMARK                            x       y       z     vdW  Elec       q    Type
REMARK                         _______ _______ _______ _____ _____    ______ ____
ROOT
ATOM      1  C   UNL     1       3.929   3.585  19.213  0.00  0.00    +0.000 A 
ATOM      2  N   UNL     1       3.784   2.567  20.117  0.00  0.00    +0.000 NA
ATOM      3  C   UNL     1       2.957   2.673  21.200  0.00  0.00    +0.000 A 
ATOM      4  N   UNL     1       2.259   3.822  21.422  0.00  0.00    +0.000 NA
ATOM      5  C   UNL     1       2.402   4.841  20.543  0.00  0.00    +0.000 A 
ATOM      6  N   UNL     1       1.814   6.038  20.633  0.00  0.00    +0.000 N 
ATOM      7  C   UNL     1       2.246   6.755  19.564  0.00  0.00    +0.000 A 
ATOM      8  C   UNL     1       3.117   5.972  18.788  0.00  0.00    +0.000 A 
ATOM      9  C   UNL     1       3.203   4.756  19.445  0.00  0.00    +0.000 A 
ATOM     10  H   UNL     1       1.168   6.326  21.398  0.00  0.00    +0.000 HD
ENDROOT
BRANCH   7  11
ATOM     11  C   UNL     1       1.846   8.171  19.303  0.00  0.00    +0.000 A 
ATOM     12  C   UNL     1       2.209   8.802  18.095  0.00  0.00    +0.000 A 
ATOM     13  C   UNL     1       1.838  10.121  17.834  0.00  0.00    +0.000 A 
ATOM     14  C   UNL     1       1.097  10.842  18.773  0.00  0.00    +0.000 A 
ATOM     15  C   UNL     1       0.726  10.233  19.975  0.00  0.00    +0.000 A 
ATOM     16  C   UNL     1       1.095   8.907  20.242  0.00  0.00    +0.000 A 
BRANCH  14  17
ATOM     17  O   UNL     1       0.735  12.119  18.529  0.00  0.00    +0.000 OA
ATOM     18  H   UNL     1       0.411  12.403  17.662  0.00  0.00    +0.000 HD
ENDBRANCH  14  17
ENDBRANCH   7  11
BRANCH   1  19
ATOM     19  N   UNL     1       4.801   3.436  18.098  0.00  0.00    +0.000 N 
ATOM     20  H   UNL     1       5.256   2.525  17.931  0.00  0.00    +0.000 HD
BRANCH  19  22
ATOM     21  C   UNL     1       5.364   4.001  15.784  0.00  0.00    +0.000 C 
ATOM     22  C   UNL     1       5.033   4.547  17.184  0.00  0.00    +0.000 C 
BRANCH  22  23
ATOM     23  C   UNL     1       6.147   5.450  17.679  0.00  0.00    +0.000 A 
ATOM     24  C   UNL     1       7.019   4.985  18.682  0.00  0.00    +0.000 A 
ATOM     25  C   UNL     1       8.051   5.797  19.157  0.00  0.00    +0.000 A 
ATOM     26  C   UNL     1       8.226   7.082  18.641  0.00  0.00    +0.000 A 
ATOM     27  C   UNL     1       7.366   7.558  17.647  0.00  0.00    +0.000 A 
ATOM     28  F   UNL     1       7.537   8.808  17.149  0.00  0.00    +0.000 F 
ATOM     29  C   UNL     1       6.331   6.749  17.165  0.00  0.00    +0.000 A 
ENDBRANCH  22  23
ENDBRANCH  19  22
ENDBRANCH   1  19
TORSDOF 5
ENDMDL
MODEL 4
REMARK VINA RESULT:      -8.5      2.577      3.484
REMARK  Name = 
REMARK  6 active torsions:
REMARK  status: ('A' for Active; 'I' for Inactive)
REMARK    1  A    between atoms: C_1  and  C_2
REMARK    2  A    between atoms: C_2  and  N_3
REMARK    3  A    between atoms: C_2  and  C_20
REMARK    4  A    between atoms: N_3  and  C_4
REMARK    5  A    between atoms: C_10  and  C_11
REMARK    6  A    between atoms: C_14  and  O_15
REMARK                            x       y       z     vdW  Elec       q    Type
REMARK                         _______ _______ _______ _____ _____    ______ ____
ROOT
ATOM      1  C   UNL     1       3.834   3.541  19.219  0.00  0.00    +0.000 A 
ATOM      2  N   UNL     1       3.736   2.503  20.107  0.00  0.00    +0.000 NA
ATOM      3  C   UNL     1       2.967   2.584  21.233  0.00  0.00    +0.000 A 
ATOM      4  N   UNL     1       2.284   3.728  21.518  0.00  0.00    +0.000 NA
ATOM      5  C   UNL     1       2.381   4.767  20.655  0.00  0.00    +0.000 A 
ATOM      6  N   UNL     1       1.801   5.961  20.804  0.00  0.00    +0.000 N 
ATOM      7  C   UNL     1       2.177   6.702  19.730  0.00  0.00    +0.000 A 
ATOM      8  C   UNL     1       3.005   5.937  18.891  0.00  0.00    +0.000 A 
ATOM      9  C   UNL     1       3.123   4.706  19.515  0.00  0.00    +0.000 A 
ATOM     10  H   UNL     1       1.196   6.233  21.608  0.00  0.00    +0.000 HD
ENDROOT
BRANCH   7  11
ATOM     11  C   UNL     1       1.766   8.124  19.522  0.00  0.00    +0.000 A 
ATOM     12  C   UNL     1       1.135   8.841  20.560  0.00  0.00    +0.000 A 
ATOM     13  C   UNL     1       0.751  10.171  20.383  0.00  0.00    +0.000 A 
ATOM     14  C   UNL     1       0.986  10.814  19.166  0.00  0.00    +0.000 A 
ATOM     15  C   UNL     1       1.611  10.120  18.127  0.00  0.00    +0.000 A 
ATOM     16  C   UNL     1       2.000   8.785  18.299  0.00  0.00    +0.000 A 
BRANCH  14  17
ATOM     17  O   UNL     1       0.615  12.100  18.986  0.00  0.00    +0.000 OA
ATOM     18  H   UNL     1      -0.266  12.338  18.661  0.00  0.00    +0.000 HD
ENDBRANCH  14  17
ENDBRANCH   7  11
BRANCH   1  19
ATOM     19  N   UNL     1       4.646   3.417  18.057  0.00  0.00    +0.000 N 
ATOM     20  H   UNL     1       5.070   2.503  17.833  0.00  0.00    +0.000 HD
BRANCH  19  22
ATOM     21  C   UNL     1       5.119   4.058  15.743  0.00  0.00    +0.000 C 
ATOM     22  C   UNL     1       4.859   4.557  17.175  0.00  0.00    +0.000 C 
BRANCH  22  23
ATOM     23  C   UNL     1       6.009   5.422  17.653  0.00  0.00    +0.000 A 
ATOM     24  C   UNL     1       6.224   6.678  17.053  0.00  0.00    +0.000 A 
ATOM     25  C   UNL     1       7.276   7.494  17.473  0.00  0.00    +0.000 A 
ATOM     26  C   UNL     1       8.128   7.070  18.493  0.00  0.00    +0.000 A 
ATOM     27  C   UNL     1       7.929   5.824  19.096  0.00  0.00    +0.000 A 
ATOM     28  F   UNL     1       8.760   5.414  20.086  0.00  0.00    +0.000 F 
ATOM     29  C   UNL     1       6.875   5.002  18.682  0.00  0.00    +0.000 A 
ENDBRANCH  22  23
ENDBRANCH  19  22
ENDBRANCH   1  19
TORSDOF 5
ENDMDL
MODEL 5
REMARK VINA RESULT:      -8.4      1.056      1.704
REMARK  Name = 
REMARK  6 active torsions:
REMARK  status: ('A' for Active; 'I' for Inactive)
REMARK    1  A    between atoms: C_1  and  C_2
REMARK    2  A    between atoms: C_2  and  N_3
REMARK    3  A    between atoms: C_2  and  C_20
REMARK    4  A    between atoms: N_3  and  C_4
REMARK    5  A    between atoms: C_10  and  C_11
REMARK    6  A    between atoms: C_14  and  O_15
REMARK                            x       y       z     vdW  Elec       q    Type
REMARK                         _______ _______ _______ _____ _____    ______ ____
ROOT
ATOM      1  C   UNL     1       4.070   3.992  17.866  0.00  0.00    +0.000 A 
ATOM      2  N   UNL     1       4.250   2.806  18.525  0.00  0.00    +0.000 NA
ATOM      3  C   UNL     1       3.748   2.590  19.778  0.00  0.00    +0.000 A 
ATOM      4  N   UNL     1       3.063   3.575  20.422  0.00  0.00    +0.000 NA
ATOM      5  C   UNL     1       2.887   4.758  19.787  0.00  0.00    +0.000 A 
ATOM      6  N   UNL     1       2.268   5.829  20.290  0.00  0.00    +0.000 N 
ATOM      7  C   UNL     1       2.338   6.793  19.335  0.00  0.00    +0.000 A 
ATOM      8  C   UNL     1       3.012   6.294  18.208  0.00  0.00    +0.000 A 
ATOM      9  C   UNL     1       3.359   4.993  18.531  0.00  0.00    +0.000 A 
ATOM     10  H   UNL     1       1.839   5.877  21.239  0.00  0.00    +0.000 HD
ENDROOT
BRANCH   7  11
ATOM     11  C   UNL     1       1.786   8.170  19.509  0.00  0.00    +0.000 A 
ATOM     12  C   UNL     1       1.746   9.064  18.418  0.00  0.00    +0.000 A 
ATOM     13  C   UNL     1       1.228  10.351  18.563  0.00  0.00    +0.000 A 
ATOM     14  C   UNL     1       0.739  10.776  19.800  0.00  0.00    +0.000 A 
ATOM     15  C   UNL     1       0.768   9.905  20.892  0.00  0.00    +0.000 A 
ATOM     16  C   UNL     1       1.286   8.610  20.751  0.00  0.00    +0.000 A 
BRANCH  14  17
ATOM     17  O   UNL     1       0.238  12.021  19.949  0.00  0.00    +0.000 OA
ATOM     18  H   UNL     1       0.394  12.718  19.295  0.00  0.00    +0.000 HD
ENDBRANCH  14  17
ENDBRANCH   7  11
BRANCH   1  19
ATOM     19  N   UNL     1       4.609   4.177  16.562  0.00  0.00    +0.000 N 
ATOM     20  H   UNL     1       3.968   4.280  15.760  0.00  0.00    +0.000 HD
BRANCH  19  22
ATOM     21  C   UNL     1       6.614   5.479  17.089  0.00  0.00    +0.000 C 
ATOM     22  C   UNL     1       6.050   4.248  16.358  0.00  0.00    +0.000 C 
BRANCH  22  23
ATOM     23  C   UNL     1       6.401   4.299  14.883  0.00  0.00    +0.000 A 
ATOM     24  C   UNL     1       5.686   3.494  13.975  0.00  0.00    +0.000 A 
ATOM     25  C   UNL     1       5.990   3.521  12.612  0.00  0.00    +0.000 A 
ATOM     26  C   UNL     1       7.009   4.346  12.137  0.00  0.00    +0.000 A 
ATOM     27  C   UNL     1       7.729   5.149  13.027  0.00  0.00    +0.000 A 
ATOM     28  F   UNL     1       8.721   5.949  12.563  0.00  0.00    +0.000 F 
ATOM     29  C   UNL     1       7.429   5.129  14.394  0.00  0.00    +0.000 A 
ENDBRANCH  22  23
ENDBRANCH  19  22
ENDBRANCH   1  19
TORSDOF 5
ENDMDL
MODEL 6
REMARK VINA RESULT:      -8.3      2.433      3.507
REMARK  Name = 
REMARK  6 active torsions:
REMARK  status: ('A' for Active; 'I' for Inactive)
REMARK    1  A    between atoms: C_1  and  C_2
REMARK    2  A    between atoms: C_2  and  N_3
REMARK    3  A    between atoms: C_2  and  C_20
REMARK    4  A    between atoms: N_3  and  C_4
REMARK    5  A    between atoms: C_10  and  C_11
REMARK    6  A    between atoms: C_14  and  O_15
REMARK                            x       y       z     vdW  Elec       q    Type
REMARK                         _______ _______ _______ _____ _____    ______ ____
ROOT
ATOM      1  C   UNL     1       4.001   3.542  18.769  0.00  0.00    +0.000 A 
ATOM      2  N   UNL     1       3.981   2.473  19.625  0.00  0.00    +0.000 NA
ATOM      3  C   UNL     1       3.283   2.499  20.799  0.00  0.00    +0.000 A 
ATOM      4  N   UNL     1       2.595   3.616  21.166  0.00  0.00    +0.000 NA
ATOM      5  C   UNL     1       2.616   4.685  20.335  0.00  0.00    +0.000 A 
ATOM      6  N   UNL     1       2.021   5.860  20.560  0.00  0.00    +0.000 N 
ATOM      7  C   UNL     1       2.312   6.645  19.491  0.00  0.00    +0.000 A 
ATOM      8  C   UNL     1       3.102   5.927  18.576  0.00  0.00    +0.000 A 
ATOM      9  C   UNL     1       3.286   4.679  19.149  0.00  0.00    +0.000 A 
ATOM     10  H   UNL     1       1.462   6.090  21.409  0.00  0.00    +0.000 HD
ENDROOT
BRANCH   7  11
ATOM     11  C   UNL     1       1.858   8.062  19.358  0.00  0.00    +0.000 A 
ATOM     12  C   UNL     1       2.057   8.763  18.149  0.00  0.00    +0.000 A 
ATOM     13  C   UNL     1       1.632  10.084  18.008  0.00  0.00    +0.000 A 
ATOM     14  C   UNL     1       1.002  10.738  19.070  0.00  0.00    +0.000 A 
ATOM     15  C   UNL     1       0.796  10.060  20.274  0.00  0.00    +0.000 A 
ATOM     16  C   UNL     1       1.218   8.731  20.421  0.00  0.00    +0.000 A 
BRANCH  14  17
ATOM     17  O   UNL     1       0.592  12.017  18.942  0.00  0.00    +0.000 OA
ATOM     18  H   UNL     1      -0.347  12.255  18.933  0.00  0.00    +0.000 HD
ENDBRANCH  14  17
ENDBRANCH   7  11
BRANCH   1  19
ATOM     19  N   UNL     1       4.741   3.475  17.555  0.00  0.00    +0.000 N 
ATOM     20  H   UNL     1       5.074   2.560  17.217  0.00  0.00    +0.000 HD
BRANCH  19  22
ATOM     21  C   UNL     1       5.372   4.294  15.336  0.00  0.00    +0.000 C 
ATOM     22  C   UNL     1       5.005   4.680  16.780  0.00  0.00    +0.000 C 
BRANCH  22  23
ATOM     23  C   UNL     1       6.109   5.512  17.404  0.00  0.00    +0.000 A 
ATOM     24  C   UNL     1       6.323   6.828  16.951  0.00  0.00    +0.000 A 
ATOM     25  C   UNL     1       7.334   7.614  17.507  0.00  0.00    +0.000 A 
ATOM     26  C   UNL     1       8.144   7.101  18.520  0.00  0.00    +0.000 A 
ATOM     27  C   UNL     1       7.945   5.795  18.979  0.00  0.00    +0.000 A 
ATOM     28  F   UNL     1       8.736   5.298  19.961  0.00  0.00    +0.000 F 
ATOM     29  C   UNL     1       6.933   5.001  18.427  0.00  0.00    +0.000 A 
ENDBRANCH  22  23
ENDBRANCH  19  22
ENDBRANCH   1  19
TORSDOF 5
ENDMDL
MODEL 7
REMARK VINA RESULT:      -8.3      1.091      1.445
REMARK  Name = 
REMARK  6 active torsions:
REMARK  status: ('A' for Active; 'I' for Inactive)
REMARK    1  A    between atoms: C_1  and  C_2
REMARK    2  A    between atoms: C_2  and  N_3
REMARK    3  A    between atoms: C_2  and  C_20
REMARK    4  A    between atoms: N_3  and  C_4
REMARK    5  A    between atoms: C_10  and  C_11
REMARK    6  A    between atoms: C_14  and  O_15
REMARK                            x       y       z     vdW  Elec       q    Type
REMARK                         _______ _______ _______ _____ _____    ______ ____
ROOT
ATOM      1  C   UNL     1       3.959   4.168  17.673  0.00  0.00    +0.000 A 
ATOM      2  N   UNL     1       3.998   2.841  18.010  0.00  0.00    +0.000 NA
ATOM      3  C   UNL     1       3.346   2.352  19.107  0.00  0.00    +0.000 A 
ATOM      4  N   UNL     1       2.645   3.191  19.920  0.00  0.00    +0.000 NA
ATOM      5  C   UNL     1       2.607   4.508  19.606  0.00  0.00    +0.000 A 
ATOM      6  N   UNL     1       1.992   5.461  20.312  0.00  0.00    +0.000 N 
ATOM      7  C   UNL     1       2.222   6.628  19.657  0.00  0.00    +0.000 A 
ATOM      8  C   UNL     1       2.993   6.383  18.508  0.00  0.00    +0.000 A 
ATOM      9  C   UNL     1       3.230   5.018  18.508  0.00  0.00    +0.000 A 
ATOM     10  H   UNL     1       1.461   5.298  21.194  0.00  0.00    +0.000 HD
ENDROOT
BRANCH   7  11
ATOM     11  C   UNL     1       1.729   7.955  20.135  0.00  0.00    +0.000 A 
ATOM     12  C   UNL     1       1.508   8.179  21.510  0.00  0.00    +0.000 A 
ATOM     13  C   UNL     1       1.053   9.415  21.972  0.00  0.00    +0.000 A 
ATOM     14  C   UNL     1       0.807  10.454  21.072  0.00  0.00    +0.000 A 
ATOM     15  C   UNL     1       1.021  10.251  19.706  0.00  0.00    +0.000 A 
ATOM     16  C   UNL     1       1.479   9.012  19.237  0.00  0.00    +0.000 A 
BRANCH  14  17
ATOM     17  O   UNL     1       0.364  11.652  21.510  0.00  0.00    +0.000 OA
ATOM     18  H   UNL     1       0.902  12.218  22.082  0.00  0.00    +0.000 HD
ENDBRANCH  14  17
ENDBRANCH   7  11
BRANCH   1  19
ATOM     19  N   UNL     1       4.652   4.637  16.523  0.00  0.00    +0.000 N 
ATOM     20  H   UNL     1       4.154   5.229  15.840  0.00  0.00    +0.000 HD
BRANCH  19  22
ATOM     21  C   UNL     1       6.935   5.289  17.118  0.00  0.00    +0.000 C 
ATOM     22  C   UNL     1       6.057   4.310  16.319  0.00  0.00    +0.000 C 
BRANCH  22  23
ATOM     23  C   UNL     1       6.427   4.343  14.849  0.00  0.00    +0.000 A 
ATOM     24  C   UNL     1       5.736   3.516  13.943  0.00  0.00    +0.000 A 
ATOM     25  C   UNL     1       6.058   3.525  12.584  0.00  0.00    +0.000 A 
ATOM     26  C   UNL     1       7.073   4.357  12.111  0.00  0.00    +0.000 A 
ATOM     27  C   UNL     1       7.771   5.182  12.999  0.00  0.00    +0.000 A 
ATOM     28  F   UNL     1       8.759   5.988  12.536  0.00  0.00    +0.000 F 
ATOM     29  C   UNL     1       7.452   5.179  14.361  0.00  0.00    +0.000 A 
ENDBRANCH  22  23
ENDBRANCH  19  22
ENDBRANCH   1  19
TORSDOF 5
ENDMDL
MODEL 8
REMARK VINA RESULT:      -8.2      2.960      5.462
REMARK  Name = 
REMARK  6 active torsions:
REMARK  status: ('A' for Active; 'I' for Inactive)
REMARK    1  A    between atoms: C_1  and  C_2
REMARK    2  A    between atoms: C_2  and  N_3
REMARK    3  A    between atoms: C_2  and  C_20
REMARK    4  A    between atoms: N_3  and  C_4
REMARK    5  A    between atoms: C_10  and  C_11
REMARK    6  A    between atoms: C_14  and  O_15
REMARK                            x       y       z     vdW  Elec       q    Type
REMARK                         _______ _______ _______ _____ _____    ______ ____
ROOT
ATOM      1  C   UNL     1       5.443   4.413  17.599  0.00  0.00    +0.000 A 
ATOM      2  N   UNL     1       6.347   4.334  16.572  0.00  0.00    +0.000 NA
ATOM      3  C   UNL     1       6.526   5.358  15.686  0.00  0.00    +0.000 A 
ATOM      4  N   UNL     1       5.783   6.495  15.789  0.00  0.00    +0.000 NA
ATOM      5  C   UNL     1       4.877   6.583  16.792  0.00  0.00    +0.000 A 
ATOM      6  N   UNL     1       4.054   7.611  17.013  0.00  0.00    +0.000 N 
ATOM      7  C   UNL     1       3.308   7.276  18.097  0.00  0.00    +0.000 A 
ATOM      8  C   UNL     1       3.693   6.007  18.563  0.00  0.00    +0.000 A 
ATOM      9  C   UNL     1       4.692   5.586  17.702  0.00  0.00    +0.000 A 
ATOM     10  H   UNL     1       4.016   8.477  16.434  0.00  0.00    +0.000 HD
ENDROOT
BRANCH   7  11
ATOM     11  C   UNL     1       2.235   8.147  18.663  0.00  0.00    +0.000 A 
ATOM     12  C   UNL     1       1.564   9.077  17.840  0.00  0.00    +0.000 A 
ATOM     13  C   UNL     1       0.555   9.892  18.354  0.00  0.00    +0.000 A 
ATOM     14  C   UNL     1       0.194   9.801  19.700  0.00  0.00    +0.000 A 
ATOM     15  C   UNL     1       0.846   8.885  20.530  0.00  0.00    +0.000 A 
ATOM     16  C   UNL     1       1.858   8.062  20.019  0.00  0.00    +0.000 A 
BRANCH  14  17
ATOM     17  O   UNL     1      -0.779  10.589  20.204  0.00  0.00    +0.000 OA
ATOM     18  H   UNL     1      -1.712  10.456  19.983  0.00  0.00    +0.000 HD
ENDBRANCH  14  17
ENDBRANCH   7  11
BRANCH   1  19
ATOM     19  N   UNL     1       5.286   3.324  18.501  0.00  0.00    +0.000 N 
ATOM     20  H   UNL     1       5.914   3.249  19.316  0.00  0.00    +0.000 HD
BRANCH  19  22
ATOM     21  C   UNL     1       3.811   2.335  16.817  0.00  0.00    +0.000 C 
ATOM     22  C   UNL     1       4.235   2.337  18.296  0.00  0.00    +0.000 C 
BRANCH  22  23
ATOM     23  C   UNL     1       3.040   2.604  19.191  0.00  0.00    +0.000 A 
ATOM     24  C   UNL     1       1.743   2.556  18.644  0.00  0.00    +0.000 A 
ATOM     25  C   UNL     1       0.625   2.800  19.445  0.00  0.00    +0.000 A 
ATOM     26  C   UNL     1       0.785   3.096  20.799  0.00  0.00    +0.000 A 
ATOM     27  C   UNL     1       2.066   3.150  21.356  0.00  0.00    +0.000 A 
ATOM     28  F   UNL     1       2.218   3.440  22.671  0.00  0.00    +0.000 F 
ATOM     29  C   UNL     1       3.191   2.905  20.559  0.00  0.00    +0.000 A 
ENDBRANCH  22  23
ENDBRANCH  19  22
ENDBRANCH   1  19
TORSDOF 5
ENDMDL
MODEL 9
REMARK VINA RESULT:      -8.1      2.720      5.281
REMARK  Name = 
REMARK  6 active torsions:
REMARK  status: ('A' for Active; 'I' for Inactive)
REMARK    1  A    between atoms: C_1  and  C_2
REMARK    2  A    between atoms: C_2  and  N_3
REMARK    3  A    between atoms: C_2  and  C_20
REMARK    4  A    between atoms: N_3  and  C_4
REMARK    5  A    between atoms: C_10  and  C_11
REMARK    6  A    between atoms: C_14  and  O_15
REMARK                            x       y       z     vdW  Elec       q    Type
REMARK                         _______ _______ _______ _____ _____    ______ ____
ROOT
ATOM      1  C   UNL     1       5.529   4.440  17.764  0.00  0.00    +0.000 A 
ATOM      2  N   UNL     1       6.413   4.327  16.725  0.00  0.00    +0.000 NA
ATOM      3  C   UNL     1       6.544   5.300  15.775  0.00  0.00    +0.000 A 
ATOM      4  N   UNL     1       5.769   6.420  15.828  0.00  0.00    +0.000 NA
ATOM      5  C   UNL     1       4.882   6.541  16.843  0.00  0.00    +0.000 A 
ATOM      6  N   UNL     1       4.033   7.557  17.021  0.00  0.00    +0.000 N 
ATOM      7  C   UNL     1       3.319   7.265  18.138  0.00  0.00    +0.000 A 
ATOM      8  C   UNL     1       3.751   6.038  18.670  0.00  0.00    +0.000 A 
ATOM      9  C   UNL     1       4.745   5.596  17.814  0.00  0.00    +0.000 A 
ATOM     10  H   UNL     1       3.957   8.385  16.392  0.00  0.00    +0.000 HD
ENDROOT
BRANCH   7  11
ATOM     11  C   UNL     1       2.232   8.138  18.676  0.00  0.00    +0.000 A 
ATOM     12  C   UNL     1       1.850   8.047  20.031  0.00  0.00    +0.000 A 
ATOM     13  C   UNL     1       0.841   8.860  20.549  0.00  0.00    +0.000 A 
ATOM     14  C   UNL     1       0.188   9.780  19.726  0.00  0.00    +0.000 A 
ATOM     15  C   UNL     1       0.554   9.886  18.381  0.00  0.00    +0.000 A 
ATOM     16  C   UNL     1       1.568   9.074  17.856  0.00  0.00    +0.000 A 
BRANCH  14  17
ATOM     17  O   UNL     1      -0.791  10.568  20.218  0.00  0.00    +0.000 OA
ATOM     18  H   UNL     1      -1.072  10.517  21.143  0.00  0.00    +0.000 HD
ENDBRANCH  14  17
ENDBRANCH   7  11
BRANCH   1  19
ATOM     19  N   UNL     1       5.422   3.403  18.732  0.00  0.00    +0.000 N 
ATOM     20  H   UNL     1       6.047   3.412  19.553  0.00  0.00    +0.000 HD
BRANCH  19  22
ATOM     21  C   UNL     1       3.937   2.304  17.128  0.00  0.00    +0.000 C 
ATOM     22  C   UNL     1       4.425   2.351  18.586  0.00  0.00    +0.000 C 
BRANCH  22  23
ATOM     23  C   UNL     1       3.257   2.557  19.531  0.00  0.00    +0.000 A 
ATOM     24  C   UNL     1       3.489   2.587  20.920  0.00  0.00    +0.000 A 
ATOM     25  C   UNL     1       2.431   2.773  21.812  0.00  0.00    +0.000 A 
ATOM     26  C   UNL     1       1.130   2.929  21.334  0.00  0.00    +0.000 A 
ATOM     27  C   UNL     1       0.884   2.898  19.957  0.00  0.00    +0.000 A 
ATOM     28  F   UNL     1      -0.382   3.047  19.496  0.00  0.00    +0.000 F 
ATOM     29  C   UNL     1       1.939   2.714  19.058  0.00  0.00    +0.000 A 
ENDBRANCH  22  23
ENDBRANCH  19  22
ENDBRANCH   1  19
TORSDOF 5
ENDMDL
