MODEL 1
REMARK VINA RESULT:      -7.0      0.000      0.000
REMARK  Name = 
REMARK  2 active torsions:
REMARK  status: ('A' for Active; 'I' for Inactive)
REMARK    1  A    between atoms: C_9  and  O_10
REMARK    2  A    between atoms: C_11  and  O_12
REMARK                            x       y       z     vdW  Elec       q    Type
REMARK                         _______ _______ _______ _____ _____    ______ ____
ROOT
ATOM      1  O   UNL     1       2.239   4.845  21.462  0.00  0.00    +0.000 OA
ATOM      2  C   UNL     1       2.617   5.137  20.325  0.00  0.00    +0.000 C 
ATOM      3  C   UNL     1       2.305   6.462  19.714  0.00  0.00    +0.000 C 
ATOM      4  C   UNL     1       2.906   6.822  18.558  0.00  0.00    +0.000 C 
ATOM      5  S   UNL     1       2.920   8.429  17.944  0.00  0.00    +0.000 S 
ATOM      6  C   UNL     1       1.476   9.113  18.779  0.00  0.00    +0.000 C 
ATOM      7  O   UNL     1       1.552  10.541  18.760  0.00  0.00    +0.000 OA
ATOM      8  C   UNL     1       0.381  11.166  19.278  0.00  0.00    +0.000 C 
ATOM      9  C   UNL     1       0.070  10.715  20.706  0.00  0.00    +0.000 C 
ATOM     10  C   UNL     1       0.035   9.178  20.771  0.00  0.00    +0.000 C 
ATOM     11  C   UNL     1       1.376   8.625  20.231  0.00  0.00    +0.000 C 
ATOM     12  O   UNL     1       1.384   7.215  20.411  0.00  0.00    +0.000 OA
ATOM     13  C   UNL     1       3.529   5.770  17.697  0.00  0.00    +0.000 C 
ATOM     14  O   UNL     1       4.127   6.008  16.660  0.00  0.00    +0.000 OA
ATOM     15  C   UNL     1       3.344   4.391  18.140  0.00  0.00    +0.000 A 
ATOM     16  C   UNL     1       3.165   3.350  17.235  0.00  0.00    +0.000 A 
ATOM     17  C   UNL     1       3.049   2.043  17.720  0.00  0.00    +0.000 A 
ATOM     18  C   UNL     1       3.265   1.776  19.076  0.00  0.00    +0.000 A 
ATOM     19  C   UNL     1       3.397   2.822  19.978  0.00  0.00    +0.000 A 
ATOM     20  C   UNL     1       3.270   4.124  19.496  0.00  0.00    +0.000 A 
ENDROOT
BRANCH   9  21
ATOM     21  O   UNL     1      -1.149  11.301  21.151  0.00  0.00    +0.000 OA
ATOM     22  H   UNL     1      -1.876  10.674  20.997  0.00  0.00    +0.000 HD
ENDBRANCH   9  21
BRANCH  10  23
ATOM     23  O   UNL     1      -0.251   8.733  22.095  0.00  0.00    +0.000 OA
ATOM     24  H   UNL     1       0.579   8.595  22.578  0.00  0.00    +0.000 HD
ENDBRANCH  10  23
TORSDOF 2
ENDMDL
MODEL 2
REMARK VINA RESULT:      -6.9      4.819      7.262
REMARK  Name = 
REMARK  2 active torsions:
REMARK  status: ('A' for Active; 'I' for Inactive)
REMARK    1  A    between atoms: C_9  and  O_10
REMARK    2  A    between atoms: C_11  and  O_12
REMARK                            x       y       z     vdW  Elec       q    Type
REMARK                         _______ _______ _______ _____ _____    ______ ____
ROOT
ATOM      1  O   UNL     1       2.170   3.452  16.518  0.00  0.00    +0.000 OA
ATOM      2  C   UNL     1       3.066   3.837  17.272  0.00  0.00    +0.000 C 
ATOM      3  C   UNL     1       4.412   4.220  16.754  0.00  0.00    +0.000 C 
ATOM      4  C   UNL     1       5.295   4.828  17.577  0.00  0.00    +0.000 C 
ATOM      5  S   UNL     1       6.715   5.634  17.034  0.00  0.00    +0.000 S 
ATOM      6  C   UNL     1       6.957   4.834  15.436  0.00  0.00    +0.000 C 
ATOM      7  O   UNL     1       7.811   5.647  14.626  0.00  0.00    +0.000 OA
ATOM      8  C   UNL     1       8.166   5.022  13.396  0.00  0.00    +0.000 C 
ATOM      9  C   UNL     1       6.938   4.635  12.570  0.00  0.00    +0.000 C 
ATOM     10  C   UNL     1       5.972   3.804  13.432  0.00  0.00    +0.000 C 
ATOM     11  C   UNL     1       5.624   4.608  14.707  0.00  0.00    +0.000 C 
ATOM     12  O   UNL     1       4.637   3.889  15.434  0.00  0.00    +0.000 OA
ATOM     13  C   UNL     1       5.101   4.736  19.057  0.00  0.00    +0.000 C 
ATOM     14  O   UNL     1       5.825   5.286  19.872  0.00  0.00    +0.000 OA
ATOM     15  C   UNL     1       3.999   3.890  19.505  0.00  0.00    +0.000 A 
ATOM     16  C   UNL     1       4.089   3.121  20.660  0.00  0.00    +0.000 A 
ATOM     17  C   UNL     1       2.979   2.375  21.067  0.00  0.00    +0.000 A 
ATOM     18  C   UNL     1       1.754   2.524  20.407  0.00  0.00    +0.000 A 
ATOM     19  C   UNL     1       1.682   3.257  19.231  0.00  0.00    +0.000 A 
ATOM     20  C   UNL     1       2.864   3.793  18.720  0.00  0.00    +0.000 A 
ENDROOT
BRANCH   9  21
ATOM     21  O   UNL     1       7.339   3.944  11.391  0.00  0.00    +0.000 OA
ATOM     22  H   UNL     1       7.729   3.089  11.643  0.00  0.00    +0.000 HD
ENDBRANCH   9  21
BRANCH  10  23
ATOM     23  O   UNL     1       4.818   3.431  12.683  0.00  0.00    +0.000 OA
ATOM     24  H   UNL     1       5.048   3.363  11.743  0.00  0.00    +0.000 HD
ENDBRANCH  10  23
TORSDOF 2
ENDMDL
MODEL 3
REMARK VINA RESULT:      -6.5      2.037      3.490
REMARK  Name = 
REMARK  2 active torsions:
REMARK  status: ('A' for Active; 'I' for Inactive)
REMARK    1  A    between atoms: C_9  and  O_10
REMARK    2  A    between atoms: C_11  and  O_12
REMARK                            x       y       z     vdW  Elec       q    Type
REMARK                         _______ _______ _______ _____ _____    ______ ____
ROOT
ATOM      1  O   UNL     1       3.968   7.638  16.107  0.00  0.00    +0.000 OA
ATOM      2  C   UNL     1       3.969   6.869  17.070  0.00  0.00    +0.000 C 
ATOM      3  C   UNL     1       3.158   7.144  18.292  0.00  0.00    +0.000 C 
ATOM      4  C   UNL     1       3.024   6.184  19.234  0.00  0.00    +0.000 C 
ATOM      5  S   UNL     1       1.851   6.231  20.491  0.00  0.00    +0.000 S 
ATOM      6  C   UNL     1       1.513   8.001  20.561  0.00  0.00    +0.000 C 
ATOM      7  O   UNL     1       0.263   8.218  21.221  0.00  0.00    +0.000 OA
ATOM      8  C   UNL     1      -0.015   9.597  21.443  0.00  0.00    +0.000 C 
ATOM      9  C   UNL     1      -0.007  10.403  20.142  0.00  0.00    +0.000 C 
ATOM     10  C   UNL     1       1.305  10.149  19.381  0.00  0.00    +0.000 C 
ATOM     11  C   UNL     1       1.467   8.626  19.159  0.00  0.00    +0.000 C 
ATOM     12  O   UNL     1       2.613   8.410  18.348  0.00  0.00    +0.000 OA
ATOM     13  C   UNL     1       3.995   5.047  19.265  0.00  0.00    +0.000 C 
ATOM     14  O   UNL     1       3.926   4.117  20.054  0.00  0.00    +0.000 OA
ATOM     15  C   UNL     1       5.097   5.122  18.311  0.00  0.00    +0.000 A 
ATOM     16  C   UNL     1       6.373   4.669  18.629  0.00  0.00    +0.000 A 
ATOM     17  C   UNL     1       7.372   4.716  17.652  0.00  0.00    +0.000 A 
ATOM     18  C   UNL     1       7.051   5.068  16.336  0.00  0.00    +0.000 A 
ATOM     19  C   UNL     1       5.788   5.561  16.036  0.00  0.00    +0.000 A 
ATOM     20  C   UNL     1       4.884   5.727  17.084  0.00  0.00    +0.000 A 
ENDROOT
BRANCH   9  21
ATOM     21  O   UNL     1      -0.209  11.785  20.421  0.00  0.00    +0.000 OA
ATOM     22  H   UNL     1       0.142  12.311  19.683  0.00  0.00    +0.000 HD
ENDBRANCH   9  21
BRANCH  10  23
ATOM     23  O   UNL     1       1.336  10.889  18.163  0.00  0.00    +0.000 OA
ATOM     24  H   UNL     1       2.070  10.575  17.610  0.00  0.00    +0.000 HD
ENDBRANCH  10  23
TORSDOF 2
ENDMDL
MODEL 4
REMARK VINA RESULT:      -6.5      2.402      6.430
REMARK  Name = 
REMARK  2 active torsions:
REMARK  status: ('A' for Active; 'I' for Inactive)
REMARK    1  A    between atoms: C_9  and  O_10
REMARK    2  A    between atoms: C_11  and  O_12
REMARK                            x       y       z     vdW  Elec       q    Type
REMARK                         _______ _______ _______ _____ _____    ______ ____
ROOT
ATOM      1  O   UNL     1       1.952   5.740  21.035  0.00  0.00    +0.000 OA
ATOM      2  C   UNL     1       1.941   6.685  20.244  0.00  0.00    +0.000 C 
ATOM      3  C   UNL     1       2.962   6.814  19.164  0.00  0.00    +0.000 C 
ATOM      4  C   UNL     1       2.797   7.744  18.197  0.00  0.00    +0.000 C 
ATOM      5  S   UNL     1       3.684   7.763  16.724  0.00  0.00    +0.000 S 
ATOM      6  C   UNL     1       5.140   6.812  17.202  0.00  0.00    +0.000 C 
ATOM      7  O   UNL     1       5.798   6.332  16.027  0.00  0.00    +0.000 OA
ATOM      8  C   UNL     1       7.036   5.686  16.310  0.00  0.00    +0.000 C 
ATOM      9  C   UNL     1       6.867   4.518  17.283  0.00  0.00    +0.000 C 
ATOM     10  C   UNL     1       6.113   4.991  18.538  0.00  0.00    +0.000 C 
ATOM     11  C   UNL     1       4.770   5.625  18.103  0.00  0.00    +0.000 C 
ATOM     12  O   UNL     1       4.026   5.943  19.271  0.00  0.00    +0.000 OA
ATOM     13  C   UNL     1       1.859   8.886  18.430  0.00  0.00    +0.000 C 
ATOM     14  O   UNL     1       1.619   9.747  17.599  0.00  0.00    +0.000 OA
ATOM     15  C   UNL     1       1.259   8.957  19.759  0.00  0.00    +0.000 A 
ATOM     16  C   UNL     1       1.015  10.173  20.388  0.00  0.00    +0.000 A 
ATOM     17  C   UNL     1       0.386  10.177  21.636  0.00  0.00    +0.000 A 
ATOM     18  C   UNL     1      -0.128   8.988  22.167  0.00  0.00    +0.000 A 
ATOM     19  C   UNL     1       0.158   7.775  21.557  0.00  0.00    +0.000 A 
ATOM     20  C   UNL     1       0.993   7.783  20.440  0.00  0.00    +0.000 A 
ENDROOT
BRANCH   9  21
ATOM     21  O   UNL     1       8.138   3.956  17.598  0.00  0.00    +0.000 OA
ATOM     22  H   UNL     1       8.102   2.995  17.454  0.00  0.00    +0.000 HD
ENDBRANCH   9  21
BRANCH  10  23
ATOM     23  O   UNL     1       5.942   3.918  19.461  0.00  0.00    +0.000 OA
ATOM     24  H   UNL     1       5.478   3.185  19.026  0.00  0.00    +0.000 HD
ENDBRANCH  10  23
TORSDOF 2
ENDMDL
MODEL 5
REMARK VINA RESULT:      -6.4      1.636      6.942
REMARK  Name = 
REMARK  2 active torsions:
REMARK  status: ('A' for Active; 'I' for Inactive)
REMARK    1  A    between atoms: C_9  and  O_10
REMARK    2  A    between atoms: C_11  and  O_12
REMARK                            x       y       z     vdW  Elec       q    Type
REMARK                         _______ _______ _______ _____ _____    ______ ____
ROOT
ATOM      1  O   UNL     1      -0.491   8.663  22.314  0.00  0.00    +0.000 OA
ATOM      2  C   UNL     1      -0.131   9.417  21.408  0.00  0.00    +0.000 C 
ATOM      3  C   UNL     1       0.846   8.980  20.368  0.00  0.00    +0.000 C 
ATOM      4  C   UNL     1       1.057   9.757  19.282  0.00  0.00    +0.000 C 
ATOM      5  S   UNL     1       1.864   9.220  17.861  0.00  0.00    +0.000 S 
ATOM      6  C   UNL     1       2.823   7.846  18.526  0.00  0.00    +0.000 C 
ATOM      7  O   UNL     1       3.224   6.987  17.455  0.00  0.00    +0.000 OA
ATOM      8  C   UNL     1       4.103   5.948  17.876  0.00  0.00    +0.000 C 
ATOM      9  C   UNL     1       3.492   5.089  18.984  0.00  0.00    +0.000 C 
ATOM     10  C   UNL     1       3.002   5.990  20.130  0.00  0.00    +0.000 C 
ATOM     11  C   UNL     1       2.019   7.038  19.556  0.00  0.00    +0.000 C 
ATOM     12  O   UNL     1       1.476   7.783  20.637  0.00  0.00    +0.000 OA
ATOM     13  C   UNL     1       0.655  11.197  19.322  0.00  0.00    +0.000 C 
ATOM     14  O   UNL     1       0.771  11.960  18.375  0.00  0.00    +0.000 OA
ATOM     15  C   UNL     1       0.146  11.683  20.601  0.00  0.00    +0.000 A 
ATOM     16  C   UNL     1       0.414  12.970  21.054  0.00  0.00    +0.000 A 
ATOM     17  C   UNL     1      -0.150  13.395  22.261  0.00  0.00    +0.000 A 
ATOM     18  C   UNL     1      -1.090  12.592  22.917  0.00  0.00    +0.000 A 
ATOM     19  C   UNL     1      -1.318  11.293  22.485  0.00  0.00    +0.000 A 
ATOM     20  C   UNL     1      -0.561  10.816  21.416  0.00  0.00    +0.000 A 
ENDROOT
BRANCH   9  21
ATOM     21  O   UNL     1       4.436   4.118  19.427  0.00  0.00    +0.000 OA
ATOM     22  H   UNL     1       3.959   3.318  19.706  0.00  0.00    +0.000 HD
ENDBRANCH   9  21
BRANCH  10  23
ATOM     23  O   UNL     1       2.426   5.211  21.176  0.00  0.00    +0.000 OA
ATOM     24  H   UNL     1       3.063   4.541  21.471  0.00  0.00    +0.000 HD
ENDBRANCH  10  23
TORSDOF 2
ENDMDL
MODEL 6
REMARK VINA RESULT:      -6.2      4.463      6.991
REMARK  Name = 
REMARK  2 active torsions:
REMARK  status: ('A' for Active; 'I' for Inactive)
REMARK    1  A    between atoms: C_9  and  O_10
REMARK    2  A    between atoms: C_11  and  O_12
REMARK                            x       y       z     vdW  Elec       q    Type
REMARK                         _______ _______ _______ _____ _____    ______ ____
ROOT
ATOM      1  O   UNL     1      -0.715   9.626  23.419  0.00  0.00    +0.000 OA
ATOM      2  C   UNL     1      -0.379  10.401  22.522  0.00  0.00    +0.000 C 
ATOM      3  C   UNL     1      -1.118  11.672  22.268  0.00  0.00    +0.000 C 
ATOM      4  C   UNL     1      -0.600  12.587  21.418  0.00  0.00    +0.000 C 
ATOM      5  S   UNL     1      -1.148  14.214  21.310  0.00  0.00    +0.000 S 
ATOM      6  C   UNL     1      -2.812  14.047  21.983  0.00  0.00    +0.000 C 
ATOM      7  O   UNL     1      -3.288  15.331  22.394  0.00  0.00    +0.000 OA
ATOM      8  C   UNL     1      -4.650  15.312  22.811  0.00  0.00    +0.000 C 
ATOM      9  C   UNL     1      -4.890  14.319  23.950  0.00  0.00    +0.000 C 
ATOM     10  C   UNL     1      -4.340  12.936  23.560  0.00  0.00    +0.000 C 
ATOM     11  C   UNL     1      -2.847  13.083  23.178  0.00  0.00    +0.000 C 
ATOM     12  O   UNL     1      -2.316  11.786  22.942  0.00  0.00    +0.000 OA
ATOM     13  C   UNL     1       0.453  12.168  20.442  0.00  0.00    +0.000 C 
ATOM     14  O   UNL     1       1.004  12.935  19.668  0.00  0.00    +0.000 OA
ATOM     15  C   UNL     1       0.771  10.743  20.418  0.00  0.00    +0.000 A 
ATOM     16  C   UNL     1       1.086  10.083  19.236  0.00  0.00    +0.000 A 
ATOM     17  C   UNL     1       1.436   8.731  19.287  0.00  0.00    +0.000 A 
ATOM     18  C   UNL     1       1.616   8.099  20.522  0.00  0.00    +0.000 A 
ATOM     19  C   UNL     1       1.257   8.749  21.695  0.00  0.00    +0.000 A 
ATOM     20  C   UNL     1       0.684  10.016  21.592  0.00  0.00    +0.000 A 
ENDROOT
BRANCH   9  21
ATOM     21  O   UNL     1      -6.275  14.275  24.277  0.00  0.00    +0.000 OA
ATOM     22  H   UNL     1      -6.611  13.378  24.109  0.00  0.00    +0.000 HD
ENDBRANCH   9  21
BRANCH  10  23
ATOM     23  O   UNL     1      -4.550  11.993  24.607  0.00  0.00    +0.000 OA
ATOM     24  H   UNL     1      -4.615  12.458  25.456  0.00  0.00    +0.000 HD
ENDBRANCH  10  23
TORSDOF 2
ENDMDL
MODEL 7
REMARK VINA RESULT:      -6.2      4.997      7.635
REMARK  Name = 
REMARK  2 active torsions:
REMARK  status: ('A' for Active; 'I' for Inactive)
REMARK    1  A    between atoms: C_9  and  O_10
REMARK    2  A    between atoms: C_11  and  O_12
REMARK                            x       y       z     vdW  Elec       q    Type
REMARK                         _______ _______ _______ _____ _____    ______ ____
ROOT
ATOM      1  O   UNL     1      -0.859  10.244  23.576  0.00  0.00    +0.000 OA
ATOM      2  C   UNL     1      -0.824  10.914  22.541  0.00  0.00    +0.000 C 
ATOM      3  C   UNL     1      -1.870  11.933  22.234  0.00  0.00    +0.000 C 
ATOM      4  C   UNL     1      -1.687  12.785  21.200  0.00  0.00    +0.000 C 
ATOM      5  S   UNL     1      -2.616  14.213  20.959  0.00  0.00    +0.000 S 
ATOM      6  C   UNL     1      -4.102  13.801  21.893  0.00  0.00    +0.000 C 
ATOM      7  O   UNL     1      -4.819  15.001  22.195  0.00  0.00    +0.000 OA
ATOM      8  C   UNL     1      -6.079  14.755  22.812  0.00  0.00    +0.000 C 
ATOM      9  C   UNL     1      -5.940  13.937  24.098  0.00  0.00    +0.000 C 
ATOM     10  C   UNL     1      -5.126  12.662  23.818  0.00  0.00    +0.000 C 
ATOM     11  C   UNL     1      -3.766  13.064  23.198  0.00  0.00    +0.000 C 
ATOM     12  O   UNL     1      -2.973  11.894  23.061  0.00  0.00    +0.000 OA
ATOM     13  C   UNL     1      -0.686  12.449  20.141  0.00  0.00    +0.000 C 
ATOM     14  O   UNL     1      -0.428  13.178  19.196  0.00  0.00    +0.000 OA
ATOM     15  C   UNL     1      -0.043  11.144  20.261  0.00  0.00    +0.000 A 
ATOM     16  C   UNL     1       0.280  10.382  19.144  0.00  0.00    +0.000 A 
ATOM     17  C   UNL     1       0.946   9.166  19.323  0.00  0.00    +0.000 A 
ATOM     18  C   UNL     1       1.415   8.802  20.591  0.00  0.00    +0.000 A 
ATOM     19  C   UNL     1       1.050   9.543  21.706  0.00  0.00    +0.000 A 
ATOM     20  C   UNL     1       0.184  10.620  21.522  0.00  0.00    +0.000 A 
ENDROOT
BRANCH   9  21
ATOM     21  O   UNL     1      -7.227  13.647  24.634  0.00  0.00    +0.000 OA
ATOM     22  H   UNL     1      -7.140  13.472  25.587  0.00  0.00    +0.000 HD
ENDBRANCH   9  21
BRANCH  10  23
ATOM     23  O   UNL     1      -4.982  11.882  25.003  0.00  0.00    +0.000 OA
ATOM     24  H   UNL     1      -4.057  11.603  25.098  0.00  0.00    +0.000 HD
ENDBRANCH  10  23
TORSDOF 2
ENDMDL
MODEL 8
REMARK VINA RESULT:      -6.1      9.124      9.831
REMARK  Name = 
REMARK  2 active torsions:
REMARK  status: ('A' for Active; 'I' for Inactive)
REMARK    1  A    between atoms: C_9  and  O_10
REMARK    2  A    between atoms: C_11  and  O_12
REMARK                            x       y       z     vdW  Elec       q    Type
REMARK                         _______ _______ _______ _____ _____    ______ ____
ROOT
ATOM      1  O   UNL     1       9.457  12.634  21.959  0.00  0.00    +0.000 OA
ATOM      2  C   UNL     1       9.440  13.297  20.920  0.00  0.00    +0.000 C 
ATOM      3  C   UNL     1       8.260  14.129  20.542  0.00  0.00    +0.000 C 
ATOM      4  C   UNL     1       8.358  14.996  19.510  0.00  0.00    +0.000 C 
ATOM      5  S   UNL     1       7.222  16.250  19.200  0.00  0.00    +0.000 S 
ATOM      6  C   UNL     1       5.773  15.601  20.055  0.00  0.00    +0.000 C 
ATOM      7  O   UNL     1       4.853  16.668  20.301  0.00  0.00    +0.000 OA
ATOM      8  C   UNL     1       3.617  16.218  20.851  0.00  0.00    +0.000 C 
ATOM      9  C   UNL     1       3.815  15.438  22.152  0.00  0.00    +0.000 C 
ATOM     10  C   UNL     1       4.843  14.314  21.933  0.00  0.00    +0.000 C 
ATOM     11  C   UNL     1       6.151  14.934  21.385  0.00  0.00    +0.000 C 
ATOM     12  O   UNL     1       7.133  13.910  21.307  0.00  0.00    +0.000 OA
ATOM     13  C   UNL     1       9.459  14.828  18.512  0.00  0.00    +0.000 C 
ATOM     14  O   UNL     1       9.647  15.586  17.574  0.00  0.00    +0.000 OA
ATOM     15  C   UNL     1      10.301  13.647  18.684  0.00  0.00    +0.000 A 
ATOM     16  C   UNL     1      10.808  12.945  17.596  0.00  0.00    +0.000 A 
ATOM     17  C   UNL     1      11.655  11.857  17.827  0.00  0.00    +0.000 A 
ATOM     18  C   UNL     1      12.104  11.579  19.123  0.00  0.00    +0.000 A 
ATOM     19  C   UNL     1      11.559  12.253  20.207  0.00  0.00    +0.000 A 
ATOM     20  C   UNL     1      10.539  13.171  19.962  0.00  0.00    +0.000 A 
ENDROOT
BRANCH   9  21
ATOM     21  O   UNL     1       2.565  14.941  22.619  0.00  0.00    +0.000 OA
ATOM     22  H   UNL     1       2.403  14.069  22.222  0.00  0.00    +0.000 HD
ENDBRANCH   9  21
BRANCH  10  23
ATOM     23  O   UNL     1       5.046  13.573  23.134  0.00  0.00    +0.000 OA
ATOM     24  H   UNL     1       5.297  12.661  22.914  0.00  0.00    +0.000 HD
ENDBRANCH  10  23
TORSDOF 2
ENDMDL
MODEL 9
REMARK VINA RESULT:      -6.1      1.266      6.632
REMARK  Name = 
REMARK  2 active torsions:
REMARK  status: ('A' for Active; 'I' for Inactive)
REMARK    1  A    between atoms: C_9  and  O_10
REMARK    2  A    between atoms: C_11  and  O_12
REMARK                            x       y       z     vdW  Elec       q    Type
REMARK                         _______ _______ _______ _____ _____    ______ ____
ROOT
ATOM      1  O   UNL     1      -0.221   8.273  21.671  0.00  0.00    +0.000 OA
ATOM      2  C   UNL     1       0.365   8.831  20.741  0.00  0.00    +0.000 C 
ATOM      3  C   UNL     1       1.385   8.116  19.919  0.00  0.00    +0.000 C 
ATOM      4  C   UNL     1       1.852   8.691  18.788  0.00  0.00    +0.000 C 
ATOM      5  S   UNL     1       2.737   7.848  17.578  0.00  0.00    +0.000 S 
ATOM      6  C   UNL     1       3.375   6.463  18.541  0.00  0.00    +0.000 C 
ATOM      7  O   UNL     1       3.767   5.411  17.655  0.00  0.00    +0.000 OA
ATOM      8  C   UNL     1       4.411   4.332  18.326  0.00  0.00    +0.000 C 
ATOM      9  C   UNL     1       3.536   3.735  19.430  0.00  0.00    +0.000 C 
ATOM     10  C   UNL     1       3.053   4.852  20.371  0.00  0.00    +0.000 C 
ATOM     11  C   UNL     1       2.329   5.933  19.533  0.00  0.00    +0.000 C 
ATOM     12  O   UNL     1       1.778   6.894  20.423  0.00  0.00    +0.000 OA
ATOM     13  C   UNL     1       1.681  10.164  18.589  0.00  0.00    +0.000 C 
ATOM     14  O   UNL     1       2.035  10.758  17.584  0.00  0.00    +0.000 OA
ATOM     15  C   UNL     1       1.097  10.895  19.710  0.00  0.00    +0.000 A 
ATOM     16  C   UNL     1       1.506  12.184  20.035  0.00  0.00    +0.000 A 
ATOM     17  C   UNL     1       0.868  12.853  21.084  0.00  0.00    +0.000 A 
ATOM     18  C   UNL     1      -0.263  12.293  21.690  0.00  0.00    +0.000 A 
ATOM     19  C   UNL     1      -0.637  10.990  21.392  0.00  0.00    +0.000 A 
ATOM     20  C   UNL     1       0.165  10.262  20.513  0.00  0.00    +0.000 A 
ENDROOT
BRANCH   9  21
ATOM     21  O   UNL     1       4.250   2.717  20.123  0.00  0.00    +0.000 OA
ATOM     22  H   UNL     1       4.211   2.898  21.078  0.00  0.00    +0.000 HD
ENDBRANCH   9  21
BRANCH  10  23
ATOM     23  O   UNL     1       2.233   4.320  21.410  0.00  0.00    +0.000 OA
ATOM     24  H   UNL     1       2.793   4.008  22.138  0.00  0.00    +0.000 HD
ENDBRANCH  10  23
TORSDOF 2
ENDMDL
