MODEL 1
REMARK VINA RESULT:      -8.1      0.000      0.000
REMARK  Name = 
REMARK  8 active torsions:
REMARK  status: ('A' for Active; 'I' for Inactive)
REMARK    1  A    between atoms: C_1  and  C_2
REMARK    2  A    between atoms: C_5  and  N_6
REMARK    3  A    between atoms: C_10  and  C_11
REMARK    4  A    between atoms: C_12  and  C_13
REMARK    5  A    between atoms: N_14  and  C_15
REMARK    6  A    between atoms: C_15  and  C_16
REMARK    7  A    between atoms: C_16  and  O_18
REMARK    8  A    between atoms: N_27  and  C_28
REMARK                            x       y       z     vdW  Elec       q    Type
REMARK                         _______ _______ _______ _____ _____    ______ ____
ROOT
ATOM      1  N   UNL     1       0.314  10.579  22.187  0.00  0.00    +0.000 NA
ATOM      2  C   UNL     1       0.590  10.128  21.006  0.00  0.00    +0.000 C 
ATOM      3  S   UNL     1       1.618   8.684  20.920  0.00  0.00    +0.000 S 
ATOM      4  C   UNL     1       1.359   8.501  19.238  0.00  0.00    +0.000 C 
ATOM      5  C   UNL     1       1.835   7.597  18.377  0.00  0.00    +0.000 C 
ATOM      6  C   UNL     1       0.522   9.604  18.729  0.00  0.00    +0.000 C 
ATOM      7  O   UNL     1       0.164   9.689  17.559  0.00  0.00    +0.000 OA
ATOM      8  N   UNL     1       0.234  10.506  19.732  0.00  0.00    +0.000 N 
ATOM      9  C   UNL     1      -0.388  11.744  19.300  0.00  0.00    +0.000 C 
ENDROOT
BRANCH   5  10
ATOM     10  C   UNL     1       2.743   6.539  18.642  0.00  0.00    +0.000 A 
ATOM     11  C   UNL     1       3.981   6.413  18.043  0.00  0.00    +0.000 A 
ATOM     12  C   UNL     1       4.661   7.333  17.084  0.00  0.00    +0.000 C 
ATOM     13  N   UNL     1       4.529   5.232  18.514  0.00  0.00    +0.000 N 
ATOM     14  C   UNL     1       3.649   4.611  19.388  0.00  0.00    +0.000 A 
ATOM     15  C   UNL     1       3.743   3.404  20.105  0.00  0.00    +0.000 A 
ATOM     16  C   UNL     1       2.668   3.029  20.916  0.00  0.00    +0.000 A 
ATOM     17  C   UNL     1       1.531   3.826  21.018  0.00  0.00    +0.000 A 
ATOM     18  C   UNL     1       1.443   5.022  20.306  0.00  0.00    +0.000 A 
ATOM     19  C   UNL     1       2.515   5.422  19.481  0.00  0.00    +0.000 A 
BRANCH  13  20
ATOM     20  C   UNL     1       5.861   4.731  18.192  0.00  0.00    +0.000 C 
BRANCH  20  21
ATOM     21  C   UNL     1       7.005   5.421  18.890  0.00  0.00    +0.000 C 
ATOM     22  O   UNL     1       7.184   5.326  20.102  0.00  0.00    +0.000 OA
BRANCH  21  23
ATOM     23  O   UNL     1       7.781   6.230  18.136  0.00  0.00    +0.000 OA
ATOM     24  H   UNL     1       7.924   5.934  17.214  0.00  0.00    +0.000 HD
ENDBRANCH  21  23
ENDBRANCH  20  21
ENDBRANCH  13  20
ENDBRANCH   5  10
BRANCH   1  29
ATOM     25  C   UNL     1      -3.372  14.754  23.526  0.00  0.00    +0.000 C 
ATOM     26  C   UNL     1      -2.418  13.675  23.112  0.00  0.00    +0.000 A 
ATOM     27  C   UNL     1      -2.764  12.341  23.320  0.00  0.00    +0.000 A 
ATOM     28  C   UNL     1      -1.830  11.333  23.098  0.00  0.00    +0.000 A 
ATOM     29  C   UNL     1      -0.605  11.593  22.490  0.00  0.00    +0.000 A 
ATOM     30  C   UNL     1      -0.244  12.934  22.310  0.00  0.00    +0.000 A 
ATOM     31  C   UNL     1      -1.133  13.970  22.643  0.00  0.00    +0.000 A 
ENDBRANCH   1  29
TORSDOF 5
ENDMDL
MODEL 2
REMARK VINA RESULT:      -8.1      0.904      1.094
REMARK  Name = 
REMARK  8 active torsions:
REMARK  status: ('A' for Active; 'I' for Inactive)
REMARK    1  A    between atoms: C_1  and  C_2
REMARK    2  A    between atoms: C_5  and  N_6
REMARK    3  A    between atoms: C_10  and  C_11
REMARK    4  A    between atoms: C_12  and  C_13
REMARK    5  A    between atoms: N_14  and  C_15
REMARK    6  A    between atoms: C_15  and  C_16
REMARK    7  A    between atoms: C_16  and  O_18
REMARK    8  A    between atoms: N_27  and  C_28
REMARK                            x       y       z     vdW  Elec       q    Type
REMARK                         _______ _______ _______ _____ _____    ______ ____
ROOT
ATOM      1  N   UNL     1       0.332  10.431  22.214  0.00  0.00    +0.000 NA
ATOM      2  C   UNL     1       0.672   9.996  21.044  0.00  0.00    +0.000 C 
ATOM      3  S   UNL     1       1.675   8.533  20.994  0.00  0.00    +0.000 S 
ATOM      4  C   UNL     1       1.518   8.386  19.296  0.00  0.00    +0.000 C 
ATOM      5  C   UNL     1       2.030   7.488  18.449  0.00  0.00    +0.000 C 
ATOM      6  C   UNL     1       0.737   9.515  18.757  0.00  0.00    +0.000 C 
ATOM      7  O   UNL     1       0.454   9.629  17.569  0.00  0.00    +0.000 OA
ATOM      8  N   UNL     1       0.404  10.405  19.757  0.00  0.00    +0.000 N 
ATOM      9  C   UNL     1      -0.165  11.662  19.312  0.00  0.00    +0.000 C 
ENDROOT
BRANCH   5  10
ATOM     10  C   UNL     1       2.899   6.407  18.749  0.00  0.00    +0.000 A 
ATOM     11  C   UNL     1       4.187   6.291  18.265  0.00  0.00    +0.000 A 
ATOM     12  C   UNL     1       4.964   7.245  17.418  0.00  0.00    +0.000 C 
ATOM     13  N   UNL     1       4.677   5.083  18.731  0.00  0.00    +0.000 N 
ATOM     14  C   UNL     1       3.712   4.435  19.487  0.00  0.00    +0.000 A 
ATOM     15  C   UNL     1       3.726   3.195  20.153  0.00  0.00    +0.000 A 
ATOM     16  C   UNL     1       2.575   2.798  20.840  0.00  0.00    +0.000 A 
ATOM     17  C   UNL     1       1.441   3.605  20.871  0.00  0.00    +0.000 A 
ATOM     18  C   UNL     1       1.432   4.834  20.210  0.00  0.00    +0.000 A 
ATOM     19  C   UNL     1       2.582   5.256  19.510  0.00  0.00    +0.000 A 
BRANCH  13  20
ATOM     20  C   UNL     1       6.028   4.579  18.513  0.00  0.00    +0.000 C 
BRANCH  20  21
ATOM     21  C   UNL     1       6.366   4.208  17.092  0.00  0.00    +0.000 C 
ATOM     22  O   UNL     1       7.363   4.645  16.522  0.00  0.00    +0.000 OA
BRANCH  21  23
ATOM     23  O   UNL     1       5.471   3.440  16.432  0.00  0.00    +0.000 OA
ATOM     24  H   UNL     1       4.591   3.846  16.296  0.00  0.00    +0.000 HD
ENDBRANCH  21  23
ENDBRANCH  20  21
ENDBRANCH  13  20
ENDBRANCH   5  10
BRANCH   1  29
ATOM     25  C   UNL     1      -3.345  14.661  23.398  0.00  0.00    +0.000 C 
ATOM     26  C   UNL     1      -2.392  13.566  23.024  0.00  0.00    +0.000 A 
ATOM     27  C   UNL     1      -2.753  12.240  23.253  0.00  0.00    +0.000 A 
ATOM     28  C   UNL     1      -1.823  11.220  23.069  0.00  0.00    +0.000 A 
ATOM     29  C   UNL     1      -0.584  11.458  22.479  0.00  0.00    +0.000 A 
ATOM     30  C   UNL     1      -0.210  12.792  22.278  0.00  0.00    +0.000 A 
ATOM     31  C   UNL     1      -1.096  13.841  22.573  0.00  0.00    +0.000 A 
ENDBRANCH   1  29
TORSDOF 5
ENDMDL
MODEL 3
REMARK VINA RESULT:      -8.0      2.714      4.127
REMARK  Name = 
REMARK  8 active torsions:
REMARK  status: ('A' for Active; 'I' for Inactive)
REMARK    1  A    between atoms: C_1  and  C_2
REMARK    2  A    between atoms: C_5  and  N_6
REMARK    3  A    between atoms: C_10  and  C_11
REMARK    4  A    between atoms: C_12  and  C_13
REMARK    5  A    between atoms: N_14  and  C_15
REMARK    6  A    between atoms: C_15  and  C_16
REMARK    7  A    between atoms: C_16  and  O_18
REMARK    8  A    between atoms: N_27  and  C_28
REMARK                            x       y       z     vdW  Elec       q    Type
REMARK                         _______ _______ _______ _____ _____    ______ ____
ROOT
ATOM      1  N   UNL     1       1.360  11.621  18.192  0.00  0.00    +0.000 NA
ATOM      2  C   UNL     1       1.286  10.571  18.945  0.00  0.00    +0.000 C 
ATOM      3  S   UNL     1       1.900   9.052  18.263  0.00  0.00    +0.000 S 
ATOM      4  C   UNL     1       1.762   8.231  19.759  0.00  0.00    +0.000 C 
ATOM      5  C   UNL     1       2.031   6.963  20.084  0.00  0.00    +0.000 C 
ATOM      6  C   UNL     1       1.175   9.123  20.776  0.00  0.00    +0.000 C 
ATOM      7  O   UNL     1       0.999   8.785  21.943  0.00  0.00    +0.000 OA
ATOM      8  N   UNL     1       0.844  10.344  20.228  0.00  0.00    +0.000 N 
ATOM      9  C   UNL     1       0.054  11.217  21.076  0.00  0.00    +0.000 C 
ENDROOT
BRANCH   5  10
ATOM     10  C   UNL     1       2.483   5.924  19.228  0.00  0.00    +0.000 A 
ATOM     11  C   UNL     1       2.086   4.606  19.335  0.00  0.00    +0.000 A 
ATOM     12  C   UNL     1       1.094   3.994  20.269  0.00  0.00    +0.000 C 
ATOM     13  N   UNL     1       2.787   3.903  18.371  0.00  0.00    +0.000 N 
ATOM     14  C   UNL     1       3.627   4.757  17.672  0.00  0.00    +0.000 A 
ATOM     15  C   UNL     1       4.533   4.521  16.621  0.00  0.00    +0.000 A 
ATOM     16  C   UNL     1       5.260   5.604  16.116  0.00  0.00    +0.000 A 
ATOM     17  C   UNL     1       5.093   6.886  16.633  0.00  0.00    +0.000 A 
ATOM     18  C   UNL     1       4.192   7.115  17.673  0.00  0.00    +0.000 A 
ATOM     19  C   UNL     1       3.448   6.038  18.199  0.00  0.00    +0.000 A 
BRANCH  13  20
ATOM     20  C   UNL     1       2.634   2.481  18.083  0.00  0.00    +0.000 C 
BRANCH  20  21
ATOM     21  C   UNL     1       3.655   1.573  18.719  0.00  0.00    +0.000 C 
ATOM     22  O   UNL     1       4.169   1.827  19.806  0.00  0.00    +0.000 OA
BRANCH  21  23
ATOM     23  O   UNL     1       4.053   0.503  17.997  0.00  0.00    +0.000 OA
ATOM     24  H   UNL     1       4.763   0.677  17.346  0.00  0.00    +0.000 HD
ENDBRANCH  21  23
ENDBRANCH  20  21
ENDBRANCH  13  20
ENDBRANCH   5  10
BRANCH   1  29
ATOM     25  C   UNL     1       0.263  16.971  19.922  0.00  0.00    +0.000 C 
ATOM     26  C   UNL     1       0.589  15.596  19.422  0.00  0.00    +0.000 A 
ATOM     27  C   UNL     1      -0.400  14.848  18.787  0.00  0.00    +0.000 A 
ATOM     28  C   UNL     1      -0.170  13.513  18.465  0.00  0.00    +0.000 A 
ATOM     29  C   UNL     1       1.093  12.939  18.586  0.00  0.00    +0.000 A 
ATOM     30  C   UNL     1       2.078  13.679  19.252  0.00  0.00    +0.000 A 
ATOM     31  C   UNL     1       1.821  14.989  19.691  0.00  0.00    +0.000 A 
ENDBRANCH   1  29
TORSDOF 5
ENDMDL
MODEL 4
REMARK VINA RESULT:      -7.9      0.884      1.357
REMARK  Name = 
REMARK  8 active torsions:
REMARK  status: ('A' for Active; 'I' for Inactive)
REMARK    1  A    between atoms: C_1  and  C_2
REMARK    2  A    between atoms: C_5  and  N_6
REMARK    3  A    between atoms: C_10  and  C_11
REMARK    4  A    between atoms: C_12  and  C_13
REMARK    5  A    between atoms: N_14  and  C_15
REMARK    6  A    between atoms: C_15  and  C_16
REMARK    7  A    between atoms: C_16  and  O_18
REMARK    8  A    between atoms: N_27  and  C_28
REMARK                            x       y       z     vdW  Elec       q    Type
REMARK                         _______ _______ _______ _____ _____    ______ ____
ROOT
ATOM      1  N   UNL     1       0.294  10.430  22.341  0.00  0.00    +0.000 NA
ATOM      2  C   UNL     1       0.632  10.022  21.160  0.00  0.00    +0.000 C 
ATOM      3  S   UNL     1       1.612   8.544  21.073  0.00  0.00    +0.000 S 
ATOM      4  C   UNL     1       1.458   8.447  19.371  0.00  0.00    +0.000 C 
ATOM      5  C   UNL     1       1.958   7.564  18.501  0.00  0.00    +0.000 C 
ATOM      6  C   UNL     1       0.697   9.603  18.861  0.00  0.00    +0.000 C 
ATOM      7  O   UNL     1       0.421   9.754  17.675  0.00  0.00    +0.000 OA
ATOM      8  N   UNL     1       0.375  10.470  19.884  0.00  0.00    +0.000 N 
ATOM      9  C   UNL     1      -0.172  11.748  19.472  0.00  0.00    +0.000 C 
ENDROOT
BRANCH   5  10
ATOM     10  C   UNL     1       2.809   6.461  18.775  0.00  0.00    +0.000 A 
ATOM     11  C   UNL     1       4.083   6.319  18.261  0.00  0.00    +0.000 A 
ATOM     12  C   UNL     1       4.863   7.261  17.404  0.00  0.00    +0.000 C 
ATOM     13  N   UNL     1       4.555   5.097  18.707  0.00  0.00    +0.000 N 
ATOM     14  C   UNL     1       3.592   4.465  19.480  0.00  0.00    +0.000 A 
ATOM     15  C   UNL     1       3.593   3.221  20.137  0.00  0.00    +0.000 A 
ATOM     16  C   UNL     1       2.448   2.845  20.847  0.00  0.00    +0.000 A 
ATOM     17  C   UNL     1       1.334   3.678  20.909  0.00  0.00    +0.000 A 
ATOM     18  C   UNL     1       1.339   4.911  20.257  0.00  0.00    +0.000 A 
ATOM     19  C   UNL     1       2.482   5.312  19.534  0.00  0.00    +0.000 A 
BRANCH  13  20
ATOM     20  C   UNL     1       5.889   4.564  18.455  0.00  0.00    +0.000 C 
BRANCH  20  21
ATOM     21  C   UNL     1       6.223   4.292  17.011  0.00  0.00    +0.000 C 
ATOM     22  O   UNL     1       5.425   3.752  16.247  0.00  0.00    +0.000 OA
BRANCH  21  23
ATOM     23  O   UNL     1       7.478   4.586  16.608  0.00  0.00    +0.000 OA
ATOM     24  H   UNL     1       7.650   4.470  15.652  0.00  0.00    +0.000 HD
ENDBRANCH  21  23
ENDBRANCH  20  21
ENDBRANCH  13  20
ENDBRANCH   5  10
BRANCH   1  29
ATOM     25  C   UNL     1      -3.450  14.627  23.421  0.00  0.00    +0.000 C 
ATOM     26  C   UNL     1      -2.466  13.519  23.203  0.00  0.00    +0.000 A 
ATOM     27  C   UNL     1      -1.190  13.822  22.735  0.00  0.00    +0.000 A 
ATOM     28  C   UNL     1      -0.317  12.800  22.369  0.00  0.00    +0.000 A 
ATOM     29  C   UNL     1      -0.606  11.464  22.630  0.00  0.00    +0.000 A 
ATOM     30  C   UNL     1      -1.899  11.156  23.072  0.00  0.00    +0.000 A 
ATOM     31  C   UNL     1      -2.832  12.174  23.331  0.00  0.00    +0.000 A 
ENDBRANCH   1  29
TORSDOF 5
ENDMDL
MODEL 5
REMARK VINA RESULT:      -7.9      1.953      3.201
REMARK  Name = 
REMARK  8 active torsions:
REMARK  status: ('A' for Active; 'I' for Inactive)
REMARK    1  A    between atoms: C_1  and  C_2
REMARK    2  A    between atoms: C_5  and  N_6
REMARK    3  A    between atoms: C_10  and  C_11
REMARK    4  A    between atoms: C_12  and  C_13
REMARK    5  A    between atoms: N_14  and  C_15
REMARK    6  A    between atoms: C_15  and  C_16
REMARK    7  A    between atoms: C_16  and  O_18
REMARK    8  A    between atoms: N_27  and  C_28
REMARK                            x       y       z     vdW  Elec       q    Type
REMARK                         _______ _______ _______ _____ _____    ______ ____
ROOT
ATOM      1  N   UNL     1       0.240   9.449  21.387  0.00  0.00    +0.000 NA
ATOM      2  C   UNL     1       0.973   9.384  20.322  0.00  0.00    +0.000 C 
ATOM      3  S   UNL     1       1.856   7.868  20.050  0.00  0.00    +0.000 S 
ATOM      4  C   UNL     1       2.339   8.339  18.476  0.00  0.00    +0.000 C 
ATOM      5  C   UNL     1       3.089   7.705  17.570  0.00  0.00    +0.000 C 
ATOM      6  C   UNL     1       1.866   9.706  18.186  0.00  0.00    +0.000 C 
ATOM      7  O   UNL     1       2.053  10.266  17.111  0.00  0.00    +0.000 OA
ATOM      8  N   UNL     1       1.224  10.247  19.280  0.00  0.00    +0.000 N 
ATOM      9  C   UNL     1       0.919  11.662  19.189  0.00  0.00    +0.000 C 
ENDROOT
BRANCH   5  10
ATOM     10  C   UNL     1       3.734   6.447  17.702  0.00  0.00    +0.000 A 
ATOM     11  C   UNL     1       3.068   5.251  17.880  0.00  0.00    +0.000 A 
ATOM     12  C   UNL     1       1.598   4.986  17.904  0.00  0.00    +0.000 C 
ATOM     13  N   UNL     1       4.039   4.276  18.026  0.00  0.00    +0.000 N 
ATOM     14  C   UNL     1       5.302   4.845  17.957  0.00  0.00    +0.000 A 
ATOM     15  C   UNL     1       6.587   4.279  18.059  0.00  0.00    +0.000 A 
ATOM     16  C   UNL     1       7.695   5.126  17.955  0.00  0.00    +0.000 A 
ATOM     17  C   UNL     1       7.538   6.494  17.752  0.00  0.00    +0.000 A 
ATOM     18  C   UNL     1       6.262   7.050  17.650  0.00  0.00    +0.000 A 
ATOM     19  C   UNL     1       5.129   6.216  17.752  0.00  0.00    +0.000 A 
BRANCH  13  20
ATOM     20  C   UNL     1       3.786   2.847  18.175  0.00  0.00    +0.000 C 
BRANCH  20  21
ATOM     21  C   UNL     1       3.880   2.311  19.581  0.00  0.00    +0.000 C 
ATOM     22  O   UNL     1       2.989   2.487  20.408  0.00  0.00    +0.000 OA
BRANCH  21  23
ATOM     23  O   UNL     1       5.035   1.700  19.925  0.00  0.00    +0.000 OA
ATOM     24  H   UNL     1       5.621   1.459  19.179  0.00  0.00    +0.000 HD
ENDBRANCH  21  23
ENDBRANCH  20  21
ENDBRANCH  13  20
ENDBRANCH   5  10
BRANCH   1  29
ATOM     25  C   UNL     1      -3.531  13.547  22.727  0.00  0.00    +0.000 C 
ATOM     26  C   UNL     1      -2.496  12.514  22.398  0.00  0.00    +0.000 A 
ATOM     27  C   UNL     1      -2.222  12.224  21.063  0.00  0.00    +0.000 A 
ATOM     28  C   UNL     1      -1.390  11.156  20.736  0.00  0.00    +0.000 A 
ATOM     29  C   UNL     1      -0.662  10.473  21.706  0.00  0.00    +0.000 A 
ATOM     30  C   UNL     1      -0.959  10.743  23.048  0.00  0.00    +0.000 A 
ATOM     31  C   UNL     1      -1.889  11.738  23.393  0.00  0.00    +0.000 A 
ENDBRANCH   1  29
TORSDOF 5
ENDMDL
MODEL 6
REMARK VINA RESULT:      -7.7      1.729      3.012
REMARK  Name = 
REMARK  8 active torsions:
REMARK  status: ('A' for Active; 'I' for Inactive)
REMARK    1  A    between atoms: C_1  and  C_2
REMARK    2  A    between atoms: C_5  and  N_6
REMARK    3  A    between atoms: C_10  and  C_11
REMARK    4  A    between atoms: C_12  and  C_13
REMARK    5  A    between atoms: N_14  and  C_15
REMARK    6  A    between atoms: C_15  and  C_16
REMARK    7  A    between atoms: C_16  and  O_18
REMARK    8  A    between atoms: N_27  and  C_28
REMARK                            x       y       z     vdW  Elec       q    Type
REMARK                         _______ _______ _______ _____ _____    ______ ____
ROOT
ATOM      1  N   UNL     1       0.785   9.689  21.829  0.00  0.00    +0.000 NA
ATOM      2  C   UNL     1       1.144   9.423  20.615  0.00  0.00    +0.000 C 
ATOM      3  S   UNL     1       2.110   7.955  20.368  0.00  0.00    +0.000 S 
ATOM      4  C   UNL     1       1.992   8.067  18.664  0.00  0.00    +0.000 C 
ATOM      5  C   UNL     1       2.501   7.290  17.703  0.00  0.00    +0.000 C 
ATOM      6  C   UNL     1       1.254   9.286  18.284  0.00  0.00    +0.000 C 
ATOM      7  O   UNL     1       1.005   9.583  17.120  0.00  0.00    +0.000 OA
ATOM      8  N   UNL     1       0.920  10.026  19.398  0.00  0.00    +0.000 N 
ATOM      9  C   UNL     1       0.395  11.352  19.133  0.00  0.00    +0.000 C 
ENDROOT
BRANCH   5  10
ATOM     10  C   UNL     1       3.334   6.150  17.858  0.00  0.00    +0.000 A 
ATOM     11  C   UNL     1       2.872   4.894  18.196  0.00  0.00    +0.000 A 
ATOM     12  C   UNL     1       1.467   4.431  18.400  0.00  0.00    +0.000 C 
ATOM     13  N   UNL     1       3.986   4.081  18.308  0.00  0.00    +0.000 N 
ATOM     14  C   UNL     1       5.139   4.810  18.059  0.00  0.00    +0.000 A 
ATOM     15  C   UNL     1       6.496   4.440  18.061  0.00  0.00    +0.000 A 
ATOM     16  C   UNL     1       7.452   5.419  17.774  0.00  0.00    +0.000 A 
ATOM     17  C   UNL     1       7.076   6.729  17.488  0.00  0.00    +0.000 A 
ATOM     18  C   UNL     1       5.729   7.091  17.485  0.00  0.00    +0.000 A 
ATOM     19  C   UNL     1       4.747   6.120  17.772  0.00  0.00    +0.000 A 
BRANCH  13  20
ATOM     20  C   UNL     1       3.963   2.649  18.590  0.00  0.00    +0.000 C 
BRANCH  20  21
ATOM     21  C   UNL     1       4.143   2.266  20.036  0.00  0.00    +0.000 C 
ATOM     22  O   UNL     1       3.335   2.590  20.904  0.00  0.00    +0.000 OA
BRANCH  21  23
ATOM     23  O   UNL     1       5.286   1.623  20.359  0.00  0.00    +0.000 OA
ATOM     24  H   UNL     1       5.846   1.357  19.602  0.00  0.00    +0.000 HD
ENDBRANCH  21  23
ENDBRANCH  20  21
ENDBRANCH  13  20
ENDBRANCH   5  10
BRANCH   1  29
ATOM     25  C   UNL     1      -2.792  13.826  23.532  0.00  0.00    +0.000 C 
ATOM     26  C   UNL     1      -1.877  12.753  23.025  0.00  0.00    +0.000 A 
ATOM     27  C   UNL     1      -2.137  11.424  23.351  0.00  0.00    +0.000 A 
ATOM     28  C   UNL     1      -1.214  10.432  23.032  0.00  0.00    +0.000 A 
ATOM     29  C   UNL     1      -0.110  10.692  22.225  0.00  0.00    +0.000 A 
ATOM     30  C   UNL     1       0.169  12.031  21.923  0.00  0.00    +0.000 A 
ATOM     31  C   UNL     1      -0.693  13.058  22.342  0.00  0.00    +0.000 A 
ENDBRANCH   1  29
TORSDOF 5
ENDMDL
MODEL 7
REMARK VINA RESULT:      -7.7      2.409      3.156
REMARK  Name = 
REMARK  8 active torsions:
REMARK  status: ('A' for Active; 'I' for Inactive)
REMARK    1  A    between atoms: C_1  and  C_2
REMARK    2  A    between atoms: C_5  and  N_6
REMARK    3  A    between atoms: C_10  and  C_11
REMARK    4  A    between atoms: C_12  and  C_13
REMARK    5  A    between atoms: N_14  and  C_15
REMARK    6  A    between atoms: C_15  and  C_16
REMARK    7  A    between atoms: C_16  and  O_18
REMARK    8  A    between atoms: N_27  and  C_28
REMARK                            x       y       z     vdW  Elec       q    Type
REMARK                         _______ _______ _______ _____ _____    ______ ____
ROOT
ATOM      1  N   UNL     1       1.188  11.552  18.204  0.00  0.00    +0.000 NA
ATOM      2  C   UNL     1       1.226  10.522  18.986  0.00  0.00    +0.000 C 
ATOM      3  S   UNL     1       1.804   9.000  18.277  0.00  0.00    +0.000 S 
ATOM      4  C   UNL     1       1.854   8.217  19.799  0.00  0.00    +0.000 C 
ATOM      5  C   UNL     1       2.192   6.966  20.123  0.00  0.00    +0.000 C 
ATOM      6  C   UNL     1       1.357   9.122  20.853  0.00  0.00    +0.000 C 
ATOM      7  O   UNL     1       1.320   8.812  22.040  0.00  0.00    +0.000 OA
ATOM      8  N   UNL     1       0.934  10.319  20.316  0.00  0.00    +0.000 N 
ATOM      9  C   UNL     1       0.219  11.194  21.224  0.00  0.00    +0.000 C 
ENDROOT
BRANCH   5  10
ATOM     10  C   UNL     1       2.576   5.915  19.249  0.00  0.00    +0.000 A 
ATOM     11  C   UNL     1       3.537   6.039  18.264  0.00  0.00    +0.000 A 
ATOM     12  C   UNL     1       4.406   7.209  17.939  0.00  0.00    +0.000 C 
ATOM     13  N   UNL     1       3.576   4.828  17.596  0.00  0.00    +0.000 N 
ATOM     14  C   UNL     1       2.646   3.953  18.137  0.00  0.00    +0.000 A 
ATOM     15  C   UNL     1       2.306   2.629  17.802  0.00  0.00    +0.000 A 
ATOM     16  C   UNL     1       1.301   1.995  18.539  0.00  0.00    +0.000 A 
ATOM     17  C   UNL     1       0.653   2.650  19.583  0.00  0.00    +0.000 A 
ATOM     18  C   UNL     1       0.995   3.961  19.913  0.00  0.00    +0.000 A 
ATOM     19  C   UNL     1       2.006   4.622  19.183  0.00  0.00    +0.000 A 
BRANCH  13  20
ATOM     20  C   UNL     1       4.495   4.489  16.515  0.00  0.00    +0.000 C 
BRANCH  20  21
ATOM     21  C   UNL     1       5.924   4.243  16.927  0.00  0.00    +0.000 C 
ATOM     22  O   UNL     1       6.856   4.314  16.128  0.00  0.00    +0.000 OA
BRANCH  21  23
ATOM     23  O   UNL     1       6.133   3.847  18.202  0.00  0.00    +0.000 OA
ATOM     24  H   UNL     1       5.362   3.933  18.799  0.00  0.00    +0.000 HD
ENDBRANCH  21  23
ENDBRANCH  20  21
ENDBRANCH  13  20
ENDBRANCH   5  10
BRANCH   1  29
ATOM     25  C   UNL     1       0.131  16.916  19.913  0.00  0.00    +0.000 C 
ATOM     26  C   UNL     1       0.444  15.537  19.417  0.00  0.00    +0.000 A 
ATOM     27  C   UNL     1      -0.568  14.774  18.840  0.00  0.00    +0.000 A 
ATOM     28  C   UNL     1      -0.342  13.436  18.525  0.00  0.00    +0.000 A 
ATOM     29  C   UNL     1       0.929  12.874  18.593  0.00  0.00    +0.000 A 
ATOM     30  C   UNL     1       1.939  13.630  19.201  0.00  0.00    +0.000 A 
ATOM     31  C   UNL     1       1.693  14.943  19.635  0.00  0.00    +0.000 A 
ENDBRANCH   1  29
TORSDOF 5
ENDMDL
MODEL 8
REMARK VINA RESULT:      -7.7      1.621      2.999
REMARK  Name = 
REMARK  8 active torsions:
REMARK  status: ('A' for Active; 'I' for Inactive)
REMARK    1  A    between atoms: C_1  and  C_2
REMARK    2  A    between atoms: C_5  and  N_6
REMARK    3  A    between atoms: C_10  and  C_11
REMARK    4  A    between atoms: C_12  and  C_13
REMARK    5  A    between atoms: N_14  and  C_15
REMARK    6  A    between atoms: C_15  and  C_16
REMARK    7  A    between atoms: C_16  and  O_18
REMARK    8  A    between atoms: N_27  and  C_28
REMARK                            x       y       z     vdW  Elec       q    Type
REMARK                         _______ _______ _______ _____ _____    ______ ____
ROOT
ATOM      1  N   UNL     1       0.464  10.388  22.088  0.00  0.00    +0.000 NA
ATOM      2  C   UNL     1       0.773   9.964  20.905  0.00  0.00    +0.000 C 
ATOM      3  S   UNL     1       1.770   8.498  20.815  0.00  0.00    +0.000 S 
ATOM      4  C   UNL     1       1.569   8.369  19.120  0.00  0.00    +0.000 C 
ATOM      5  C   UNL     1       2.056   7.477  18.251  0.00  0.00    +0.000 C 
ATOM      6  C   UNL     1       0.778   9.506  18.613  0.00  0.00    +0.000 C 
ATOM      7  O   UNL     1       0.466   9.632  17.433  0.00  0.00    +0.000 OA
ATOM      8  N   UNL     1       0.474  10.386  19.629  0.00  0.00    +0.000 N 
ATOM      9  C   UNL     1      -0.102  11.650  19.211  0.00  0.00    +0.000 C 
ENDROOT
BRANCH   5  10
ATOM     10  C   UNL     1       2.928   6.390  18.519  0.00  0.00    +0.000 A 
ATOM     11  C   UNL     1       2.588   5.295  19.288  0.00  0.00    +0.000 A 
ATOM     12  C   UNL     1       1.280   4.966  19.930  0.00  0.00    +0.000 C 
ATOM     13  N   UNL     1       3.716   4.498  19.362  0.00  0.00    +0.000 N 
ATOM     14  C   UNL     1       4.762   5.082  18.662  0.00  0.00    +0.000 A 
ATOM     15  C   UNL     1       6.091   4.669  18.455  0.00  0.00    +0.000 A 
ATOM     16  C   UNL     1       6.930   5.491  17.696  0.00  0.00    +0.000 A 
ATOM     17  C   UNL     1       6.467   6.687  17.153  0.00  0.00    +0.000 A 
ATOM     18  C   UNL     1       5.148   7.090  17.360  0.00  0.00    +0.000 A 
ATOM     19  C   UNL     1       4.283   6.278  18.123  0.00  0.00    +0.000 A 
BRANCH  13  20
ATOM     20  C   UNL     1       3.793   3.201  20.026  0.00  0.00    +0.000 C 
BRANCH  20  21
ATOM     21  C   UNL     1       3.410   2.012  19.184  0.00  0.00    +0.000 C 
ATOM     22  O   UNL     1       2.238   1.734  18.940  0.00  0.00    +0.000 OA
BRANCH  21  23
ATOM     23  O   UNL     1       4.413   1.203  18.778  0.00  0.00    +0.000 OA
ATOM     24  H   UNL     1       4.134   0.338  18.416  0.00  0.00    +0.000 HD
ENDBRANCH  21  23
ENDBRANCH  20  21
ENDBRANCH  13  20
ENDBRANCH   5  10
BRANCH   1  29
ATOM     25  C   UNL     1      -3.164  14.620  23.404  0.00  0.00    +0.000 C 
ATOM     26  C   UNL     1      -2.227  13.524  22.996  0.00  0.00    +0.000 A 
ATOM     27  C   UNL     1      -2.573  12.200  23.252  0.00  0.00    +0.000 A 
ATOM     28  C   UNL     1      -1.650  11.181  23.034  0.00  0.00    +0.000 A 
ATOM     29  C   UNL     1      -0.441  11.416  22.386  0.00  0.00    +0.000 A 
ATOM     30  C   UNL     1      -0.079  12.749  22.156  0.00  0.00    +0.000 A 
ATOM     31  C   UNL     1      -0.954  13.799  22.482  0.00  0.00    +0.000 A 
ENDBRANCH   1  29
TORSDOF 5
ENDMDL
MODEL 9
REMARK VINA RESULT:      -7.7      1.826      2.093
REMARK  Name = 
REMARK  8 active torsions:
REMARK  status: ('A' for Active; 'I' for Inactive)
REMARK    1  A    between atoms: C_1  and  C_2
REMARK    2  A    between atoms: C_5  and  N_6
REMARK    3  A    between atoms: C_10  and  C_11
REMARK    4  A    between atoms: C_12  and  C_13
REMARK    5  A    between atoms: N_14  and  C_15
REMARK    6  A    between atoms: C_15  and  C_16
REMARK    7  A    between atoms: C_16  and  O_18
REMARK    8  A    between atoms: N_27  and  C_28
REMARK                            x       y       z     vdW  Elec       q    Type
REMARK                         _______ _______ _______ _____ _____    ______ ____
ROOT
ATOM      1  N   UNL     1       0.096   9.586  21.394  0.00  0.00    +0.000 NA
ATOM      2  C   UNL     1       0.866   9.555  20.355  0.00  0.00    +0.000 C 
ATOM      3  S   UNL     1       1.700   8.023  20.022  0.00  0.00    +0.000 S 
ATOM      4  C   UNL     1       2.260   8.567  18.498  0.00  0.00    +0.000 C 
ATOM      5  C   UNL     1       3.019   7.959  17.583  0.00  0.00    +0.000 C 
ATOM      6  C   UNL     1       1.852   9.967  18.276  0.00  0.00    +0.000 C 
ATOM      7  O   UNL     1       2.103  10.582  17.244  0.00  0.00    +0.000 OA
ATOM      8  N   UNL     1       1.191  10.468  19.377  0.00  0.00    +0.000 N 
ATOM      9  C   UNL     1       0.944  11.897  19.362  0.00  0.00    +0.000 C 
ENDROOT
BRANCH   5  10
ATOM     10  C   UNL     1       3.609   6.669  17.661  0.00  0.00    +0.000 A 
ATOM     11  C   UNL     1       4.957   6.423  17.488  0.00  0.00    +0.000 A 
ATOM     12  C   UNL     1       6.070   7.392  17.262  0.00  0.00    +0.000 C 
ATOM     13  N   UNL     1       5.122   5.052  17.577  0.00  0.00    +0.000 N 
ATOM     14  C   UNL     1       3.898   4.435  17.789  0.00  0.00    +0.000 A 
ATOM     15  C   UNL     1       3.550   3.079  17.935  0.00  0.00    +0.000 A 
ATOM     16  C   UNL     1       2.203   2.758  18.134  0.00  0.00    +0.000 A 
ATOM     17  C   UNL     1       1.228   3.750  18.190  0.00  0.00    +0.000 A 
ATOM     18  C   UNL     1       1.579   5.092  18.047  0.00  0.00    +0.000 A 
ATOM     19  C   UNL     1       2.931   5.441  17.845  0.00  0.00    +0.000 A 
BRANCH  13  20
ATOM     20  C   UNL     1       6.399   4.349  17.516  0.00  0.00    +0.000 C 
BRANCH  20  21
ATOM     21  C   UNL     1       6.916   4.054  16.132  0.00  0.00    +0.000 C 
ATOM     22  O   UNL     1       7.832   4.699  15.625  0.00  0.00    +0.000 OA
BRANCH  21  23
ATOM     23  O   UNL     1       6.266   3.102  15.427  0.00  0.00    +0.000 OA
ATOM     24  H   UNL     1       6.813   2.614  14.779  0.00  0.00    +0.000 HD
ENDBRANCH  21  23
ENDBRANCH  20  21
ENDBRANCH  13  20
ENDBRANCH   5  10
BRANCH   1  29
ATOM     25  C   UNL     1      -3.559  13.749  22.852  0.00  0.00    +0.000 C 
ATOM     26  C   UNL     1      -2.554  12.697  22.494  0.00  0.00    +0.000 A 
ATOM     27  C   UNL     1      -2.286  12.438  21.151  0.00  0.00    +0.000 A 
ATOM     28  C   UNL     1      -1.484  11.358  20.793  0.00  0.00    +0.000 A 
ATOM     29  C   UNL     1      -0.777  10.626  21.743  0.00  0.00    +0.000 A 
ATOM     30  C   UNL     1      -1.068  10.865  23.092  0.00  0.00    +0.000 A 
ATOM     31  C   UNL     1      -1.970  11.876  23.465  0.00  0.00    +0.000 A 
ENDBRANCH   1  29
TORSDOF 5
ENDMDL
