MODEL 1
REMARK VINA RESULT:      -7.7      0.000      0.000
REMARK  Name = 
REMARK  5 active torsions:
REMARK  status: ('A' for Active; 'I' for Inactive)
REMARK    1  A    between atoms: C_1  and  C_2
REMARK    2  A    between atoms: C_2  and  C_3
REMARK    3  A    between atoms: C_3  and  N_4
REMARK    4  A    between atoms: C_5  and  C_7
REMARK    5  A    between atoms: C_16  and  C_17
REMARK                            x       y       z     vdW  Elec       q    Type
REMARK                         _______ _______ _______ _____ _____    ______ ____
ROOT
ATOM      1  N   UNL     1       4.255   4.030  19.338  0.00  0.00    +0.000 N 
ATOM      2  C   UNL     1       3.056   4.741  19.543  0.00  0.00    +0.000 C 
ATOM      3  O   UNL     1       2.194   4.298  20.314  0.00  0.00    +0.000 OA
ATOM      4  C   UNL     1       5.214   4.457  18.456  0.00  0.00    +0.000 A 
ATOM      5  N   UNL     1       5.277   4.106  17.194  0.00  0.00    +0.000 NA
ATOM      6  C   UNL     1       6.378   4.718  16.604  0.00  0.00    +0.000 A 
ATOM      7  C   UNL     1       7.157   5.467  17.467  0.00  0.00    +0.000 A 
ATOM      8  S   UNL     1       6.495   5.412  19.053  0.00  0.00    +0.000 S 
ENDROOT
BRANCH   2   9
ATOM      9  C   UNL     1       2.780   6.114  18.953  0.00  0.00    +0.000 A 
ATOM     10  C   UNL     1       3.153   6.553  17.677  0.00  0.00    +0.000 A 
ATOM     11  C   UNL     1       3.024   7.895  17.295  0.00  0.00    +0.000 A 
ATOM     12  C   UNL     1       2.419   8.796  18.154  0.00  0.00    +0.000 A 
ATOM     13  F   UNL     1       2.304  10.079  17.791  0.00  0.00    +0.000 F 
ATOM     14  C   UNL     1       1.920   8.372  19.375  0.00  0.00    +0.000 A 
ATOM     15  C   UNL     1       2.106   7.041  19.775  0.00  0.00    +0.000 A 
ENDBRANCH   2   9
BRANCH   6  16
ATOM     16  C   UNL     1       6.630   4.600  15.170  0.00  0.00    +0.000 A 
ATOM     17  C   UNL     1       5.839   3.764  14.386  0.00  0.00    +0.000 A 
ATOM     18  C   UNL     1       6.080   3.701  13.017  0.00  0.00    +0.000 A 
ATOM     19  C   UNL     1       7.098   4.471  12.473  0.00  0.00    +0.000 A 
ATOM     20  C   UNL     1       7.838   5.277  13.323  0.00  0.00    +0.000 A 
ATOM     21  N   UNL     1       7.628   5.361  14.656  0.00  0.00    +0.000 NA
ENDBRANCH   6  16
BRANCH   1  22
ATOM     22  C   UNL     1       4.550   2.827  20.132  0.00  0.00    +0.000 C 
BRANCH  22  24
ATOM     23  C   UNL     1       3.197   1.459  18.430  0.00  0.00    +0.000 C 
ATOM     24  C   UNL     1       4.347   1.485  19.425  0.00  0.00    +0.000 C 
ENDBRANCH  22  24
ENDBRANCH   1  22
TORSDOF 4
ENDMDL
MODEL 2
REMARK VINA RESULT:      -7.4      0.280      1.016
REMARK  Name = 
REMARK  5 active torsions:
REMARK  status: ('A' for Active; 'I' for Inactive)
REMARK    1  A    between atoms: C_1  and  C_2
REMARK    2  A    between atoms: C_2  and  C_3
REMARK    3  A    between atoms: C_3  and  N_4
REMARK    4  A    between atoms: C_5  and  C_7
REMARK    5  A    between atoms: C_16  and  C_17
REMARK                            x       y       z     vdW  Elec       q    Type
REMARK                         _______ _______ _______ _____ _____    ______ ____
ROOT
ATOM      1  N   UNL     1       4.064   3.901  19.389  0.00  0.00    +0.000 N 
ATOM      2  C   UNL     1       2.913   4.679  19.629  0.00  0.00    +0.000 C 
ATOM      3  O   UNL     1       1.998   4.234  20.334  0.00  0.00    +0.000 OA
ATOM      4  C   UNL     1       5.078   4.333  18.573  0.00  0.00    +0.000 A 
ATOM      5  N   UNL     1       5.154   4.093  17.286  0.00  0.00    +0.000 NA
ATOM      6  C   UNL     1       6.315   4.672  16.783  0.00  0.00    +0.000 A 
ATOM      7  C   UNL     1       7.119   5.278  17.730  0.00  0.00    +0.000 A 
ATOM      8  S   UNL     1       6.406   5.130  19.287  0.00  0.00    +0.000 S 
ENDROOT
BRANCH   2   9
ATOM      9  C   UNL     1       2.757   6.116  19.162  0.00  0.00    +0.000 A 
ATOM     10  C   UNL     1       2.208   7.170  19.905  0.00  0.00    +0.000 A 
ATOM     11  C   UNL     1       1.931   8.413  19.323  0.00  0.00    +0.000 A 
ATOM     12  C   UNL     1       2.301   8.651  18.011  0.00  0.00    +0.000 A 
ATOM     13  F   UNL     1       2.029   9.838  17.452  0.00  0.00    +0.000 F 
ATOM     14  C   UNL     1       2.964   7.677  17.281  0.00  0.00    +0.000 A 
ATOM     15  C   UNL     1       3.184   6.415  17.852  0.00  0.00    +0.000 A 
ENDBRANCH   2   9
BRANCH   6  16
ATOM     16  C   UNL     1       6.603   4.665  15.350  0.00  0.00    +0.000 A 
ATOM     17  C   UNL     1       5.853   3.867  14.489  0.00  0.00    +0.000 A 
ATOM     18  C   UNL     1       6.126   3.910  13.125  0.00  0.00    +0.000 A 
ATOM     19  C   UNL     1       7.134   4.745  12.663  0.00  0.00    +0.000 A 
ATOM     20  C   UNL     1       7.831   5.506  13.587  0.00  0.00    +0.000 A 
ATOM     21  N   UNL     1       7.590   5.487  14.917  0.00  0.00    +0.000 NA
ENDBRANCH   6  16
BRANCH   1  22
ATOM     22  C   UNL     1       4.245   2.612  20.074  0.00  0.00    +0.000 C 
BRANCH  22  24
ATOM     23  C   UNL     1       2.893   1.490  18.201  0.00  0.00    +0.000 C 
ATOM     24  C   UNL     1       4.004   1.359  19.230  0.00  0.00    +0.000 C 
ENDBRANCH  22  24
ENDBRANCH   1  22
TORSDOF 4
ENDMDL
MODEL 3
REMARK VINA RESULT:      -7.1      3.373      5.196
REMARK  Name = 
REMARK  5 active torsions:
REMARK  status: ('A' for Active; 'I' for Inactive)
REMARK    1  A    between atoms: C_1  and  C_2
REMARK    2  A    between atoms: C_2  and  C_3
REMARK    3  A    between atoms: C_3  and  N_4
REMARK    4  A    between atoms: C_5  and  C_7
REMARK    5  A    between atoms: C_16  and  C_17
REMARK                            x       y       z     vdW  Elec       q    Type
REMARK                         _______ _______ _______ _____ _____    ______ ____
ROOT
ATOM      1  N   UNL     1       6.255   5.275  16.549  0.00  0.00    +0.000 N 
ATOM      2  C   UNL     1       4.858   5.134  16.680  0.00  0.00    +0.000 C 
ATOM      3  O   UNL     1       4.229   4.418  15.888  0.00  0.00    +0.000 OA
ATOM      4  C   UNL     1       6.984   6.096  17.370  0.00  0.00    +0.000 A 
ATOM      5  N   UNL     1       7.250   7.356  17.120  0.00  0.00    +0.000 NA
ATOM      6  C   UNL     1       8.015   7.875  18.159  0.00  0.00    +0.000 A 
ATOM      7  C   UNL     1       8.361   6.962  19.138  0.00  0.00    +0.000 A 
ATOM      8  S   UNL     1       7.708   5.418  18.757  0.00  0.00    +0.000 S 
ENDROOT
BRANCH   2   9
ATOM      9  C   UNL     1       4.056   5.726  17.825  0.00  0.00    +0.000 A 
ATOM     10  C   UNL     1       3.799   5.109  19.057  0.00  0.00    +0.000 A 
ATOM     11  C   UNL     1       2.891   5.653  19.975  0.00  0.00    +0.000 A 
ATOM     12  C   UNL     1       2.307   6.880  19.715  0.00  0.00    +0.000 A 
ATOM     13  F   UNL     1       1.433   7.395  20.589  0.00  0.00    +0.000 F 
ATOM     14  C   UNL     1       2.635   7.583  18.566  0.00  0.00    +0.000 A 
ATOM     15  C   UNL     1       3.498   7.005  17.624  0.00  0.00    +0.000 A 
ENDBRANCH   2   9
BRANCH   6  16
ATOM     16  C   UNL     1       8.364   9.294  18.205  0.00  0.00    +0.000 A 
ATOM     17  C   UNL     1       9.360   9.743  19.069  0.00  0.00    +0.000 A 
ATOM     18  C   UNL     1       9.695  11.093  19.064  0.00  0.00    +0.000 A 
ATOM     19  C   UNL     1       9.030  11.952  18.199  0.00  0.00    +0.000 A 
ATOM     20  C   UNL     1       8.052  11.423  17.371  0.00  0.00    +0.000 A 
ATOM     21  N   UNL     1       7.704  10.117  17.353  0.00  0.00    +0.000 NA
ENDBRANCH   6  16
BRANCH   1  22
ATOM     22  C   UNL     1       6.993   4.477  15.558  0.00  0.00    +0.000 C 
BRANCH  22  24
ATOM     23  C   UNL     1       6.329   3.872  13.152  0.00  0.00    +0.000 C 
ATOM     24  C   UNL     1       6.871   4.929  14.101  0.00  0.00    +0.000 C 
ENDBRANCH  22  24
ENDBRANCH   1  22
TORSDOF 4
ENDMDL
MODEL 4
REMARK VINA RESULT:      -6.8      4.941      7.635
REMARK  Name = 
REMARK  5 active torsions:
REMARK  status: ('A' for Active; 'I' for Inactive)
REMARK    1  A    between atoms: C_1  and  C_2
REMARK    2  A    between atoms: C_2  and  C_3
REMARK    3  A    between atoms: C_3  and  N_4
REMARK    4  A    between atoms: C_5  and  C_7
REMARK    5  A    between atoms: C_16  and  C_17
REMARK                            x       y       z     vdW  Elec       q    Type
REMARK                         _______ _______ _______ _____ _____    ______ ____
ROOT
ATOM      1  N   UNL     1      -0.593  11.096  18.593  0.00  0.00    +0.000 N 
ATOM      2  C   UNL     1      -0.128  12.418  18.445  0.00  0.00    +0.000 C 
ATOM      3  O   UNL     1      -0.844  13.273  17.905  0.00  0.00    +0.000 OA
ATOM      4  C   UNL     1       0.184  10.107  19.139  0.00  0.00    +0.000 A 
ATOM      5  N   UNL     1       0.971   9.313  18.453  0.00  0.00    +0.000 NA
ATOM      6  C   UNL     1       1.598   8.429  19.325  0.00  0.00    +0.000 A 
ATOM      7  C   UNL     1       1.208   8.543  20.647  0.00  0.00    +0.000 A 
ATOM      8  S   UNL     1       0.035   9.790  20.807  0.00  0.00    +0.000 S 
ENDROOT
BRANCH   2   9
ATOM      9  C   UNL     1       1.186  12.917  19.021  0.00  0.00    +0.000 A 
ATOM     10  C   UNL     1       1.459  13.148  20.375  0.00  0.00    +0.000 A 
ATOM     11  C   UNL     1       2.634  13.789  20.789  0.00  0.00    +0.000 A 
ATOM     12  C   UNL     1       3.602  14.111  19.855  0.00  0.00    +0.000 A 
ATOM     13  F   UNL     1       4.722  14.731  20.250  0.00  0.00    +0.000 F 
ATOM     14  C   UNL     1       3.426  13.783  18.520  0.00  0.00    +0.000 A 
ATOM     15  C   UNL     1       2.222  13.196  18.105  0.00  0.00    +0.000 A 
ENDBRANCH   2   9
BRANCH   6  16
ATOM     16  C   UNL     1       2.623   7.501  18.853  0.00  0.00    +0.000 A 
ATOM     17  C   UNL     1       3.311   7.760  17.670  0.00  0.00    +0.000 A 
ATOM     18  C   UNL     1       4.308   6.878  17.266  0.00  0.00    +0.000 A 
ATOM     19  C   UNL     1       4.589   5.767  18.051  0.00  0.00    +0.000 A 
ATOM     20  C   UNL     1       3.858   5.584  19.214  0.00  0.00    +0.000 A 
ATOM     21  N   UNL     1       2.884   6.423  19.633  0.00  0.00    +0.000 NA
ENDBRANCH   6  16
BRANCH   1  22
ATOM     22  C   UNL     1      -1.975  10.749  18.225  0.00  0.00    +0.000 C 
BRANCH  22  24
ATOM     23  C   UNL     1      -2.846  10.840  15.811  0.00  0.00    +0.000 C 
ATOM     24  C   UNL     1      -2.157  10.022  16.891  0.00  0.00    +0.000 C 
ENDBRANCH  22  24
ENDBRANCH   1  22
TORSDOF 4
ENDMDL
MODEL 5
REMARK VINA RESULT:      -6.8      3.353      5.236
REMARK  Name = 
REMARK  5 active torsions:
REMARK  status: ('A' for Active; 'I' for Inactive)
REMARK    1  A    between atoms: C_1  and  C_2
REMARK    2  A    between atoms: C_2  and  C_3
REMARK    3  A    between atoms: C_3  and  N_4
REMARK    4  A    between atoms: C_5  and  C_7
REMARK    5  A    between atoms: C_16  and  C_17
REMARK                            x       y       z     vdW  Elec       q    Type
REMARK                         _______ _______ _______ _____ _____    ______ ____
ROOT
ATOM      1  N   UNL     1       6.288   5.246  16.280  0.00  0.00    +0.000 N 
ATOM      2  C   UNL     1       4.883   5.131  16.281  0.00  0.00    +0.000 C 
ATOM      3  O   UNL     1       4.314   4.442  15.423  0.00  0.00    +0.000 OA
ATOM      4  C   UNL     1       6.955   6.038  17.178  0.00  0.00    +0.000 A 
ATOM      5  N   UNL     1       7.267   7.295  16.977  0.00  0.00    +0.000 NA
ATOM      6  C   UNL     1       7.945   7.781  18.090  0.00  0.00    +0.000 A 
ATOM      7  C   UNL     1       8.183   6.844  19.079  0.00  0.00    +0.000 A 
ATOM      8  S   UNL     1       7.538   5.321  18.611  0.00  0.00    +0.000 S 
ENDROOT
BRANCH   2   9
ATOM      9  C   UNL     1       3.992   5.720  17.360  0.00  0.00    +0.000 A 
ATOM     10  C   UNL     1       3.511   7.035  17.406  0.00  0.00    +0.000 A 
ATOM     11  C   UNL     1       2.855   7.538  18.537  0.00  0.00    +0.000 A 
ATOM     12  C   UNL     1       2.578   6.695  19.599  0.00  0.00    +0.000 A 
ATOM     13  F   UNL     1       1.958   7.179  20.683  0.00  0.00    +0.000 F 
ATOM     14  C   UNL     1       2.924   5.354  19.538  0.00  0.00    +0.000 A 
ATOM     15  C   UNL     1       3.633   4.872  18.428  0.00  0.00    +0.000 A 
ENDBRANCH   2   9
BRANCH   6  16
ATOM     16  C   UNL     1       8.315   9.191  18.194  0.00  0.00    +0.000 A 
ATOM     17  C   UNL     1       9.281   9.596  19.112  0.00  0.00    +0.000 A 
ATOM     18  C   UNL     1       9.639  10.940  19.161  0.00  0.00    +0.000 A 
ATOM     19  C   UNL     1       9.025  11.836  18.296  0.00  0.00    +0.000 A 
ATOM     20  C   UNL     1       8.075  11.349  17.413  0.00  0.00    +0.000 A 
ATOM     21  N   UNL     1       7.706  10.051  17.341  0.00  0.00    +0.000 NA
ENDBRANCH   6  16
BRANCH   1  22
ATOM     22  C   UNL     1       7.097   4.449  15.344  0.00  0.00    +0.000 C 
BRANCH  22  24
ATOM     23  C   UNL     1       6.579   3.949  12.879  0.00  0.00    +0.000 C 
ATOM     24  C   UNL     1       7.130   4.937  13.894  0.00  0.00    +0.000 C 
ENDBRANCH  22  24
ENDBRANCH   1  22
TORSDOF 4
ENDMDL
MODEL 6
REMARK VINA RESULT:      -6.7      1.043      1.516
REMARK  Name = 
REMARK  5 active torsions:
REMARK  status: ('A' for Active; 'I' for Inactive)
REMARK    1  A    between atoms: C_1  and  C_2
REMARK    2  A    between atoms: C_2  and  C_3
REMARK    3  A    between atoms: C_3  and  N_4
REMARK    4  A    between atoms: C_5  and  C_7
REMARK    5  A    between atoms: C_16  and  C_17
REMARK                            x       y       z     vdW  Elec       q    Type
REMARK                         _______ _______ _______ _____ _____    ______ ____
ROOT
ATOM      1  N   UNL     1       3.187   3.855  19.103  0.00  0.00    +0.000 N 
ATOM      2  C   UNL     1       2.152   4.793  19.287  0.00  0.00    +0.000 C 
ATOM      3  O   UNL     1       1.097   4.455  19.842  0.00  0.00    +0.000 OA
ATOM      4  C   UNL     1       4.349   4.171  18.449  0.00  0.00    +0.000 A 
ATOM      5  N   UNL     1       4.546   4.021  17.161  0.00  0.00    +0.000 NA
ATOM      6  C   UNL     1       5.836   4.433  16.845  0.00  0.00    +0.000 A 
ATOM      7  C   UNL     1       6.602   4.824  17.928  0.00  0.00    +0.000 A 
ATOM      8  S   UNL     1       5.686   4.680  19.377  0.00  0.00    +0.000 S 
ENDROOT
BRANCH   2   9
ATOM      9  C   UNL     1       2.282   6.267  18.945  0.00  0.00    +0.000 A 
ATOM     10  C   UNL     1       1.984   7.341  19.794  0.00  0.00    +0.000 A 
ATOM     11  C   UNL     1       1.953   8.661  19.326  0.00  0.00    +0.000 A 
ATOM     12  C   UNL     1       2.325   8.933  18.022  0.00  0.00    +0.000 A 
ATOM     13  F   UNL     1       2.287  10.195  17.573  0.00  0.00    +0.000 F 
ATOM     14  C   UNL     1       2.750   7.912  17.187  0.00  0.00    +0.000 A 
ATOM     15  C   UNL     1       2.722   6.587  17.644  0.00  0.00    +0.000 A 
ENDBRANCH   2   9
BRANCH   6  16
ATOM     16  C   UNL     1       6.295   4.487  15.459  0.00  0.00    +0.000 A 
ATOM     17  C   UNL     1       5.688   3.692  14.489  0.00  0.00    +0.000 A 
ATOM     18  C   UNL     1       6.121   3.793  13.170  0.00  0.00    +0.000 A 
ATOM     19  C   UNL     1       7.143   4.680  12.860  0.00  0.00    +0.000 A 
ATOM     20  C   UNL     1       7.692   5.434  13.885  0.00  0.00    +0.000 A 
ATOM     21  N   UNL     1       7.293   5.360  15.174  0.00  0.00    +0.000 NA
ENDBRANCH   6  16
BRANCH   1  22
ATOM     22  C   UNL     1       3.077   2.506  19.679  0.00  0.00    +0.000 C 
BRANCH  22  24
ATOM     23  C   UNL     1       1.840   2.399  21.927  0.00  0.00    +0.000 C 
ATOM     24  C   UNL     1       3.176   2.412  21.203  0.00  0.00    +0.000 C 
ENDBRANCH  22  24
ENDBRANCH   1  22
TORSDOF 4
ENDMDL
MODEL 7
REMARK VINA RESULT:      -6.7      2.756      4.325
REMARK  Name = 
REMARK  5 active torsions:
REMARK  status: ('A' for Active; 'I' for Inactive)
REMARK    1  A    between atoms: C_1  and  C_2
REMARK    2  A    between atoms: C_2  and  C_3
REMARK    3  A    between atoms: C_3  and  N_4
REMARK    4  A    between atoms: C_5  and  C_7
REMARK    5  A    between atoms: C_16  and  C_17
REMARK                            x       y       z     vdW  Elec       q    Type
REMARK                         _______ _______ _______ _____ _____    ______ ____
ROOT
ATOM      1  N   UNL     1       6.326   5.332  17.940  0.00  0.00    +0.000 N 
ATOM      2  C   UNL     1       5.560   4.680  18.927  0.00  0.00    +0.000 C 
ATOM      3  O   UNL     1       5.959   4.642  20.099  0.00  0.00    +0.000 OA
ATOM      4  C   UNL     1       5.948   5.355  16.622  0.00  0.00    +0.000 A 
ATOM      5  N   UNL     1       6.310   4.467  15.727  0.00  0.00    +0.000 NA
ATOM      6  C   UNL     1       5.752   4.806  14.498  0.00  0.00    +0.000 A 
ATOM      7  C   UNL     1       5.034   5.988  14.492  0.00  0.00    +0.000 A 
ATOM      8  S   UNL     1       5.050   6.691  16.062  0.00  0.00    +0.000 S 
ENDROOT
BRANCH   2   9
ATOM      9  C   UNL     1       4.180   4.099  18.674  0.00  0.00    +0.000 A 
ATOM     10  C   UNL     1       2.977   4.817  18.633  0.00  0.00    +0.000 A 
ATOM     11  C   UNL     1       1.737   4.169  18.583  0.00  0.00    +0.000 A 
ATOM     12  C   UNL     1       1.688   2.791  18.467  0.00  0.00    +0.000 A 
ATOM     13  F   UNL     1       0.501   2.172  18.428  0.00  0.00    +0.000 F 
ATOM     14  C   UNL     1       2.859   2.054  18.375  0.00  0.00    +0.000 A 
ATOM     15  C   UNL     1       4.096   2.704  18.485  0.00  0.00    +0.000 A 
ENDBRANCH   2   9
BRANCH   6  16
ATOM     16  C   UNL     1       5.890   3.928  13.338  0.00  0.00    +0.000 A 
ATOM     17  C   UNL     1       4.758   3.423  12.703  0.00  0.00    +0.000 A 
ATOM     18  C   UNL     1       4.921   2.621  11.577  0.00  0.00    +0.000 A 
ATOM     19  C   UNL     1       6.204   2.348  11.121  0.00  0.00    +0.000 A 
ATOM     20  C   UNL     1       7.276   2.892  11.811  0.00  0.00    +0.000 A 
ATOM     21  N   UNL     1       7.150   3.674  12.905  0.00  0.00    +0.000 NA
ENDBRANCH   6  16
BRANCH   1  22
ATOM     22  C   UNL     1       7.537   6.079  18.313  0.00  0.00    +0.000 C 
BRANCH  22  24
ATOM     23  C   UNL     1       8.463   8.471  18.460  0.00  0.00    +0.000 C 
ATOM     24  C   UNL     1       7.735   7.431  17.623  0.00  0.00    +0.000 C 
ENDBRANCH  22  24
ENDBRANCH   1  22
TORSDOF 4
ENDMDL
MODEL 8
REMARK VINA RESULT:      -6.7      5.861      8.689
REMARK  Name = 
REMARK  5 active torsions:
REMARK  status: ('A' for Active; 'I' for Inactive)
REMARK    1  A    between atoms: C_1  and  C_2
REMARK    2  A    between atoms: C_2  and  C_3
REMARK    3  A    between atoms: C_3  and  N_4
REMARK    4  A    between atoms: C_5  and  C_7
REMARK    5  A    between atoms: C_16  and  C_17
REMARK                            x       y       z     vdW  Elec       q    Type
REMARK                         _______ _______ _______ _____ _____    ______ ____
ROOT
ATOM      1  N   UNL     1      -1.599  11.839  20.134  0.00  0.00    +0.000 N 
ATOM      2  C   UNL     1      -2.856  11.743  19.504  0.00  0.00    +0.000 C 
ATOM      3  O   UNL     1      -3.865  12.206  20.054  0.00  0.00    +0.000 OA
ATOM      4  C   UNL     1      -0.465  11.296  19.587  0.00  0.00    +0.000 A 
ATOM      5  N   UNL     1      -0.028  10.083  19.826  0.00  0.00    +0.000 NA
ATOM      6  C   UNL     1       1.147   9.872  19.112  0.00  0.00    +0.000 A 
ATOM      7  C   UNL     1       1.598  10.969  18.401  0.00  0.00    +0.000 A 
ATOM      8  S   UNL     1       0.526  12.295  18.623  0.00  0.00    +0.000 S 
ENDROOT
BRANCH   2   9
ATOM      9  C   UNL     1      -3.054  11.193  18.102  0.00  0.00    +0.000 A 
ATOM     10  C   UNL     1      -2.270  10.211  17.483  0.00  0.00    +0.000 A 
ATOM     11  C   UNL     1      -2.412   9.907  16.123  0.00  0.00    +0.000 A 
ATOM     12  C   UNL     1      -3.418  10.511  15.388  0.00  0.00    +0.000 A 
ATOM     13  F   UNL     1      -3.548  10.226  14.086  0.00  0.00    +0.000 F 
ATOM     14  C   UNL     1      -4.297  11.393  15.997  0.00  0.00    +0.000 A 
ATOM     15  C   UNL     1      -4.111  11.737  17.344  0.00  0.00    +0.000 A 
ENDBRANCH   2   9
BRANCH   6  16
ATOM     16  C   UNL     1       1.797   8.564  19.096  0.00  0.00    +0.000 A 
ATOM     17  C   UNL     1       2.527   8.158  17.981  0.00  0.00    +0.000 A 
ATOM     18  C   UNL     1       3.166   6.922  18.011  0.00  0.00    +0.000 A 
ATOM     19  C   UNL     1       3.059   6.132  19.147  0.00  0.00    +0.000 A 
ATOM     20  C   UNL     1       2.314   6.611  20.212  0.00  0.00    +0.000 A 
ATOM     21  N   UNL     1       1.682   7.806  20.215  0.00  0.00    +0.000 NA
ENDBRANCH   6  16
BRANCH   1  22
ATOM     22  C   UNL     1      -1.452  12.601  21.384  0.00  0.00    +0.000 C 
BRANCH  22  24
ATOM     23  C   UNL     1      -2.876  12.141  23.471  0.00  0.00    +0.000 C 
ATOM     24  C   UNL     1      -1.620  11.808  22.682  0.00  0.00    +0.000 C 
ENDBRANCH  22  24
ENDBRANCH   1  22
TORSDOF 4
ENDMDL
MODEL 9
REMARK VINA RESULT:      -6.6      6.752      9.459
REMARK  Name = 
REMARK  5 active torsions:
REMARK  status: ('A' for Active; 'I' for Inactive)
REMARK    1  A    between atoms: C_1  and  C_2
REMARK    2  A    between atoms: C_2  and  C_3
REMARK    3  A    between atoms: C_3  and  N_4
REMARK    4  A    between atoms: C_5  and  C_7
REMARK    5  A    between atoms: C_16  and  C_17
REMARK                            x       y       z     vdW  Elec       q    Type
REMARK                         _______ _______ _______ _____ _____    ______ ____
ROOT
ATOM      1  N   UNL     1       0.246  10.049  21.631  0.00  0.00    +0.000 N 
ATOM      2  C   UNL     1      -0.317  10.504  22.841  0.00  0.00    +0.000 C 
ATOM      3  O   UNL     1      -0.048   9.931  23.906  0.00  0.00    +0.000 OA
ATOM      4  C   UNL     1      -0.064  10.620  20.424  0.00  0.00    +0.000 A 
ATOM      5  N   UNL     1      -1.037  10.224  19.639  0.00  0.00    +0.000 NA
ATOM      6  C   UNL     1      -1.056  11.021  18.499  0.00  0.00    +0.000 A 
ATOM      7  C   UNL     1      -0.042  11.959  18.430  0.00  0.00    +0.000 A 
ATOM      8  S   UNL     1       0.954  11.850  19.827  0.00  0.00    +0.000 S 
ENDROOT
BRANCH   2   9
ATOM      9  C   UNL     1      -1.169  11.756  22.955  0.00  0.00    +0.000 A 
ATOM     10  C   UNL     1      -0.711  13.076  22.860  0.00  0.00    +0.000 A 
ATOM     11  C   UNL     1      -1.538  14.164  23.168  0.00  0.00    +0.000 A 
ATOM     12  C   UNL     1      -2.870  13.946  23.473  0.00  0.00    +0.000 A 
ATOM     13  F   UNL     1      -3.658  14.986  23.775  0.00  0.00    +0.000 F 
ATOM     14  C   UNL     1      -3.393  12.663  23.450  0.00  0.00    +0.000 A 
ATOM     15  C   UNL     1      -2.546  11.574  23.200  0.00  0.00    +0.000 A 
ENDBRANCH   2   9
BRANCH   6  16
ATOM     16  C   UNL     1      -2.111  10.883  17.497  0.00  0.00    +0.000 A 
ATOM     17  C   UNL     1      -2.007   9.918  16.499  0.00  0.00    +0.000 A 
ATOM     18  C   UNL     1      -3.046   9.785  15.582  0.00  0.00    +0.000 A 
ATOM     19  C   UNL     1      -4.153  10.616  15.689  0.00  0.00    +0.000 A 
ATOM     20  C   UNL     1      -4.177  11.549  16.714  0.00  0.00    +0.000 A 
ATOM     21  N   UNL     1      -3.185  11.702  17.619  0.00  0.00    +0.000 NA
ENDBRANCH   6  16
BRANCH   1  22
ATOM     22  C   UNL     1       1.253   8.976  21.637  0.00  0.00    +0.000 C 
BRANCH  22  24
ATOM     23  C   UNL     1       1.898   6.771  20.489  0.00  0.00    +0.000 C 
ATOM     24  C   UNL     1       1.430   8.208  20.325  0.00  0.00    +0.000 C 
ENDBRANCH  22  24
ENDBRANCH   1  22
TORSDOF 4
ENDMDL
