MODEL 1
REMARK VINA RESULT:      -7.3      0.000      0.000
REMARK  Name = 
REMARK  2 active torsions:
REMARK  status: ('A' for Active; 'I' for Inactive)
REMARK    1  A    between atoms: C_2  and  C_4
REMARK    2  A    between atoms: C_9  and  C_10
REMARK                            x       y       z     vdW  Elec       q    Type
REMARK                         _______ _______ _______ _____ _____    ______ ____
ROOT
ATOM      1  C   UNL     1       3.402   3.213  19.939  0.00  0.00    +0.000 C 
ATOM      2  C   UNL     1       2.114   3.171  20.307  0.00  0.00    +0.000 C 
ATOM      3  S   UNL     1       1.367   4.729  20.385  0.00  0.00    +0.000 S 
ATOM      4  C   UNL     1       2.997   5.564  20.080  0.00  0.00    +0.000 C 
ATOM      5  C   UNL     1       3.270   6.138  18.709  0.00  0.00    +0.000 C 
ATOM      6  C   UNL     1       2.930   7.238  18.033  0.00  0.00    +0.000 C 
ATOM      7  C   UNL     1       4.016   4.926  18.397  0.00  0.00    +0.000 C 
ATOM      8  O   UNL     1       4.335   4.398  17.344  0.00  0.00    +0.000 OA
ATOM      9  N   UNL     1       3.920   4.478  19.685  0.00  0.00    +0.000 N 
ENDROOT
BRANCH   6  10
ATOM     10  C   UNL     1       2.074   8.239  18.583  0.00  0.00    +0.000 A 
ATOM     11  C   UNL     1       1.394   9.237  17.834  0.00  0.00    +0.000 A 
ATOM     12  C   UNL     1       0.653   9.941  18.758  0.00  0.00    +0.000 A 
ATOM     13  N   UNL     1       0.915   9.354  19.957  0.00  0.00    +0.000 N 
ATOM     14  N   UNL     1       1.780   8.336  19.888  0.00  0.00    +0.000 NA
ATOM     15  C   UNL     1       0.420   9.823  21.232  0.00  0.00    +0.000 C 
ATOM     16  C   UNL     1      -0.600  10.938  21.032  0.00  0.00    +0.000 C 
ATOM     17  O   UNL     1      -0.250  11.783  19.929  0.00  0.00    +0.000 OA
ATOM     18  C   UNL     1      -0.277  11.087  18.675  0.00  0.00    +0.000 C 
ENDBRANCH   6  10
BRANCH   1  20
ATOM     19  O   UNL     1       3.710   1.360  18.523  0.00  0.00    +0.000 OA
ATOM     20  C   UNL     1       4.139   1.913  19.595  0.00  0.00    +0.000 C 
ATOM     21  O   UNL     1       5.163   1.632  20.255  0.00  0.00    +0.000 OA
ENDBRANCH   1  20
TORSDOF 2
ENDMDL
MODEL 2
REMARK VINA RESULT:      -7.0      0.839      1.495
REMARK  Name = 
REMARK  2 active torsions:
REMARK  status: ('A' for Active; 'I' for Inactive)
REMARK    1  A    between atoms: C_2  and  C_4
REMARK    2  A    between atoms: C_9  and  C_10
REMARK                            x       y       z     vdW  Elec       q    Type
REMARK                         _______ _______ _______ _____ _____    ______ ____
ROOT
ATOM      1  C   UNL     1       3.388   3.354  19.846  0.00  0.00    +0.000 C 
ATOM      2  C   UNL     1       2.128   3.281  20.297  0.00  0.00    +0.000 C 
ATOM      3  S   UNL     1       1.358   4.823  20.445  0.00  0.00    +0.000 S 
ATOM      4  C   UNL     1       2.948   5.695  20.045  0.00  0.00    +0.000 C 
ATOM      5  C   UNL     1       3.119   6.291  18.667  0.00  0.00    +0.000 C 
ATOM      6  C   UNL     1       2.713   7.392  18.030  0.00  0.00    +0.000 C 
ATOM      7  C   UNL     1       3.866   5.098  18.291  0.00  0.00    +0.000 C 
ATOM      8  O   UNL     1       4.125   4.590  17.212  0.00  0.00    +0.000 OA
ATOM      9  N   UNL     1       3.863   4.632  19.576  0.00  0.00    +0.000 N 
ENDROOT
BRANCH   6  10
ATOM     10  C   UNL     1       1.876   8.369  18.649  0.00  0.00    +0.000 A 
ATOM     11  C   UNL     1       1.698   8.525  20.049  0.00  0.00    +0.000 A 
ATOM     12  C   UNL     1       0.857   9.608  20.188  0.00  0.00    +0.000 A 
ATOM     13  N   UNL     1       0.588  10.024  18.922  0.00  0.00    +0.000 N 
ATOM     14  N   UNL     1       1.175   9.289  17.971  0.00  0.00    +0.000 NA
ATOM     15  C   UNL     1      -0.329  11.087  18.578  0.00  0.00    +0.000 C 
ATOM     16  C   UNL     1      -0.800  11.813  19.833  0.00  0.00    +0.000 C 
ATOM     17  O   UNL     1      -0.966  10.912  20.935  0.00  0.00    +0.000 OA
ATOM     18  C   UNL     1       0.273  10.317  21.347  0.00  0.00    +0.000 C 
ENDBRANCH   6  10
BRANCH   1  20
ATOM     19  O   UNL     1       5.030   1.725  20.274  0.00  0.00    +0.000 OA
ATOM     20  C   UNL     1       4.126   2.074  19.437  0.00  0.00    +0.000 C 
ATOM     21  O   UNL     1       3.669   1.420  18.474  0.00  0.00    +0.000 OA
ENDBRANCH   1  20
TORSDOF 2
ENDMDL
MODEL 3
REMARK VINA RESULT:      -6.8      4.428      7.423
REMARK  Name = 
REMARK  2 active torsions:
REMARK  status: ('A' for Active; 'I' for Inactive)
REMARK    1  A    between atoms: C_2  and  C_4
REMARK    2  A    between atoms: C_9  and  C_10
REMARK                            x       y       z     vdW  Elec       q    Type
REMARK                         _______ _______ _______ _____ _____    ______ ____
ROOT
ATOM      1  C   UNL     1       2.567   4.678  19.350  0.00  0.00    +0.000 C 
ATOM      2  C   UNL     1       2.049   3.790  18.491  0.00  0.00    +0.000 C 
ATOM      3  S   UNL     1       2.899   3.710  16.986  0.00  0.00    +0.000 S 
ATOM      4  C   UNL     1       3.957   5.158  17.466  0.00  0.00    +0.000 C 
ATOM      5  C   UNL     1       5.382   4.902  17.897  0.00  0.00    +0.000 C 
ATOM      6  C   UNL     1       6.545   4.645  17.295  0.00  0.00    +0.000 C 
ATOM      7  C   UNL     1       4.932   4.978  19.280  0.00  0.00    +0.000 C 
ATOM      8  O   UNL     1       5.402   4.564  20.328  0.00  0.00    +0.000 OA
ATOM      9  N   UNL     1       3.681   5.378  18.902  0.00  0.00    +0.000 N 
ENDROOT
BRANCH   6  10
ATOM     10  C   UNL     1       6.663   4.527  15.877  0.00  0.00    +0.000 A 
ATOM     11  C   UNL     1       5.917   3.631  15.065  0.00  0.00    +0.000 A 
ATOM     12  C   UNL     1       6.315   3.896  13.773  0.00  0.00    +0.000 A 
ATOM     13  N   UNL     1       7.236   4.892  13.874  0.00  0.00    +0.000 N 
ATOM     14  N   UNL     1       7.479   5.284  15.129  0.00  0.00    +0.000 NA
ATOM     15  C   UNL     1       7.992   5.433  12.767  0.00  0.00    +0.000 C 
ATOM     16  C   UNL     1       7.474   4.880  11.445  0.00  0.00    +0.000 C 
ATOM     17  O   UNL     1       7.066   3.512  11.567  0.00  0.00    +0.000 OA
ATOM     18  C   UNL     1       5.947   3.351  12.449  0.00  0.00    +0.000 C 
ENDBRANCH   6  10
BRANCH   1  20
ATOM     19  O   UNL     1       1.520   5.808  21.128  0.00  0.00    +0.000 OA
ATOM     20  C   UNL     1       2.080   4.704  20.804  0.00  0.00    +0.000 C 
ATOM     21  O   UNL     1       2.104   3.630  21.446  0.00  0.00    +0.000 OA
ENDBRANCH   1  20
TORSDOF 2
ENDMDL
MODEL 4
REMARK VINA RESULT:      -6.8      1.078      1.419
REMARK  Name = 
REMARK  2 active torsions:
REMARK  status: ('A' for Active; 'I' for Inactive)
REMARK    1  A    between atoms: C_2  and  C_4
REMARK    2  A    between atoms: C_9  and  C_10
REMARK                            x       y       z     vdW  Elec       q    Type
REMARK                         _______ _______ _______ _____ _____    ______ ____
ROOT
ATOM      1  C   UNL     1       2.934   3.189  19.441  0.00  0.00    +0.000 C 
ATOM      2  C   UNL     1       1.696   3.077  19.941  0.00  0.00    +0.000 C 
ATOM      3  S   UNL     1       1.043   4.576  20.507  0.00  0.00    +0.000 S 
ATOM      4  C   UNL     1       2.668   5.430  20.227  0.00  0.00    +0.000 C 
ATOM      5  C   UNL     1       2.811   6.336  19.027  0.00  0.00    +0.000 C 
ATOM      6  C   UNL     1       2.451   7.580  18.702  0.00  0.00    +0.000 C 
ATOM      7  C   UNL     1       3.453   5.232  18.325  0.00  0.00    +0.000 C 
ATOM      8  O   UNL     1       3.622   4.991  17.141  0.00  0.00    +0.000 OA
ATOM      9  N   UNL     1       3.482   4.467  19.457  0.00  0.00    +0.000 N 
ENDROOT
BRANCH   6  10
ATOM     10  C   UNL     1       1.715   8.420  19.592  0.00  0.00    +0.000 A 
ATOM     11  C   UNL     1       1.048   9.618  19.223  0.00  0.00    +0.000 A 
ATOM     12  C   UNL     1       0.437  10.062  20.375  0.00  0.00    +0.000 A 
ATOM     13  N   UNL     1       0.755   9.147  21.330  0.00  0.00    +0.000 N 
ATOM     14  N   UNL     1       1.537   8.154  20.894  0.00  0.00    +0.000 NA
ATOM     15  C   UNL     1       0.399   9.254  22.728  0.00  0.00    +0.000 C 
ATOM     16  C   UNL     1      -0.552  10.423  22.949  0.00  0.00    +0.000 C 
ATOM     17  O   UNL     1      -0.236  11.532  22.097  0.00  0.00    +0.000 OA
ATOM     18  C   UNL     1      -0.415  11.224  20.708  0.00  0.00    +0.000 C 
ENDBRANCH   6  10
BRANCH   1  20
ATOM     19  O   UNL     1       4.425   1.371  19.381  0.00  0.00    +0.000 OA
ATOM     20  C   UNL     1       3.560   2.010  18.687  0.00  0.00    +0.000 C 
ATOM     21  O   UNL     1       3.053   1.684  17.590  0.00  0.00    +0.000 OA
ENDBRANCH   1  20
TORSDOF 2
ENDMDL
MODEL 5
REMARK VINA RESULT:      -6.8      1.361      2.021
REMARK  Name = 
REMARK  2 active torsions:
REMARK  status: ('A' for Active; 'I' for Inactive)
REMARK    1  A    between atoms: C_2  and  C_4
REMARK    2  A    between atoms: C_9  and  C_10
REMARK                            x       y       z     vdW  Elec       q    Type
REMARK                         _______ _______ _______ _____ _____    ______ ____
ROOT
ATOM      1  C   UNL     1       2.924   3.167  19.456  0.00  0.00    +0.000 C 
ATOM      2  C   UNL     1       1.676   3.006  19.917  0.00  0.00    +0.000 C 
ATOM      3  S   UNL     1       0.983   4.457  20.553  0.00  0.00    +0.000 S 
ATOM      4  C   UNL     1       2.598   5.353  20.365  0.00  0.00    +0.000 C 
ATOM      5  C   UNL     1       2.754   6.330  19.223  0.00  0.00    +0.000 C 
ATOM      6  C   UNL     1       2.381   7.585  18.963  0.00  0.00    +0.000 C 
ATOM      7  C   UNL     1       3.434   5.280  18.476  0.00  0.00    +0.000 C 
ATOM      8  O   UNL     1       3.637   5.112  17.284  0.00  0.00    +0.000 OA
ATOM      9  N   UNL     1       3.449   4.450  19.561  0.00  0.00    +0.000 N 
ENDROOT
BRANCH   6  10
ATOM     10  C   UNL     1       1.608   8.359  19.881  0.00  0.00    +0.000 A 
ATOM     11  C   UNL     1       1.493   8.102  21.273  0.00  0.00    +0.000 A 
ATOM     12  C   UNL     1       0.703   9.118  21.765  0.00  0.00    +0.000 A 
ATOM     13  N   UNL     1       0.399   9.894  20.690  0.00  0.00    +0.000 N 
ATOM     14  N   UNL     1       0.917   9.455  19.537  0.00  0.00    +0.000 NA
ATOM     15  C   UNL     1      -0.489  11.035  20.718  0.00  0.00    +0.000 C 
ATOM     16  C   UNL     1      -0.879  11.372  22.152  0.00  0.00    +0.000 C 
ATOM     17  O   UNL     1      -1.036  10.192  22.950  0.00  0.00    +0.000 OA
ATOM     18  C   UNL     1       0.194   9.470  23.107  0.00  0.00    +0.000 C 
ENDBRANCH   6  10
BRANCH   1  20
ATOM     19  O   UNL     1       4.437   1.370  19.334  0.00  0.00    +0.000 OA
ATOM     20  C   UNL     1       3.589   2.044  18.651  0.00  0.00    +0.000 C 
ATOM     21  O   UNL     1       3.125   1.785  17.519  0.00  0.00    +0.000 OA
ENDBRANCH   1  20
TORSDOF 2
ENDMDL
MODEL 6
REMARK VINA RESULT:      -6.7      2.325      7.397
REMARK  Name = 
REMARK  2 active torsions:
REMARK  status: ('A' for Active; 'I' for Inactive)
REMARK    1  A    between atoms: C_2  and  C_4
REMARK    2  A    between atoms: C_9  and  C_10
REMARK                            x       y       z     vdW  Elec       q    Type
REMARK                         _______ _______ _______ _____ _____    ______ ____
ROOT
ATOM      1  C   UNL     1       0.338  11.667  19.552  0.00  0.00    +0.000 C 
ATOM      2  C   UNL     1       0.307  11.209  20.811  0.00  0.00    +0.000 C 
ATOM      3  S   UNL     1       0.558   9.501  20.929  0.00  0.00    +0.000 S 
ATOM      4  C   UNL     1       0.510   9.331  19.081  0.00  0.00    +0.000 C 
ATOM      5  C   UNL     1       1.811   9.128  18.340  0.00  0.00    +0.000 C 
ATOM      6  C   UNL     1       2.645   8.112  18.105  0.00  0.00    +0.000 C 
ATOM      7  C   UNL     1       1.816  10.555  18.047  0.00  0.00    +0.000 C 
ATOM      8  O   UNL     1       2.704  11.333  17.736  0.00  0.00    +0.000 OA
ATOM      9  N   UNL     1       0.562  10.715  18.564  0.00  0.00    +0.000 N 
ENDROOT
BRANCH   6  10
ATOM     10  C   UNL     1       2.420   6.802  18.625  0.00  0.00    +0.000 A 
ATOM     11  C   UNL     1       2.140   5.649  17.845  0.00  0.00    +0.000 A 
ATOM     12  C   UNL     1       2.048   4.613  18.749  0.00  0.00    +0.000 A 
ATOM     13  N   UNL     1       2.269   5.175  19.968  0.00  0.00    +0.000 N 
ATOM     14  N   UNL     1       2.481   6.495  19.929  0.00  0.00    +0.000 NA
ATOM     15  C   UNL     1       2.182   4.474  21.229  0.00  0.00    +0.000 C 
ATOM     16  C   UNL     1       2.009   2.978  20.998  0.00  0.00    +0.000 C 
ATOM     17  O   UNL     1       1.189   2.710  19.853  0.00  0.00    +0.000 OA
ATOM     18  C   UNL     1       1.790   3.162  18.632  0.00  0.00    +0.000 C 
ENDBRANCH   6  10
BRANCH   1  20
ATOM     19  O   UNL     1       1.204  13.800  20.038  0.00  0.00    +0.000 OA
ATOM     20  C   UNL     1       0.369  13.178  19.293  0.00  0.00    +0.000 C 
ATOM     21  O   UNL     1      -0.253  13.612  18.297  0.00  0.00    +0.000 OA
ENDBRANCH   1  20
TORSDOF 2
ENDMDL
MODEL 7
REMARK VINA RESULT:      -6.6      1.815      7.296
REMARK  Name = 
REMARK  2 active torsions:
REMARK  status: ('A' for Active; 'I' for Inactive)
REMARK    1  A    between atoms: C_2  and  C_4
REMARK    2  A    between atoms: C_9  and  C_10
REMARK                            x       y       z     vdW  Elec       q    Type
REMARK                         _______ _______ _______ _____ _____    ______ ____
ROOT
ATOM      1  C   UNL     1       0.558  10.769  20.439  0.00  0.00    +0.000 C 
ATOM      2  C   UNL     1       0.901  10.128  21.564  0.00  0.00    +0.000 C 
ATOM      3  S   UNL     1       1.366   8.482  21.306  0.00  0.00    +0.000 S 
ATOM      4  C   UNL     1       0.869   8.585  19.520  0.00  0.00    +0.000 C 
ATOM      5  C   UNL     1       1.953   8.701  18.473  0.00  0.00    +0.000 C 
ATOM      6  C   UNL     1       2.809   7.874  17.869  0.00  0.00    +0.000 C 
ATOM      7  C   UNL     1       1.720  10.139  18.455  0.00  0.00    +0.000 C 
ATOM      8  O   UNL     1       2.405  11.083  18.094  0.00  0.00    +0.000 OA
ATOM      9  N   UNL     1       0.629  10.022  19.269  0.00  0.00    +0.000 N 
ENDROOT
BRANCH   6  10
ATOM     10  C   UNL     1       2.874   6.481  18.177  0.00  0.00    +0.000 A 
ATOM     11  C   UNL     1       1.874   5.525  17.858  0.00  0.00    +0.000 A 
ATOM     12  C   UNL     1       2.376   4.317  18.291  0.00  0.00    +0.000 A 
ATOM     13  N   UNL     1       3.596   4.601  18.823  0.00  0.00    +0.000 N 
ATOM     14  N   UNL     1       3.918   5.898  18.784  0.00  0.00    +0.000 NA
ATOM     15  C   UNL     1       4.453   3.643  19.484  0.00  0.00    +0.000 C 
ATOM     16  C   UNL     1       3.899   2.232  19.325  0.00  0.00    +0.000 C 
ATOM     17  O   UNL     1       2.466   2.218  19.370  0.00  0.00    +0.000 OA
ATOM     18  C   UNL     1       1.876   2.926  18.271  0.00  0.00    +0.000 C 
ENDBRANCH   6  10
BRANCH   1  20
ATOM     19  O   UNL     1      -0.489  12.694  19.583  0.00  0.00    +0.000 OA
ATOM     20  C   UNL     1       0.349  12.288  20.462  0.00  0.00    +0.000 C 
ATOM     21  O   UNL     1       0.847  12.931  21.413  0.00  0.00    +0.000 OA
ENDBRANCH   1  20
TORSDOF 2
ENDMDL
MODEL 8
REMARK VINA RESULT:      -6.6      1.747      7.338
REMARK  Name = 
REMARK  2 active torsions:
REMARK  status: ('A' for Active; 'I' for Inactive)
REMARK    1  A    between atoms: C_2  and  C_4
REMARK    2  A    between atoms: C_9  and  C_10
REMARK                            x       y       z     vdW  Elec       q    Type
REMARK                         _______ _______ _______ _____ _____    ______ ____
ROOT
ATOM      1  C   UNL     1       0.545  10.725  20.416  0.00  0.00    +0.000 C 
ATOM      2  C   UNL     1       0.894  10.089  21.543  0.00  0.00    +0.000 C 
ATOM      3  S   UNL     1       1.388   8.452  21.286  0.00  0.00    +0.000 S 
ATOM      4  C   UNL     1       0.900   8.548  19.498  0.00  0.00    +0.000 C 
ATOM      5  C   UNL     1       1.987   8.682  18.457  0.00  0.00    +0.000 C 
ATOM      6  C   UNL     1       2.860   7.871  17.857  0.00  0.00    +0.000 C 
ATOM      7  C   UNL     1       1.730  10.116  18.438  0.00  0.00    +0.000 C 
ATOM      8  O   UNL     1       2.400  11.072  18.082  0.00  0.00    +0.000 OA
ATOM      9  N   UNL     1       0.636   9.980  19.245  0.00  0.00    +0.000 N 
ENDROOT
BRANCH   6  10
ATOM     10  C   UNL     1       2.948   6.479  18.165  0.00  0.00    +0.000 A 
ATOM     11  C   UNL     1       4.051   5.850  18.802  0.00  0.00    +0.000 A 
ATOM     12  C   UNL     1       3.683   4.530  18.942  0.00  0.00    +0.000 A 
ATOM     13  N   UNL     1       2.435   4.442  18.407  0.00  0.00    +0.000 N 
ATOM     14  N   UNL     1       1.971   5.596  17.916  0.00  0.00    +0.000 NA
ATOM     15  C   UNL     1       1.685   3.215  18.256  0.00  0.00    +0.000 C 
ATOM     16  C   UNL     1       2.394   2.066  18.962  0.00  0.00    +0.000 C 
ATOM     17  O   UNL     1       3.819   2.173  18.850  0.00  0.00    +0.000 OA
ATOM     18  C   UNL     1       4.334   3.334  19.517  0.00  0.00    +0.000 C 
ENDBRANCH   6  10
BRANCH   1  20
ATOM     19  O   UNL     1      -0.501  12.637  19.530  0.00  0.00    +0.000 OA
ATOM     20  C   UNL     1       0.310  12.240  20.438  0.00  0.00    +0.000 C 
ATOM     21  O   UNL     1       0.760  12.886  21.410  0.00  0.00    +0.000 OA
ENDBRANCH   1  20
TORSDOF 2
ENDMDL
MODEL 9
REMARK VINA RESULT:      -6.5      1.609      2.496
REMARK  Name = 
REMARK  2 active torsions:
REMARK  status: ('A' for Active; 'I' for Inactive)
REMARK    1  A    between atoms: C_2  and  C_4
REMARK    2  A    between atoms: C_9  and  C_10
REMARK                            x       y       z     vdW  Elec       q    Type
REMARK                         _______ _______ _______ _____ _____    ______ ____
ROOT
ATOM      1  C   UNL     1       3.706   3.500  19.110  0.00  0.00    +0.000 C 
ATOM      2  C   UNL     1       4.660   4.378  18.772  0.00  0.00    +0.000 C 
ATOM      3  S   UNL     1       4.120   6.021  18.786  0.00  0.00    +0.000 S 
ATOM      4  C   UNL     1       2.370   5.481  19.090  0.00  0.00    +0.000 C 
ATOM      5  C   UNL     1       1.797   5.637  20.479  0.00  0.00    +0.000 C 
ATOM      6  C   UNL     1       1.293   6.630  21.214  0.00  0.00    +0.000 C 
ATOM      7  C   UNL     1       2.102   4.231  20.715  0.00  0.00    +0.000 C 
ATOM      8  O   UNL     1       2.252   3.577  21.734  0.00  0.00    +0.000 OA
ATOM      9  N   UNL     1       2.461   4.041  19.411  0.00  0.00    +0.000 N 
ENDROOT
BRANCH   6  10
ATOM     10  C   UNL     1       1.210   7.972  20.733  0.00  0.00    +0.000 A 
ATOM     11  C   UNL     1       0.711   9.077  21.472  0.00  0.00    +0.000 A 
ATOM     12  C   UNL     1       0.867  10.167  20.644  0.00  0.00    +0.000 A 
ATOM     13  N   UNL     1       1.428   9.679  19.504  0.00  0.00    +0.000 N 
ATOM     14  N   UNL     1       1.632   8.358  19.520  0.00  0.00    +0.000 NA
ATOM     15  C   UNL     1       1.692  10.457  18.314  0.00  0.00    +0.000 C 
ATOM     16  C   UNL     1       1.447  11.938  18.579  0.00  0.00    +0.000 C 
ATOM     17  O   UNL     1       0.335  12.141  19.460  0.00  0.00    +0.000 OA
ATOM     18  C   UNL     1       0.572  11.610  20.772  0.00  0.00    +0.000 C 
ENDBRANCH   6  10
BRANCH   1  20
ATOM     19  O   UNL     1       3.600   1.230  18.501  0.00  0.00    +0.000 OA
ATOM     20  C   UNL     1       4.078   2.036  19.374  0.00  0.00    +0.000 C 
ATOM     21  O   UNL     1       4.927   1.801  20.262  0.00  0.00    +0.000 OA
ENDBRANCH   1  20
TORSDOF 2
ENDMDL
