MODEL 1
REMARK VINA RESULT:      -7.8      0.000      0.000
REMARK  Name = 
REMARK  5 active torsions:
REMARK  status: ('A' for Active; 'I' for Inactive)
REMARK    1  A    between atoms: C_2  and  C_3
REMARK    2  A    between atoms: C_4  and  C_5
REMARK    3  A    between atoms: C_10  and  O_11
REMARK    4  A    between atoms: O_11  and  C_12
REMARK    5  A    between atoms: N_20  and  O_21
REMARK                            x       y       z     vdW  Elec       q    Type
REMARK                         _______ _______ _______ _____ _____    ______ ____
ROOT
ATOM      1  C   UNL     1       6.088   5.082  16.727  0.00  0.00    +0.000 A 
ATOM      2  C   UNL     1       7.241   5.809  17.096  0.00  0.00    +0.000 A 
ATOM      3  C   UNL     1       7.555   6.070  18.431  0.00  0.00    +0.000 A 
ATOM      4  C   UNL     1       6.752   5.558  19.438  0.00  0.00    +0.000 A 
ATOM      5  C   UNL     1       5.623   4.813  19.107  0.00  0.00    +0.000 A 
ATOM      6  C   UNL     1       5.234   4.641  17.761  0.00  0.00    +0.000 A 
ENDROOT
BRANCH   1   8
ATOM      7  C   UNL     1       6.657   3.972  14.504  0.00  0.00    +0.000 C 
ATOM      8  C   UNL     1       5.968   4.823  15.278  0.00  0.00    +0.000 C 
BRANCH   7  10
ATOM      9  O   UNL     1       5.623   3.278  12.462  0.00  0.00    +0.000 OA
ATOM     10  C   UNL     1       6.444   4.001  13.029  0.00  0.00    +0.000 C 
ATOM     11  N   UNL     1       7.136   4.955  12.342  0.00  0.00    +0.000 N 
ATOM     12  H   UNL     1       7.113   4.902  11.330  0.00  0.00    +0.000 HD
BRANCH  11  13
ATOM     13  O   UNL     1       8.264   5.564  12.923  0.00  0.00    +0.000 OA
ATOM     14  H   UNL     1       8.999   5.077  12.500  0.00  0.00    +0.000 HD
ENDBRANCH  11  13
ENDBRANCH   7  10
ENDBRANCH   1   8
BRANCH   6  15
ATOM     15  O   UNL     1       4.008   4.068  17.452  0.00  0.00    +0.000 OA
BRANCH  15  16
ATOM     16  C   UNL     1       3.052   3.961  18.453  0.00  0.00    +0.000 A 
ATOM     17  C   UNL     1       2.306   5.046  18.950  0.00  0.00    +0.000 A 
ATOM     18 CL   UNL     1       2.347   6.630  18.252  0.00  0.00    +0.000 Cl
ATOM     19  C   UNL     1       1.452   4.877  20.047  0.00  0.00    +0.000 A 
ATOM     20  C   UNL     1       1.242   3.613  20.592  0.00  0.00    +0.000 A 
ATOM     21  C   UNL     1       1.895   2.511  20.042  0.00  0.00    +0.000 A 
ATOM     22  C   UNL     1       2.804   2.685  18.987  0.00  0.00    +0.000 A 
ATOM     23 CL   UNL     1       3.617   1.280  18.392  0.00  0.00    +0.000 Cl
ENDBRANCH  15  16
ENDBRANCH   6  15
TORSDOF 5
ENDMDL
MODEL 2
REMARK VINA RESULT:      -7.7      0.210      2.005
REMARK  Name = 
REMARK  5 active torsions:
REMARK  status: ('A' for Active; 'I' for Inactive)
REMARK    1  A    between atoms: C_2  and  C_3
REMARK    2  A    between atoms: C_4  and  C_5
REMARK    3  A    between atoms: C_10  and  O_11
REMARK    4  A    between atoms: O_11  and  C_12
REMARK    5  A    between atoms: N_20  and  O_21
REMARK                            x       y       z     vdW  Elec       q    Type
REMARK                         _______ _______ _______ _____ _____    ______ ____
ROOT
ATOM      1  C   UNL     1       6.016   4.997  16.720  0.00  0.00    +0.000 A 
ATOM      2  C   UNL     1       7.258   5.551  17.100  0.00  0.00    +0.000 A 
ATOM      3  C   UNL     1       7.577   5.806  18.436  0.00  0.00    +0.000 A 
ATOM      4  C   UNL     1       6.683   5.456  19.434  0.00  0.00    +0.000 A 
ATOM      5  C   UNL     1       5.460   4.881  19.093  0.00  0.00    +0.000 A 
ATOM      6  C   UNL     1       5.081   4.726  17.743  0.00  0.00    +0.000 A 
ENDROOT
BRANCH   1   8
ATOM      7  C   UNL     1       6.681   3.974  14.482  0.00  0.00    +0.000 C 
ATOM      8  C   UNL     1       5.892   4.711  15.277  0.00  0.00    +0.000 C 
BRANCH   7  10
ATOM      9  O   UNL     1       5.592   3.204  12.496  0.00  0.00    +0.000 OA
ATOM     10  C   UNL     1       6.418   3.958  13.014  0.00  0.00    +0.000 C 
ATOM     11  N   UNL     1       7.067   4.905  12.279  0.00  0.00    +0.000 N 
ATOM     12  H   UNL     1       7.012   4.824  11.271  0.00  0.00    +0.000 HD
BRANCH  11  13
ATOM     13  O   UNL     1       8.202   5.552  12.804  0.00  0.00    +0.000 OA
ATOM     14  H   UNL     1       8.459   6.142  12.068  0.00  0.00    +0.000 HD
ENDBRANCH  11  13
ENDBRANCH   7  10
ENDBRANCH   1   8
BRANCH   6  15
ATOM     15  O   UNL     1       3.789   4.337  17.416  0.00  0.00    +0.000 OA
BRANCH  15  16
ATOM     16  C   UNL     1       2.925   3.972  18.439  0.00  0.00    +0.000 A 
ATOM     17  C   UNL     1       2.754   2.651  18.892  0.00  0.00    +0.000 A 
ATOM     18 CL   UNL     1       3.734   1.326  18.360  0.00  0.00    +0.000 Cl
ATOM     19  C   UNL     1       1.771   2.348  19.843  0.00  0.00    +0.000 A 
ATOM     20  C   UNL     1       1.024   3.363  20.436  0.00  0.00    +0.000 A 
ATOM     21  C   UNL     1       1.256   4.688  20.073  0.00  0.00    +0.000 A 
ATOM     22  C   UNL     1       2.192   4.991  19.071  0.00  0.00    +0.000 A 
ATOM     23 CL   UNL     1       2.387   6.652  18.635  0.00  0.00    +0.000 Cl
ENDBRANCH  15  16
ENDBRANCH   6  15
TORSDOF 5
ENDMDL
MODEL 3
REMARK VINA RESULT:      -7.6      3.425      5.519
REMARK  Name = 
REMARK  5 active torsions:
REMARK  status: ('A' for Active; 'I' for Inactive)
REMARK    1  A    between atoms: C_2  and  C_3
REMARK    2  A    between atoms: C_4  and  C_5
REMARK    3  A    between atoms: C_10  and  O_11
REMARK    4  A    between atoms: O_11  and  C_12
REMARK    5  A    between atoms: N_20  and  O_21
REMARK                            x       y       z     vdW  Elec       q    Type
REMARK                         _______ _______ _______ _____ _____    ______ ____
ROOT
ATOM      1  C   UNL     1       3.617   4.084  19.492  0.00  0.00    +0.000 A 
ATOM      2  C   UNL     1       3.181   2.744  19.405  0.00  0.00    +0.000 A 
ATOM      3  C   UNL     1       1.861   2.376  19.675  0.00  0.00    +0.000 A 
ATOM      4  C   UNL     1       0.926   3.351  19.982  0.00  0.00    +0.000 A 
ATOM      5  C   UNL     1       1.319   4.686  20.046  0.00  0.00    +0.000 A 
ATOM      6  C   UNL     1       2.672   5.055  19.889  0.00  0.00    +0.000 A 
ENDROOT
BRANCH   1   8
ATOM      7  C   UNL     1       5.910   5.198  19.521  0.00  0.00    +0.000 C 
ATOM      8  C   UNL     1       5.019   4.298  19.080  0.00  0.00    +0.000 C 
BRANCH   7  10
ATOM      9  O   UNL     1       7.347   5.275  17.610  0.00  0.00    +0.000 OA
ATOM     10  C   UNL     1       7.230   5.305  18.836  0.00  0.00    +0.000 C 
ATOM     11  N   UNL     1       8.304   5.546  19.641  0.00  0.00    +0.000 N 
ATOM     12  H   UNL     1       9.222   5.483  19.216  0.00  0.00    +0.000 HD
BRANCH  11  13
ATOM     13  O   UNL     1       8.224   5.290  21.023  0.00  0.00    +0.000 OA
ATOM     14  H   UNL     1       9.067   4.824  21.193  0.00  0.00    +0.000 HD
ENDBRANCH  11  13
ENDBRANCH   7  10
ENDBRANCH   1   8
BRANCH   6  15
ATOM     15  O   UNL     1       3.081   6.355  20.150  0.00  0.00    +0.000 OA
BRANCH  15  16
ATOM     16  C   UNL     1       2.490   7.394  19.441  0.00  0.00    +0.000 A 
ATOM     17  C   UNL     1       2.784   7.698  18.099  0.00  0.00    +0.000 A 
ATOM     18 CL   UNL     1       3.785   6.706  17.093  0.00  0.00    +0.000 Cl
ATOM     19  C   UNL     1       2.240   8.838  17.494  0.00  0.00    +0.000 A 
ATOM     20  C   UNL     1       1.313   9.625  18.174  0.00  0.00    +0.000 A 
ATOM     21  C   UNL     1       0.933   9.275  19.468  0.00  0.00    +0.000 A 
ATOM     22  C   UNL     1       1.527   8.173  20.103  0.00  0.00    +0.000 A 
ATOM     23 CL   UNL     1       1.045   7.831  21.728  0.00  0.00    +0.000 Cl
ENDBRANCH  15  16
ENDBRANCH   6  15
TORSDOF 5
ENDMDL
MODEL 4
REMARK VINA RESULT:      -7.6      3.434      5.488
REMARK  Name = 
REMARK  5 active torsions:
REMARK  status: ('A' for Active; 'I' for Inactive)
REMARK    1  A    between atoms: C_2  and  C_3
REMARK    2  A    between atoms: C_4  and  C_5
REMARK    3  A    between atoms: C_10  and  O_11
REMARK    4  A    between atoms: O_11  and  C_12
REMARK    5  A    between atoms: N_20  and  O_21
REMARK                            x       y       z     vdW  Elec       q    Type
REMARK                         _______ _______ _______ _____ _____    ______ ____
ROOT
ATOM      1  C   UNL     1       3.521   4.290  19.522  0.00  0.00    +0.000 A 
ATOM      2  C   UNL     1       3.049   2.959  19.501  0.00  0.00    +0.000 A 
ATOM      3  C   UNL     1       1.730   2.636  19.824  0.00  0.00    +0.000 A 
ATOM      4  C   UNL     1       0.829   3.645  20.120  0.00  0.00    +0.000 A 
ATOM      5  C   UNL     1       1.256   4.971  20.121  0.00  0.00    +0.000 A 
ATOM      6  C   UNL     1       2.612   5.299  19.909  0.00  0.00    +0.000 A 
ENDROOT
BRANCH   1   8
ATOM      7  C   UNL     1       5.896   5.215  19.564  0.00  0.00    +0.000 C 
ATOM      8  C   UNL     1       4.915   4.452  19.062  0.00  0.00    +0.000 C 
BRANCH   7  10
ATOM      9  O   UNL     1       7.251   5.282  17.593  0.00  0.00    +0.000 OA
ATOM     10  C   UNL     1       7.186   5.314  18.824  0.00  0.00    +0.000 C 
ATOM     11  N   UNL     1       8.295   5.550  19.582  0.00  0.00    +0.000 N 
ATOM     12  H   UNL     1       9.194   5.483  19.118  0.00  0.00    +0.000 HD
BRANCH  11  13
ATOM     13  O   UNL     1       8.273   5.296  20.966  0.00  0.00    +0.000 OA
ATOM     14  H   UNL     1       7.515   4.683  21.048  0.00  0.00    +0.000 HD
ENDBRANCH  11  13
ENDBRANCH   7  10
ENDBRANCH   1   8
BRANCH   6  15
ATOM     15  O   UNL     1       3.060   6.598  20.107  0.00  0.00    +0.000 OA
BRANCH  15  16
ATOM     16  C   UNL     1       2.347   7.642  19.534  0.00  0.00    +0.000 A 
ATOM     17  C   UNL     1       1.396   8.418  20.223  0.00  0.00    +0.000 A 
ATOM     18 CL   UNL     1       1.121   8.295  21.928  0.00  0.00    +0.000 Cl
ATOM     19  C   UNL     1       0.628   9.370  19.542  0.00  0.00    +0.000 A 
ATOM     20  C   UNL     1       0.870   9.644  18.198  0.00  0.00    +0.000 A 
ATOM     21  C   UNL     1       1.881   8.956  17.528  0.00  0.00    +0.000 A 
ATOM     22  C   UNL     1       2.607   7.952  18.188  0.00  0.00    +0.000 A 
ATOM     23 CL   UNL     1       3.809   7.105  17.279  0.00  0.00    +0.000 Cl
ENDBRANCH  15  16
ENDBRANCH   6  15
TORSDOF 5
ENDMDL
MODEL 5
REMARK VINA RESULT:      -7.5      3.604      6.570
REMARK  Name = 
REMARK  5 active torsions:
REMARK  status: ('A' for Active; 'I' for Inactive)
REMARK    1  A    between atoms: C_2  and  C_3
REMARK    2  A    between atoms: C_4  and  C_5
REMARK    3  A    between atoms: C_10  and  O_11
REMARK    4  A    between atoms: O_11  and  C_12
REMARK    5  A    between atoms: N_20  and  O_21
REMARK                            x       y       z     vdW  Elec       q    Type
REMARK                         _______ _______ _______ _____ _____    ______ ____
ROOT
ATOM      1  C   UNL     1       2.691   6.385  19.434  0.00  0.00    +0.000 A 
ATOM      2  C   UNL     1       1.807   7.486  19.443  0.00  0.00    +0.000 A 
ATOM      3  C   UNL     1       1.948   8.556  18.557  0.00  0.00    +0.000 A 
ATOM      4  C   UNL     1       2.945   8.524  17.595  0.00  0.00    +0.000 A 
ATOM      5  C   UNL     1       3.815   7.437  17.541  0.00  0.00    +0.000 A 
ATOM      6  C   UNL     1       3.754   6.408  18.504  0.00  0.00    +0.000 A 
ENDROOT
BRANCH   1   8
ATOM      7  C   UNL     1       2.511   3.982  20.266  0.00  0.00    +0.000 C 
ATOM      8  C   UNL     1       2.333   5.306  20.377  0.00  0.00    +0.000 C 
BRANCH   7  10
ATOM      9  O   UNL     1       2.514   2.803  22.347  0.00  0.00    +0.000 OA
ATOM     10  C   UNL     1       1.925   3.084  21.302  0.00  0.00    +0.000 C 
ATOM     11  N   UNL     1       0.645   2.668  21.081  0.00  0.00    +0.000 N 
ATOM     12  H   UNL     1       0.280   1.951  21.697  0.00  0.00    +0.000 HD
BRANCH  11  13
ATOM     13  O   UNL     1       0.093   2.738  19.787  0.00  0.00    +0.000 OA
ATOM     14  H   UNL     1       0.808   3.176  19.284  0.00  0.00    +0.000 HD
ENDBRANCH  11  13
ENDBRANCH   7  10
ENDBRANCH   1   8
BRANCH   6  15
ATOM     15  O   UNL     1       4.744   5.437  18.559  0.00  0.00    +0.000 OA
BRANCH  15  16
ATOM     16  C   UNL     1       5.421   5.109  17.391  0.00  0.00    +0.000 A 
ATOM     17  C   UNL     1       6.680   5.629  17.038  0.00  0.00    +0.000 A 
ATOM     18 CL   UNL     1       7.641   6.604  18.099  0.00  0.00    +0.000 Cl
ATOM     19  C   UNL     1       7.238   5.347  15.785  0.00  0.00    +0.000 A 
ATOM     20  C   UNL     1       6.610   4.459  14.915  0.00  0.00    +0.000 A 
ATOM     21  C   UNL     1       5.413   3.856  15.295  0.00  0.00    +0.000 A 
ATOM     22  C   UNL     1       4.814   4.188  16.521  0.00  0.00    +0.000 A 
ATOM     23 CL   UNL     1       3.303   3.440  16.902  0.00  0.00    +0.000 Cl
ENDBRANCH  15  16
ENDBRANCH   6  15
TORSDOF 5
ENDMDL
MODEL 6
REMARK VINA RESULT:      -7.5      1.226      2.386
REMARK  Name = 
REMARK  5 active torsions:
REMARK  status: ('A' for Active; 'I' for Inactive)
REMARK    1  A    between atoms: C_2  and  C_3
REMARK    2  A    between atoms: C_4  and  C_5
REMARK    3  A    between atoms: C_10  and  O_11
REMARK    4  A    between atoms: O_11  and  C_12
REMARK    5  A    between atoms: N_20  and  O_21
REMARK                            x       y       z     vdW  Elec       q    Type
REMARK                         _______ _______ _______ _____ _____    ______ ____
ROOT
ATOM      1  C   UNL     1       5.712   4.291  16.040  0.00  0.00    +0.000 A 
ATOM      2  C   UNL     1       7.060   4.689  16.170  0.00  0.00    +0.000 A 
ATOM      3  C   UNL     1       7.595   5.107  17.390  0.00  0.00    +0.000 A 
ATOM      4  C   UNL     1       6.808   5.080  18.530  0.00  0.00    +0.000 A 
ATOM      5  C   UNL     1       5.481   4.664  18.440  0.00  0.00    +0.000 A 
ATOM      6  C   UNL     1       4.899   4.351  17.193  0.00  0.00    +0.000 A 
ENDROOT
BRANCH   1   8
ATOM      7  C   UNL     1       6.100   3.696  13.592  0.00  0.00    +0.000 C 
ATOM      8  C   UNL     1       5.349   3.793  14.698  0.00  0.00    +0.000 C 
BRANCH   7  10
ATOM      9  O   UNL     1       4.285   3.573  12.039  0.00  0.00    +0.000 OA
ATOM     10  C   UNL     1       5.453   3.292  12.311  0.00  0.00    +0.000 C 
ATOM     11  N   UNL     1       6.261   2.679  11.399  0.00  0.00    +0.000 N 
ATOM     12  H   UNL     1       5.814   2.274  10.585  0.00  0.00    +0.000 HD
BRANCH  11  13
ATOM     13  O   UNL     1       7.480   2.104  11.808  0.00  0.00    +0.000 OA
ATOM     14  H   UNL     1       7.225   1.171  11.955  0.00  0.00    +0.000 HD
ENDBRANCH  11  13
ENDBRANCH   7  10
ENDBRANCH   1   8
BRANCH   6  15
ATOM     15  O   UNL     1       3.533   4.130  17.091  0.00  0.00    +0.000 OA
BRANCH  15  16
ATOM     16  C   UNL     1       2.811   3.876  18.250  0.00  0.00    +0.000 A 
ATOM     17  C   UNL     1       2.703   2.606  18.848  0.00  0.00    +0.000 A 
ATOM     18 CL   UNL     1       3.607   1.225  18.324  0.00  0.00    +0.000 Cl
ATOM     19  C   UNL     1       1.855   2.408  19.944  0.00  0.00    +0.000 A 
ATOM     20  C   UNL     1       1.191   3.484  20.528  0.00  0.00    +0.000 A 
ATOM     21  C   UNL     1       1.370   4.765  20.010  0.00  0.00    +0.000 A 
ATOM     22  C   UNL     1       2.166   4.959  18.870  0.00  0.00    +0.000 A 
ATOM     23 CL   UNL     1       2.300   6.568  18.252  0.00  0.00    +0.000 Cl
ENDBRANCH  15  16
ENDBRANCH   6  15
TORSDOF 5
ENDMDL
MODEL 7
REMARK VINA RESULT:      -7.4      1.160      1.253
REMARK  Name = 
REMARK  5 active torsions:
REMARK  status: ('A' for Active; 'I' for Inactive)
REMARK    1  A    between atoms: C_2  and  C_3
REMARK    2  A    between atoms: C_4  and  C_5
REMARK    3  A    between atoms: C_10  and  O_11
REMARK    4  A    between atoms: O_11  and  C_12
REMARK    5  A    between atoms: N_20  and  O_21
REMARK                            x       y       z     vdW  Elec       q    Type
REMARK                         _______ _______ _______ _____ _____    ______ ____
ROOT
ATOM      1  C   UNL     1       5.687   4.690  15.956  0.00  0.00    +0.000 A 
ATOM      2  C   UNL     1       6.892   5.426  15.955  0.00  0.00    +0.000 A 
ATOM      3  C   UNL     1       7.401   6.014  17.115  0.00  0.00    +0.000 A 
ATOM      4  C   UNL     1       6.747   5.829  18.322  0.00  0.00    +0.000 A 
ATOM      5  C   UNL     1       5.571   5.083  18.361  0.00  0.00    +0.000 A 
ATOM      6  C   UNL     1       4.987   4.583  17.177  0.00  0.00    +0.000 A 
ENDROOT
BRANCH   1   8
ATOM      7  C   UNL     1       6.135   3.845  13.592  0.00  0.00    +0.000 C 
ATOM      8  C   UNL     1       5.354   4.064  14.660  0.00  0.00    +0.000 C 
BRANCH   7  10
ATOM      9  O   UNL     1       4.337   3.519  12.049  0.00  0.00    +0.000 OA
ATOM     10  C   UNL     1       5.518   3.322  12.340  0.00  0.00    +0.000 C 
ATOM     11  N   UNL     1       6.363   2.697  11.471  0.00  0.00    +0.000 N 
ATOM     12  H   UNL     1       5.943   2.215  10.685  0.00  0.00    +0.000 HD
BRANCH  11  13
ATOM     13  O   UNL     1       7.610   2.219  11.919  0.00  0.00    +0.000 OA
ATOM     14  H   UNL     1       7.401   1.924  12.828  0.00  0.00    +0.000 HD
ENDBRANCH  11  13
ENDBRANCH   7  10
ENDBRANCH   1   8
BRANCH   6  15
ATOM     15  O   UNL     1       3.722   4.014  17.204  0.00  0.00    +0.000 OA
BRANCH  15  16
ATOM     16  C   UNL     1       3.015   4.017  18.400  0.00  0.00    +0.000 A 
ATOM     17  C   UNL     1       2.403   5.159  18.950  0.00  0.00    +0.000 A 
ATOM     18 CL   UNL     1       2.291   6.674  18.118  0.00  0.00    +0.000 Cl
ATOM     19  C   UNL     1       1.818   5.108  20.220  0.00  0.00    +0.000 A 
ATOM     20  C   UNL     1       1.732   3.902  20.912  0.00  0.00    +0.000 A 
ATOM     21  C   UNL     1       2.242   2.742  20.333  0.00  0.00    +0.000 A 
ATOM     22  C   UNL     1       2.891   2.800  19.090  0.00  0.00    +0.000 A 
ATOM     23 CL   UNL     1       3.544   1.329  18.458  0.00  0.00    +0.000 Cl
ENDBRANCH  15  16
ENDBRANCH   6  15
TORSDOF 5
ENDMDL
MODEL 8
REMARK VINA RESULT:      -7.3      2.687      4.536
REMARK  Name = 
REMARK  5 active torsions:
REMARK  status: ('A' for Active; 'I' for Inactive)
REMARK    1  A    between atoms: C_2  and  C_3
REMARK    2  A    between atoms: C_4  and  C_5
REMARK    3  A    between atoms: C_10  and  O_11
REMARK    4  A    between atoms: O_11  and  C_12
REMARK    5  A    between atoms: N_20  and  O_21
REMARK                            x       y       z     vdW  Elec       q    Type
REMARK                         _______ _______ _______ _____ _____    ______ ____
ROOT
ATOM      1  C   UNL     1       3.779   4.109  18.197  0.00  0.00    +0.000 A 
ATOM      2  C   UNL     1       3.367   2.826  17.776  0.00  0.00    +0.000 A 
ATOM      3  C   UNL     1       2.090   2.332  18.049  0.00  0.00    +0.000 A 
ATOM      4  C   UNL     1       1.168   3.134  18.701  0.00  0.00    +0.000 A 
ATOM      5  C   UNL     1       1.535   4.416  19.104  0.00  0.00    +0.000 A 
ATOM      6  C   UNL     1       2.857   4.882  18.936  0.00  0.00    +0.000 A 
ENDROOT
BRANCH   1   8
ATOM      7  C   UNL     1       5.812   4.092  16.659  0.00  0.00    +0.000 C 
ATOM      8  C   UNL     1       5.127   4.499  17.738  0.00  0.00    +0.000 C 
BRANCH   7  10
ATOM      9  O   UNL     1       8.117   4.213  17.285  0.00  0.00    +0.000 OA
ATOM     10  C   UNL     1       7.227   4.529  16.493  0.00  0.00    +0.000 C 
ATOM     11  N   UNL     1       7.513   5.216  15.350  0.00  0.00    +0.000 N 
ATOM     12  H   UNL     1       8.430   5.640  15.284  0.00  0.00    +0.000 HD
BRANCH  11  13
ATOM     13  O   UNL     1       6.477   5.820  14.612  0.00  0.00    +0.000 OA
ATOM     14  H   UNL     1       5.864   5.071  14.472  0.00  0.00    +0.000 HD
ENDBRANCH  11  13
ENDBRANCH   7  10
ENDBRANCH   1   8
BRANCH   6  15
ATOM     15  O   UNL     1       3.260   6.077  19.515  0.00  0.00    +0.000 OA
BRANCH  15  16
ATOM     16  C   UNL     1       2.652   7.255  19.101  0.00  0.00    +0.000 A 
ATOM     17  C   UNL     1       2.942   7.907  17.888  0.00  0.00    +0.000 A 
ATOM     18 CL   UNL     1       3.961   7.230  16.662  0.00  0.00    +0.000 Cl
ATOM     19  C   UNL     1       2.379   9.156  17.601  0.00  0.00    +0.000 A 
ATOM     20  C   UNL     1       1.438   9.722  18.459  0.00  0.00    +0.000 A 
ATOM     21  C   UNL     1       1.063   9.038  19.614  0.00  0.00    +0.000 A 
ATOM     22  C   UNL     1       1.675   7.817  19.940  0.00  0.00    +0.000 A 
ATOM     23 CL   UNL     1       1.198   7.052  21.415  0.00  0.00    +0.000 Cl
ENDBRANCH  15  16
ENDBRANCH   6  15
TORSDOF 5
ENDMDL
MODEL 9
REMARK VINA RESULT:      -7.3      2.954      4.962
REMARK  Name = 
REMARK  5 active torsions:
REMARK  status: ('A' for Active; 'I' for Inactive)
REMARK    1  A    between atoms: C_2  and  C_3
REMARK    2  A    between atoms: C_4  and  C_5
REMARK    3  A    between atoms: C_10  and  O_11
REMARK    4  A    between atoms: O_11  and  C_12
REMARK    5  A    between atoms: N_20  and  O_21
REMARK                            x       y       z     vdW  Elec       q    Type
REMARK                         _______ _______ _______ _____ _____    ______ ____
ROOT
ATOM      1  C   UNL     1       3.604   4.541  19.346  0.00  0.00    +0.000 A 
ATOM      2  C   UNL     1       3.221   3.186  19.253  0.00  0.00    +0.000 A 
ATOM      3  C   UNL     1       1.938   2.753  19.596  0.00  0.00    +0.000 A 
ATOM      4  C   UNL     1       0.984   3.677  19.987  0.00  0.00    +0.000 A 
ATOM      5  C   UNL     1       1.322   5.027  20.061  0.00  0.00    +0.000 A 
ATOM      6  C   UNL     1       2.645   5.459  19.828  0.00  0.00    +0.000 A 
ENDROOT
BRANCH   1   8
ATOM      7  C   UNL     1       5.579   4.393  17.742  0.00  0.00    +0.000 C 
ATOM      8  C   UNL     1       4.966   4.826  18.853  0.00  0.00    +0.000 C 
BRANCH   7  10
ATOM      9  O   UNL     1       7.881   4.463  18.389  0.00  0.00    +0.000 OA
ATOM     10  C   UNL     1       7.022   4.711  17.541  0.00  0.00    +0.000 C 
ATOM     11  N   UNL     1       7.362   5.199  16.314  0.00  0.00    +0.000 N 
ATOM     12  H   UNL     1       8.306   5.550  16.203  0.00  0.00    +0.000 HD
BRANCH  11  13
ATOM     13  O   UNL     1       6.375   5.749  15.473  0.00  0.00    +0.000 OA
ATOM     14  H   UNL     1       6.875   5.904  14.647  0.00  0.00    +0.000 HD
ENDBRANCH  11  13
ENDBRANCH   7  10
ENDBRANCH   1   8
BRANCH   6  15
ATOM     15  O   UNL     1       3.013   6.770  20.096  0.00  0.00    +0.000 OA
BRANCH  15  16
ATOM     16  C   UNL     1       2.240   7.799  19.574  0.00  0.00    +0.000 A 
ATOM     17  C   UNL     1       1.301   8.535  20.321  0.00  0.00    +0.000 A 
ATOM     18 CL   UNL     1       1.116   8.382  22.036  0.00  0.00    +0.000 Cl
ATOM     19  C   UNL     1       0.471   9.471  19.692  0.00  0.00    +0.000 A 
ATOM     20  C   UNL     1       0.636   9.768  18.341  0.00  0.00    +0.000 A 
ATOM     21  C   UNL     1       1.632   9.122  17.613  0.00  0.00    +0.000 A 
ATOM     22  C   UNL     1       2.422   8.134  18.222  0.00  0.00    +0.000 A 
ATOM     23 CL   UNL     1       3.602   7.336  17.242  0.00  0.00    +0.000 Cl
ENDBRANCH  15  16
ENDBRANCH   6  15
TORSDOF 5
ENDMDL
