MODEL 1
REMARK VINA RESULT:      -6.2      0.000      0.000
REMARK  Name = 
REMARK  22 active torsions:
REMARK  status: ('A' for Active; 'I' for Inactive)
REMARK    1  A    between atoms: C_1  and  C_2
REMARK    2  A    between atoms: C_2  and  C_3
REMARK    3  A    between atoms: C_3  and  C_4
REMARK    4  A    between atoms: C_4  and  C_5
REMARK    5  A    between atoms: C_5  and  C_6
REMARK    6  A    between atoms: C_6  and  C_7
REMARK    7  A    between atoms: C_7  and  C_8
REMARK    8  A    between atoms: C_8  and  C_9
REMARK    9  A    between atoms: C_9  and  C_10
REMARK   10  A    between atoms: C_10  and  C_11
REMARK   11  A    between atoms: C_11  and  C_12
REMARK   12  A    between atoms: C_12  and  N_13
REMARK   13  A    between atoms: C_14  and  C_16
REMARK   14  A    between atoms: C_16  and  O_17
REMARK   15  A    between atoms: O_17  and  C_18
REMARK   16  A    between atoms: C_20  and  C_21
REMARK   17  A    between atoms: C_21  and  O_22
REMARK   18  A    between atoms: O_22  and  C_23
REMARK   19  A    between atoms: C_23  and  C_24
REMARK   20  A    between atoms: C_27  and  O_28
REMARK   21  A    between atoms: O_28  and  C_29
REMARK   22  A    between atoms: C_29  and  C_30
REMARK                            x       y       z     vdW  Elec       q    Type
REMARK                         _______ _______ _______ _____ _____    ______ ____
ROOT
ATOM      1  C   UNL     1       1.997   9.461  17.948  0.00  0.00    +0.000 C 
ENDROOT
BRANCH   1   3
ATOM      2  N   UNL     1       2.086   7.487  19.368  0.00  0.00    +0.000 N 
ATOM      3  C   UNL     1       2.586   8.101  18.239  0.00  0.00    +0.000 C 
ATOM      4  O   UNL     1       3.399   7.576  17.489  0.00  0.00    +0.000 OA
ATOM      5  H   UNL     1       1.148   7.736  19.665  0.00  0.00    +0.000 HD
BRANCH   2   6
ATOM      6  C   UNL     1       2.607   6.199  19.727  0.00  0.00    +0.000 C 
BRANCH   6   7
ATOM      7  C   UNL     1       1.693   5.059  19.328  0.00  0.00    +0.000 C 
BRANCH   7   8
ATOM      8  C   UNL     1       1.255   4.312  20.581  0.00  0.00    +0.000 C 
BRANCH   8   9
ATOM      9  C   UNL     1       1.684   2.857  20.518  0.00  0.00    +0.000 C 
BRANCH   9  10
ATOM     10  C   UNL     1       1.724   2.381  19.073  0.00  0.00    +0.000 C 
BRANCH  10  11
ATOM     11  C   UNL     1       3.034   1.664  18.796  0.00  0.00    +0.000 C 
BRANCH  11  12
ATOM     12  C   UNL     1       3.680   2.221  17.538  0.00  0.00    +0.000 C 
BRANCH  12  13
ATOM     13  C   UNL     1       4.456   3.485  17.863  0.00  0.00    +0.000 C 
BRANCH  13  14
ATOM     14  C   UNL     1       4.699   4.292  16.598  0.00  0.00    +0.000 C 
BRANCH  14  15
ATOM     15  C   UNL     1       6.075   4.940  16.643  0.00  0.00    +0.000 C 
BRANCH  15  17
ATOM     16  C   UNL     1       5.977   3.913  14.368  0.00  0.00    +0.000 C 
ATOM     17  C   UNL     1       6.781   4.797  15.301  0.00  0.00    +0.000 C 
ENDBRANCH  15  17
ENDBRANCH  14  15
ENDBRANCH  13  14
ENDBRANCH  12  13
ENDBRANCH  11  12
ENDBRANCH  10  11
ENDBRANCH   9  10
ENDBRANCH   8   9
ENDBRANCH   7   8
ENDBRANCH   6   7
ENDBRANCH   2   6
ENDBRANCH   1   3
BRANCH   1  18
ATOM     18  O   UNL     1       1.064   9.931  18.911  0.00  0.00    +0.000 OA
BRANCH  18  19
ATOM     19  C   UNL     1       0.307  11.031  18.401  0.00  0.00    +0.000 C 
ATOM     20  O   UNL     1       0.632  12.165  19.183  0.00  0.00    +0.000 OA
ATOM     21  C   UNL     1      -0.391  12.818  19.917  0.00  0.00    +0.000 C 
ATOM     22  C   UNL     1      -1.788  12.476  19.509  0.00  0.00    +0.000 C 
ATOM     23  C   UNL     1      -2.237  11.475  18.750  0.00  0.00    +0.000 C 
ATOM     24  C   UNL     1      -1.187  10.701  18.049  0.00  0.00    +0.000 C 
ATOM     25  O   UNL     1      -1.516   9.850  17.219  0.00  0.00    +0.000 OA
BRANCH  23  26
ATOM     26  O   UNL     1      -3.611  11.067  18.512  0.00  0.00    +0.000 OA
BRANCH  26  27
ATOM     27  C   UNL     1      -4.511  11.524  17.566  0.00  0.00    +0.000 C 
ATOM     28  C   UNL     1      -5.859  11.957  18.125  0.00  0.00    +0.000 C 
ATOM     29  O   UNL     1      -4.295  11.605  16.369  0.00  0.00    +0.000 OA
ENDBRANCH  26  27
ENDBRANCH  23  26
BRANCH  21  30
ATOM     30  C   UNL     1      -0.316  12.617  21.459  0.00  0.00    +0.000 C 
BRANCH  30  31
ATOM     31  O   UNL     1       0.393  11.365  21.794  0.00  0.00    +0.000 OA
BRANCH  31  32
ATOM     32  C   UNL     1      -0.311  10.403  22.502  0.00  0.00    +0.000 C 
ATOM     33  C   UNL     1      -0.211   9.017  21.907  0.00  0.00    +0.000 C 
ATOM     34  O   UNL     1      -0.997  10.630  23.457  0.00  0.00    +0.000 OA
ENDBRANCH  31  32
ENDBRANCH  30  31
ENDBRANCH  21  30
ENDBRANCH  18  19
ENDBRANCH   1  18
TORSDOF 19
ENDMDL
MODEL 2
REMARK VINA RESULT:      -6.1      2.687     10.334
REMARK  Name = 
REMARK  22 active torsions:
REMARK  status: ('A' for Active; 'I' for Inactive)
REMARK    1  A    between atoms: C_1  and  C_2
REMARK    2  A    between atoms: C_2  and  C_3
REMARK    3  A    between atoms: C_3  and  C_4
REMARK    4  A    between atoms: C_4  and  C_5
REMARK    5  A    between atoms: C_5  and  C_6
REMARK    6  A    between atoms: C_6  and  C_7
REMARK    7  A    between atoms: C_7  and  C_8
REMARK    8  A    between atoms: C_8  and  C_9
REMARK    9  A    between atoms: C_9  and  C_10
REMARK   10  A    between atoms: C_10  and  C_11
REMARK   11  A    between atoms: C_11  and  C_12
REMARK   12  A    between atoms: C_12  and  N_13
REMARK   13  A    between atoms: C_14  and  C_16
REMARK   14  A    between atoms: C_16  and  O_17
REMARK   15  A    between atoms: O_17  and  C_18
REMARK   16  A    between atoms: C_20  and  C_21
REMARK   17  A    between atoms: C_21  and  O_22
REMARK   18  A    between atoms: O_22  and  C_23
REMARK   19  A    between atoms: C_23  and  C_24
REMARK   20  A    between atoms: C_27  and  O_28
REMARK   21  A    between atoms: O_28  and  C_29
REMARK   22  A    between atoms: C_29  and  C_30
REMARK                            x       y       z     vdW  Elec       q    Type
REMARK                         _______ _______ _______ _____ _____    ______ ____
ROOT
ATOM      1  C   UNL     1       2.011   9.233  17.833  0.00  0.00    +0.000 C 
ENDROOT
BRANCH   1   3
ATOM      2  N   UNL     1      -0.192  10.266  17.858  0.00  0.00    +0.000 N 
ATOM      3  C   UNL     1       0.842   9.769  18.624  0.00  0.00    +0.000 C 
ATOM      4  O   UNL     1       0.806   9.707  19.846  0.00  0.00    +0.000 OA
ATOM      5  H   UNL     1      -0.309   9.890  16.922  0.00  0.00    +0.000 HD
BRANCH   2   6
ATOM      6  C   UNL     1      -1.334  10.813  18.532  0.00  0.00    +0.000 C 
BRANCH   6   7
ATOM      7  C   UNL     1      -1.446  12.316  18.382  0.00  0.00    +0.000 C 
BRANCH   7   8
ATOM      8  C   UNL     1      -1.544  12.948  19.765  0.00  0.00    +0.000 C 
BRANCH   8   9
ATOM      9  C   UNL     1      -0.178  13.021  20.422  0.00  0.00    +0.000 C 
BRANCH   9  10
ATOM     10  C   UNL     1      -0.310  12.864  21.930  0.00  0.00    +0.000 C 
BRANCH  10  11
ATOM     11  C   UNL     1      -0.943  11.523  22.262  0.00  0.00    +0.000 C 
BRANCH  11  12
ATOM     12  C   UNL     1      -2.104  11.714  23.224  0.00  0.00    +0.000 C 
BRANCH  12  13
ATOM     13  C   UNL     1      -2.341  13.194  23.470  0.00  0.00    +0.000 C 
BRANCH  13  14
ATOM     14  C   UNL     1      -3.769  13.426  23.937  0.00  0.00    +0.000 C 
BRANCH  14  15
ATOM     15  C   UNL     1      -4.752  12.862  22.923  0.00  0.00    +0.000 C 
BRANCH  15  17
ATOM     16  C   UNL     1      -5.107  12.776  20.452  0.00  0.00    +0.000 C 
ATOM     17  C   UNL     1      -4.691  13.648  21.620  0.00  0.00    +0.000 C 
ENDBRANCH  15  17
ENDBRANCH  14  15
ENDBRANCH  13  14
ENDBRANCH  12  13
ENDBRANCH  11  12
ENDBRANCH  10  11
ENDBRANCH   9  10
ENDBRANCH   8   9
ENDBRANCH   7   8
ENDBRANCH   6   7
ENDBRANCH   2   6
ENDBRANCH   1   3
BRANCH   1  18
ATOM     18  O   UNL     1       2.038   7.821  17.682  0.00  0.00    +0.000 OA
BRANCH  18  19
ATOM     19  C   UNL     1       3.110   7.243  18.431  0.00  0.00    +0.000 C 
ATOM     20  O   UNL     1       4.312   7.542  17.746  0.00  0.00    +0.000 OA
ATOM     21  C   UNL     1       5.119   6.479  17.265  0.00  0.00    +0.000 C 
ATOM     22  C   UNL     1       4.818   5.135  17.845  0.00  0.00    +0.000 C 
ATOM     23  C   UNL     1       3.758   4.721  18.543  0.00  0.00    +0.000 C 
ATOM     24  C   UNL     1       2.835   5.795  18.973  0.00  0.00    +0.000 C 
ATOM     25  O   UNL     1       1.907   5.524  19.738  0.00  0.00    +0.000 OA
BRANCH  23  26
ATOM     26  O   UNL     1       3.413   3.369  18.945  0.00  0.00    +0.000 OA
BRANCH  26  27
ATOM     27  C   UNL     1       3.790   2.667  20.076  0.00  0.00    +0.000 C 
ATOM     28  C   UNL     1       2.749   2.640  21.186  0.00  0.00    +0.000 C 
ATOM     29  O   UNL     1       4.853   2.089  20.225  0.00  0.00    +0.000 OA
ENDBRANCH  26  27
ENDBRANCH  23  26
BRANCH  21  30
ATOM     30  C   UNL     1       5.114   6.307  15.717  0.00  0.00    +0.000 C 
BRANCH  30  31
ATOM     31  O   UNL     1       5.462   4.922  15.340  0.00  0.00    +0.000 OA
BRANCH  31  32
ATOM     32  C   UNL     1       6.540   4.745  14.485  0.00  0.00    +0.000 C 
ATOM     33  C   UNL     1       6.272   3.765  13.366  0.00  0.00    +0.000 C 
ATOM     34  O   UNL     1       7.612   5.254  14.632  0.00  0.00    +0.000 OA
ENDBRANCH  31  32
ENDBRANCH  30  31
ENDBRANCH  21  30
ENDBRANCH  18  19
ENDBRANCH   1  18
TORSDOF 19
ENDMDL
MODEL 3
REMARK VINA RESULT:      -6.1      6.385     10.884
REMARK  Name = 
REMARK  22 active torsions:
REMARK  status: ('A' for Active; 'I' for Inactive)
REMARK    1  A    between atoms: C_1  and  C_2
REMARK    2  A    between atoms: C_2  and  C_3
REMARK    3  A    between atoms: C_3  and  C_4
REMARK    4  A    between atoms: C_4  and  C_5
REMARK    5  A    between atoms: C_5  and  C_6
REMARK    6  A    between atoms: C_6  and  C_7
REMARK    7  A    between atoms: C_7  and  C_8
REMARK    8  A    between atoms: C_8  and  C_9
REMARK    9  A    between atoms: C_9  and  C_10
REMARK   10  A    between atoms: C_10  and  C_11
REMARK   11  A    between atoms: C_11  and  C_12
REMARK   12  A    between atoms: C_12  and  N_13
REMARK   13  A    between atoms: C_14  and  C_16
REMARK   14  A    between atoms: C_16  and  O_17
REMARK   15  A    between atoms: O_17  and  C_18
REMARK   16  A    between atoms: C_20  and  C_21
REMARK   17  A    between atoms: C_21  and  O_22
REMARK   18  A    between atoms: O_22  and  C_23
REMARK   19  A    between atoms: C_23  and  C_24
REMARK   20  A    between atoms: C_27  and  O_28
REMARK   21  A    between atoms: O_28  and  C_29
REMARK   22  A    between atoms: C_29  and  C_30
REMARK                            x       y       z     vdW  Elec       q    Type
REMARK                         _______ _______ _______ _____ _____    ______ ____
ROOT
ATOM      1  C   UNL     1       7.856   6.634  18.710  0.00  0.00    +0.000 C 
ENDROOT
BRANCH   1   3
ATOM      2  N   UNL     1       8.797   8.860  18.997  0.00  0.00    +0.000 N 
ATOM      3  C   UNL     1       8.114   8.013  18.150  0.00  0.00    +0.000 C 
ATOM      4  O   UNL     1       7.787   8.318  17.010  0.00  0.00    +0.000 OA
ATOM      5  H   UNL     1       9.412   8.441  19.689  0.00  0.00    +0.000 HD
BRANCH   2   6
ATOM      6  C   UNL     1       9.066  10.196  18.549  0.00  0.00    +0.000 C 
BRANCH   6   7
ATOM      7  C   UNL     1      10.104  10.905  19.395  0.00  0.00    +0.000 C 
BRANCH   7   8
ATOM      8  C   UNL     1      11.186  11.469  18.483  0.00  0.00    +0.000 C 
BRANCH   8   9
ATOM      9  C   UNL     1      11.041  12.974  18.340  0.00  0.00    +0.000 C 
BRANCH   9  10
ATOM     10  C   UNL     1      10.936  13.625  19.711  0.00  0.00    +0.000 C 
BRANCH  10  11
ATOM     11  C   UNL     1      10.047  14.855  19.638  0.00  0.00    +0.000 C 
BRANCH  11  12
ATOM     12  C   UNL     1       9.243  14.998  20.920  0.00  0.00    +0.000 C 
BRANCH  12  13
ATOM     13  C   UNL     1       9.452  13.782  21.807  0.00  0.00    +0.000 C 
BRANCH  13  14
ATOM     14  C   UNL     1       8.121  13.102  22.085  0.00  0.00    +0.000 C 
BRANCH  14  15
ATOM     15  C   UNL     1       8.347  11.662  22.521  0.00  0.00    +0.000 C 
BRANCH  15  17
ATOM     16  C   UNL     1       6.618  11.935  24.303  0.00  0.00    +0.000 C 
ATOM     17  C   UNL     1       8.037  11.494  24.003  0.00  0.00    +0.000 C 
ENDBRANCH  15  17
ENDBRANCH  14  15
ENDBRANCH  13  14
ENDBRANCH  12  13
ENDBRANCH  11  12
ENDBRANCH  10  11
ENDBRANCH   9  10
ENDBRANCH   8   9
ENDBRANCH   7   8
ENDBRANCH   6   7
ENDBRANCH   2   6
ENDBRANCH   1   3
BRANCH   1  18
ATOM     18  O   UNL     1       7.839   5.588  17.750  0.00  0.00    +0.000 OA
BRANCH  18  19
ATOM     19  C   UNL     1       6.779   5.769  16.808  0.00  0.00    +0.000 C 
ATOM     20  O   UNL     1       5.561   5.700  17.526  0.00  0.00    +0.000 OA
ATOM     21  C   UNL     1       4.621   4.688  17.203  0.00  0.00    +0.000 C 
ATOM     22  C   UNL     1       4.836   4.014  15.886  0.00  0.00    +0.000 C 
ATOM     23  C   UNL     1       5.903   4.022  15.084  0.00  0.00    +0.000 C 
ATOM     24  C   UNL     1       6.956   4.995  15.453  0.00  0.00    +0.000 C 
ATOM     25  O   UNL     1       7.910   5.170  14.693  0.00  0.00    +0.000 OA
BRANCH  23  26
ATOM     26  O   UNL     1       6.147   3.221  13.898  0.00  0.00    +0.000 OA
BRANCH  26  27
ATOM     27  C   UNL     1       6.061   3.578  12.564  0.00  0.00    +0.000 C 
ATOM     28  C   UNL     1       4.709   3.310  11.918  0.00  0.00    +0.000 C 
ATOM     29  O   UNL     1       6.960   4.078  11.909  0.00  0.00    +0.000 OA
ENDBRANCH  26  27
ENDBRANCH  23  26
BRANCH  21  30
ATOM     30  C   UNL     1       4.489   3.558  18.265  0.00  0.00    +0.000 C 
BRANCH  30  31
ATOM     31  O   UNL     1       3.098   3.068  18.343  0.00  0.00    +0.000 OA
BRANCH  31  32
ATOM     32  C   UNL     1       2.335   3.485  19.424  0.00  0.00    +0.000 C 
ATOM     33  C   UNL     1       2.770   2.885  20.741  0.00  0.00    +0.000 C 
ATOM     34  O   UNL     1       1.377   4.197  19.343  0.00  0.00    +0.000 OA
ENDBRANCH  31  32
ENDBRANCH  30  31
ENDBRANCH  21  30
ENDBRANCH  18  19
ENDBRANCH   1  18
TORSDOF 19
ENDMDL
MODEL 4
REMARK VINA RESULT:      -6.0      5.728      9.738
REMARK  Name = 
REMARK  22 active torsions:
REMARK  status: ('A' for Active; 'I' for Inactive)
REMARK    1  A    between atoms: C_1  and  C_2
REMARK    2  A    between atoms: C_2  and  C_3
REMARK    3  A    between atoms: C_3  and  C_4
REMARK    4  A    between atoms: C_4  and  C_5
REMARK    5  A    between atoms: C_5  and  C_6
REMARK    6  A    between atoms: C_6  and  C_7
REMARK    7  A    between atoms: C_7  and  C_8
REMARK    8  A    between atoms: C_8  and  C_9
REMARK    9  A    between atoms: C_9  and  C_10
REMARK   10  A    between atoms: C_10  and  C_11
REMARK   11  A    between atoms: C_11  and  C_12
REMARK   12  A    between atoms: C_12  and  N_13
REMARK   13  A    between atoms: C_14  and  C_16
REMARK   14  A    between atoms: C_16  and  O_17
REMARK   15  A    between atoms: O_17  and  C_18
REMARK   16  A    between atoms: C_20  and  C_21
REMARK   17  A    between atoms: C_21  and  O_22
REMARK   18  A    between atoms: O_22  and  C_23
REMARK   19  A    between atoms: C_23  and  C_24
REMARK   20  A    between atoms: C_27  and  O_28
REMARK   21  A    between atoms: O_28  and  C_29
REMARK   22  A    between atoms: C_29  and  C_30
REMARK                            x       y       z     vdW  Elec       q    Type
REMARK                         _______ _______ _______ _____ _____    ______ ____
ROOT
ATOM      1  C   UNL     1       7.973   6.020  18.853  0.00  0.00    +0.000 C 
ENDROOT
BRANCH   1   3
ATOM      2  N   UNL     1       8.641   8.353  19.028  0.00  0.00    +0.000 N 
ATOM      3  C   UNL     1       8.064   7.391  18.227  0.00  0.00    +0.000 C 
ATOM      4  O   UNL     1       7.700   7.601  17.077  0.00  0.00    +0.000 OA
ATOM      5  H   UNL     1       9.303   8.045  19.734  0.00  0.00    +0.000 HD
BRANCH   2   6
ATOM      6  C   UNL     1       8.748   9.689  18.515  0.00  0.00    +0.000 C 
BRANCH   6   7
ATOM      7  C   UNL     1       9.735  10.542  19.287  0.00  0.00    +0.000 C 
BRANCH   7   8
ATOM      8  C   UNL     1      10.230  11.666  18.386  0.00  0.00    +0.000 C 
BRANCH   8   9
ATOM      9  C   UNL     1      10.579  12.897  19.202  0.00  0.00    +0.000 C 
BRANCH   9  10
ATOM     10  C   UNL     1       9.423  13.887  19.181  0.00  0.00    +0.000 C 
BRANCH  10  11
ATOM     11  C   UNL     1       9.595  14.913  20.287  0.00  0.00    +0.000 C 
BRANCH  11  12
ATOM     12  C   UNL     1      10.026  14.230  21.575  0.00  0.00    +0.000 C 
BRANCH  12  13
ATOM     13  C   UNL     1       8.924  14.330  22.615  0.00  0.00    +0.000 C 
BRANCH  13  14
ATOM     14  C   UNL     1       7.815  13.338  22.300  0.00  0.00    +0.000 C 
BRANCH  14  15
ATOM     15  C   UNL     1       8.267  11.923  22.627  0.00  0.00    +0.000 C 
BRANCH  15  17
ATOM     16  C   UNL     1       6.686  11.529  24.521  0.00  0.00    +0.000 C 
ATOM     17  C   UNL     1       8.143  11.651  24.121  0.00  0.00    +0.000 C 
ENDBRANCH  15  17
ENDBRANCH  14  15
ENDBRANCH  13  14
ENDBRANCH  12  13
ENDBRANCH  11  12
ENDBRANCH  10  11
ENDBRANCH   9  10
ENDBRANCH   8   9
ENDBRANCH   7   8
ENDBRANCH   6   7
ENDBRANCH   2   6
ENDBRANCH   1   3
BRANCH   1  18
ATOM     18  O   UNL     1       6.680   5.652  19.310  0.00  0.00    +0.000 OA
BRANCH  18  19
ATOM     19  C   UNL     1       6.020   4.808  18.363  0.00  0.00    +0.000 C 
ATOM     20  O   UNL     1       5.669   5.613  17.254  0.00  0.00    +0.000 OA
ATOM     21  C   UNL     1       4.302   5.752  16.901  0.00  0.00    +0.000 C 
ATOM     22  C   UNL     1       3.381   4.742  17.505  0.00  0.00    +0.000 C 
ATOM     23  C   UNL     1       3.584   3.894  18.516  0.00  0.00    +0.000 C 
ATOM     24  C   UNL     1       4.986   3.800  18.982  0.00  0.00    +0.000 C 
ATOM     25  O   UNL     1       5.290   2.942  19.813  0.00  0.00    +0.000 OA
BRANCH  23  26
ATOM     26  O   UNL     1       2.618   3.046  19.192  0.00  0.00    +0.000 OA
BRANCH  26  27
ATOM     27  C   UNL     1       1.244   3.181  19.284  0.00  0.00    +0.000 C 
ATOM     28  C   UNL     1       0.768   4.111  20.391  0.00  0.00    +0.000 C 
ATOM     29  O   UNL     1       0.431   2.630  18.561  0.00  0.00    +0.000 OA
ENDBRANCH  26  27
ENDBRANCH  23  26
BRANCH  21  30
ATOM     30  C   UNL     1       3.690   7.151  17.207  0.00  0.00    +0.000 C 
BRANCH  30  31
ATOM     31  O   UNL     1       2.441   7.021  17.985  0.00  0.00    +0.000 OA
BRANCH  31  32
ATOM     32  C   UNL     1       2.024   8.128  18.709  0.00  0.00    +0.000 C 
ATOM     33  C   UNL     1       2.102   9.424  17.935  0.00  0.00    +0.000 C 
ATOM     34  O   UNL     1       1.693   8.101  19.859  0.00  0.00    +0.000 OA
ENDBRANCH  31  32
ENDBRANCH  30  31
ENDBRANCH  21  30
ENDBRANCH  18  19
ENDBRANCH   1  18
TORSDOF 19
ENDMDL
MODEL 5
REMARK VINA RESULT:      -6.0      3.100      9.348
REMARK  Name = 
REMARK  22 active torsions:
REMARK  status: ('A' for Active; 'I' for Inactive)
REMARK    1  A    between atoms: C_1  and  C_2
REMARK    2  A    between atoms: C_2  and  C_3
REMARK    3  A    between atoms: C_3  and  C_4
REMARK    4  A    between atoms: C_4  and  C_5
REMARK    5  A    between atoms: C_5  and  C_6
REMARK    6  A    between atoms: C_6  and  C_7
REMARK    7  A    between atoms: C_7  and  C_8
REMARK    8  A    between atoms: C_8  and  C_9
REMARK    9  A    between atoms: C_9  and  C_10
REMARK   10  A    between atoms: C_10  and  C_11
REMARK   11  A    between atoms: C_11  and  C_12
REMARK   12  A    between atoms: C_12  and  N_13
REMARK   13  A    between atoms: C_14  and  C_16
REMARK   14  A    between atoms: C_16  and  O_17
REMARK   15  A    between atoms: O_17  and  C_18
REMARK   16  A    between atoms: C_20  and  C_21
REMARK   17  A    between atoms: C_21  and  O_22
REMARK   18  A    between atoms: O_22  and  C_23
REMARK   19  A    between atoms: C_23  and  C_24
REMARK   20  A    between atoms: C_27  and  O_28
REMARK   21  A    between atoms: O_28  and  C_29
REMARK   22  A    between atoms: C_29  and  C_30
REMARK                            x       y       z     vdW  Elec       q    Type
REMARK                         _______ _______ _______ _____ _____    ______ ____
ROOT
ATOM      1  C   UNL     1       2.230   7.600  19.660  0.00  0.00    +0.000 C 
ENDROOT
BRANCH   1   3
ATOM      2  N   UNL     1       1.620   8.954  21.587  0.00  0.00    +0.000 N 
ATOM      3  C   UNL     1       1.389   7.781  20.901  0.00  0.00    +0.000 C 
ATOM      4  O   UNL     1       0.534   6.967  21.225  0.00  0.00    +0.000 OA
ATOM      5  H   UNL     1       1.970   9.748  21.060  0.00  0.00    +0.000 HD
BRANCH   2   6
ATOM      6  C   UNL     1       0.876   9.194  22.790  0.00  0.00    +0.000 C 
BRANCH   6   7
ATOM      7  C   UNL     1      -0.306  10.118  22.580  0.00  0.00    +0.000 C 
BRANCH   7   8
ATOM      8  C   UNL     1       0.082  11.203  21.583  0.00  0.00    +0.000 C 
BRANCH   8   9
ATOM      9  C   UNL     1      -1.088  11.549  20.680  0.00  0.00    +0.000 C 
BRANCH   9  10
ATOM     10  C   UNL     1      -0.738  11.253  19.229  0.00  0.00    +0.000 C 
BRANCH  10  11
ATOM     11  C   UNL     1      -0.975  12.485  18.373  0.00  0.00    +0.000 C 
BRANCH  11  12
ATOM     12  C   UNL     1      -0.868  13.742  19.221  0.00  0.00    +0.000 C 
BRANCH  12  13
ATOM     13  C   UNL     1       0.267  14.617  18.718  0.00  0.00    +0.000 C 
BRANCH  13  14
ATOM     14  C   UNL     1       1.568  14.232  19.404  0.00  0.00    +0.000 C 
BRANCH  14  15
ATOM     15  C   UNL     1       2.506  13.560  18.413  0.00  0.00    +0.000 C 
BRANCH  15  17
ATOM     16  C   UNL     1       3.600  15.607  17.487  0.00  0.00    +0.000 C 
ATOM     17  C   UNL     1       3.810  14.339  18.292  0.00  0.00    +0.000 C 
ENDBRANCH  15  17
ENDBRANCH  14  15
ENDBRANCH  13  14
ENDBRANCH  12  13
ENDBRANCH  11  12
ENDBRANCH  10  11
ENDBRANCH   9  10
ENDBRANCH   8   9
ENDBRANCH   7   8
ENDBRANCH   6   7
ENDBRANCH   2   6
ENDBRANCH   1   3
BRANCH   1  18
ATOM     18  O   UNL     1       2.791   6.306  19.496  0.00  0.00    +0.000 OA
BRANCH  18  19
ATOM     19  C   UNL     1       2.862   5.945  18.115  0.00  0.00    +0.000 C 
ATOM     20  O   UNL     1       1.892   4.939  17.892  0.00  0.00    +0.000 OA
ATOM     21  C   UNL     1       2.309   3.662  17.437  0.00  0.00    +0.000 C 
ATOM     22  C   UNL     1       3.695   3.603  16.879  0.00  0.00    +0.000 C 
ATOM     23  C   UNL     1       4.693   4.485  16.971  0.00  0.00    +0.000 C 
ATOM     24  C   UNL     1       4.316   5.798  17.541  0.00  0.00    +0.000 C 
ATOM     25  O   UNL     1       5.138   6.717  17.535  0.00  0.00    +0.000 OA
BRANCH  23  26
ATOM     26  O   UNL     1       6.079   4.326  16.567  0.00  0.00    +0.000 OA
BRANCH  26  27
ATOM     27  C   UNL     1       6.693   4.679  15.379  0.00  0.00    +0.000 C 
ATOM     28  C   UNL     1       6.212   3.908  14.158  0.00  0.00    +0.000 C 
ATOM     29  O   UNL     1       7.551   5.538  15.257  0.00  0.00    +0.000 OA
ENDBRANCH  26  27
ENDBRANCH  23  26
BRANCH  21  30
ATOM     30  C   UNL     1       2.209   2.527  18.499  0.00  0.00    +0.000 C 
BRANCH  30  31
ATOM     31  O   UNL     1       1.992   3.085  19.849  0.00  0.00    +0.000 OA
BRANCH  31  32
ATOM     32  C   UNL     1       2.910   2.751  20.832  0.00  0.00    +0.000 C 
ATOM     33  C   UNL     1       4.262   2.349  20.288  0.00  0.00    +0.000 C 
ATOM     34  O   UNL     1       2.666   2.710  22.003  0.00  0.00    +0.000 OA
ENDBRANCH  31  32
ENDBRANCH  30  31
ENDBRANCH  21  30
ENDBRANCH  18  19
ENDBRANCH   1  18
TORSDOF 19
ENDMDL
MODEL 6
REMARK VINA RESULT:      -6.0      3.200     10.660
REMARK  Name = 
REMARK  22 active torsions:
REMARK  status: ('A' for Active; 'I' for Inactive)
REMARK    1  A    between atoms: C_1  and  C_2
REMARK    2  A    between atoms: C_2  and  C_3
REMARK    3  A    between atoms: C_3  and  C_4
REMARK    4  A    between atoms: C_4  and  C_5
REMARK    5  A    between atoms: C_5  and  C_6
REMARK    6  A    between atoms: C_6  and  C_7
REMARK    7  A    between atoms: C_7  and  C_8
REMARK    8  A    between atoms: C_8  and  C_9
REMARK    9  A    between atoms: C_9  and  C_10
REMARK   10  A    between atoms: C_10  and  C_11
REMARK   11  A    between atoms: C_11  and  C_12
REMARK   12  A    between atoms: C_12  and  N_13
REMARK   13  A    between atoms: C_14  and  C_16
REMARK   14  A    between atoms: C_16  and  O_17
REMARK   15  A    between atoms: O_17  and  C_18
REMARK   16  A    between atoms: C_20  and  C_21
REMARK   17  A    between atoms: C_21  and  O_22
REMARK   18  A    between atoms: O_22  and  C_23
REMARK   19  A    between atoms: C_23  and  C_24
REMARK   20  A    between atoms: C_27  and  O_28
REMARK   21  A    between atoms: O_28  and  C_29
REMARK   22  A    between atoms: C_29  and  C_30
REMARK                            x       y       z     vdW  Elec       q    Type
REMARK                         _______ _______ _______ _____ _____    ______ ____
ROOT
ATOM      1  C   UNL     1       1.981   6.493  20.273  0.00  0.00    +0.000 C 
ENDROOT
BRANCH   1   3
ATOM      2  N   UNL     1       1.362   8.395  21.658  0.00  0.00    +0.000 N 
ATOM      3  C   UNL     1       1.669   7.966  20.384  0.00  0.00    +0.000 C 
ATOM      4  O   UNL     1       1.744   8.716  19.419  0.00  0.00    +0.000 OA
ATOM      5  H   UNL     1       1.746   7.871  22.438  0.00  0.00    +0.000 HD
BRANCH   2   6
ATOM      6  C   UNL     1       1.033   9.779  21.847  0.00  0.00    +0.000 C 
BRANCH   6   7
ATOM      7  C   UNL     1      -0.460  10.037  21.853  0.00  0.00    +0.000 C 
BRANCH   7   8
ATOM      8  C   UNL     1      -0.816  10.863  23.083  0.00  0.00    +0.000 C 
BRANCH   8   9
ATOM      9  C   UNL     1      -1.073  12.310  22.704  0.00  0.00    +0.000 C 
BRANCH   9  10
ATOM     10  C   UNL     1      -1.699  12.389  21.319  0.00  0.00    +0.000 C 
BRANCH  10  11
ATOM     11  C   UNL     1      -3.187  12.673  21.434  0.00  0.00    +0.000 C 
BRANCH  11  12
ATOM     12  C   UNL     1      -3.413  14.029  22.082  0.00  0.00    +0.000 C 
BRANCH  12  13
ATOM     13  C   UNL     1      -4.481  13.923  23.157  0.00  0.00    +0.000 C 
BRANCH  13  14
ATOM     14  C   UNL     1      -4.366  15.089  24.127  0.00  0.00    +0.000 C 
BRANCH  14  15
ATOM     15  C   UNL     1      -2.918  15.543  24.235  0.00  0.00    +0.000 C 
BRANCH  15  17
ATOM     16  C   UNL     1      -1.485  16.203  26.171  0.00  0.00    +0.000 C 
ATOM     17  C   UNL     1      -2.310  15.090  25.555  0.00  0.00    +0.000 C 
ENDBRANCH  15  17
ENDBRANCH  14  15
ENDBRANCH  13  14
ENDBRANCH  12  13
ENDBRANCH  11  12
ENDBRANCH  10  11
ENDBRANCH   9  10
ENDBRANCH   8   9
ENDBRANCH   7   8
ENDBRANCH   6   7
ENDBRANCH   2   6
ENDBRANCH   1   3
BRANCH   1  18
ATOM     18  O   UNL     1       3.255   6.187  19.723  0.00  0.00    +0.000 OA
BRANCH  18  19
ATOM     19  C   UNL     1       3.163   5.936  18.319  0.00  0.00    +0.000 C 
ATOM     20  O   UNL     1       2.059   5.074  18.117  0.00  0.00    +0.000 OA
ATOM     21  C   UNL     1       2.272   3.798  17.535  0.00  0.00    +0.000 C 
ATOM     22  C   UNL     1       3.587   3.620  16.848  0.00  0.00    +0.000 C 
ATOM     23  C   UNL     1       4.693   4.365  16.909  0.00  0.00    +0.000 C 
ATOM     24  C   UNL     1       4.535   5.663  17.604  0.00  0.00    +0.000 C 
ATOM     25  O   UNL     1       5.463   6.475  17.586  0.00  0.00    +0.000 OA
BRANCH  23  26
ATOM     26  O   UNL     1       6.009   4.076  16.367  0.00  0.00    +0.000 OA
BRANCH  26  27
ATOM     27  C   UNL     1       6.578   4.488  15.176  0.00  0.00    +0.000 C 
ATOM     28  C   UNL     1       5.961   3.873  13.928  0.00  0.00    +0.000 C 
ATOM     29  O   UNL     1       7.497   5.283  15.072  0.00  0.00    +0.000 OA
ENDBRANCH  26  27
ENDBRANCH  23  26
BRANCH  21  30
ATOM     30  C   UNL     1       2.118   2.600  18.518  0.00  0.00    +0.000 C 
BRANCH  30  31
ATOM     31  O   UNL     1       1.564   3.047  19.812  0.00  0.00    +0.000 OA
BRANCH  31  32
ATOM     32  C   UNL     1       2.362   2.892  20.935  0.00  0.00    +0.000 C 
ATOM     33  C   UNL     1       3.815   2.623  20.614  0.00  0.00    +0.000 C 
ATOM     34  O   UNL     1       1.958   2.898  22.061  0.00  0.00    +0.000 OA
ENDBRANCH  31  32
ENDBRANCH  30  31
ENDBRANCH  21  30
ENDBRANCH  18  19
ENDBRANCH   1  18
TORSDOF 19
ENDMDL
MODEL 7
REMARK VINA RESULT:      -5.8      6.618     11.165
REMARK  Name = 
REMARK  22 active torsions:
REMARK  status: ('A' for Active; 'I' for Inactive)
REMARK    1  A    between atoms: C_1  and  C_2
REMARK    2  A    between atoms: C_2  and  C_3
REMARK    3  A    between atoms: C_3  and  C_4
REMARK    4  A    between atoms: C_4  and  C_5
REMARK    5  A    between atoms: C_5  and  C_6
REMARK    6  A    between atoms: C_6  and  C_7
REMARK    7  A    between atoms: C_7  and  C_8
REMARK    8  A    between atoms: C_8  and  C_9
REMARK    9  A    between atoms: C_9  and  C_10
REMARK   10  A    between atoms: C_10  and  C_11
REMARK   11  A    between atoms: C_11  and  C_12
REMARK   12  A    between atoms: C_12  and  N_13
REMARK   13  A    between atoms: C_14  and  C_16
REMARK   14  A    between atoms: C_16  and  O_17
REMARK   15  A    between atoms: O_17  and  C_18
REMARK   16  A    between atoms: C_20  and  C_21
REMARK   17  A    between atoms: C_21  and  O_22
REMARK   18  A    between atoms: O_22  and  C_23
REMARK   19  A    between atoms: C_23  and  C_24
REMARK   20  A    between atoms: C_27  and  O_28
REMARK   21  A    between atoms: O_28  and  C_29
REMARK   22  A    between atoms: C_29  and  C_30
REMARK                            x       y       z     vdW  Elec       q    Type
REMARK                         _______ _______ _______ _____ _____    ______ ____
ROOT
ATOM      1  C   UNL     1       7.863   6.915  18.347  0.00  0.00    +0.000 C 
ENDROOT
BRANCH   1   3
ATOM      2  N   UNL     1       8.995   8.900  19.183  0.00  0.00    +0.000 N 
ATOM      3  C   UNL     1       8.218   8.372  18.173  0.00  0.00    +0.000 C 
ATOM      4  O   UNL     1       7.883   9.004  17.179  0.00  0.00    +0.000 OA
ATOM      5  H   UNL     1       9.594   8.264  19.700  0.00  0.00    +0.000 HD
BRANCH   2   6
ATOM      6  C   UNL     1       9.360  10.286  19.104  0.00  0.00    +0.000 C 
BRANCH   6   7
ATOM      7  C   UNL     1       9.358  10.976  20.453  0.00  0.00    +0.000 C 
BRANCH   7   8
ATOM      8  C   UNL     1      10.632  11.799  20.591  0.00  0.00    +0.000 C 
BRANCH   8   9
ATOM      9  C   UNL     1      10.707  12.862  19.509  0.00  0.00    +0.000 C 
BRANCH   9  10
ATOM     10  C   UNL     1      10.735  14.249  20.135  0.00  0.00    +0.000 C 
BRANCH  10  11
ATOM     11  C   UNL     1      10.220  14.188  21.562  0.00  0.00    +0.000 C 
BRANCH  11  12
ATOM     12  C   UNL     1       8.942  15.001  21.694  0.00  0.00    +0.000 C 
BRANCH  12  13
ATOM     13  C   UNL     1       8.750  15.445  23.134  0.00  0.00    +0.000 C 
BRANCH  13  14
ATOM     14  C   UNL     1       8.114  14.328  23.946  0.00  0.00    +0.000 C 
BRANCH  14  15
ATOM     15  C   UNL     1       6.934  13.735  23.191  0.00  0.00    +0.000 C 
BRANCH  15  17
ATOM     16  C   UNL     1       8.167  11.719  23.999  0.00  0.00    +0.000 C 
ATOM     17  C   UNL     1       7.071  12.222  23.081  0.00  0.00    +0.000 C 
ENDBRANCH  15  17
ENDBRANCH  14  15
ENDBRANCH  13  14
ENDBRANCH  12  13
ENDBRANCH  11  12
ENDBRANCH  10  11
ENDBRANCH   9  10
ENDBRANCH   8   9
ENDBRANCH   7   8
ENDBRANCH   6   7
ENDBRANCH   2   6
ENDBRANCH   1   3
BRANCH   1  18
ATOM     18  O   UNL     1       6.471   6.634  18.374  0.00  0.00    +0.000 OA
BRANCH  18  19
ATOM     19  C   UNL     1       6.228   5.228  18.286  0.00  0.00    +0.000 C 
ATOM     20  O   UNL     1       6.967   4.740  17.182  0.00  0.00    +0.000 OA
ATOM     21  C   UNL     1       6.280   4.131  16.101  0.00  0.00    +0.000 C 
ATOM     22  C   UNL     1       4.870   3.725  16.388  0.00  0.00    +0.000 C 
ATOM     23  C   UNL     1       4.069   4.067  17.398  0.00  0.00    +0.000 C 
ATOM     24  C   UNL     1       4.732   4.800  18.501  0.00  0.00    +0.000 C 
ATOM     25  O   UNL     1       4.103   5.032  19.536  0.00  0.00    +0.000 OA
BRANCH  23  26
ATOM     26  O   UNL     1       2.651   3.796  17.560  0.00  0.00    +0.000 OA
BRANCH  26  27
ATOM     27  C   UNL     1       2.026   2.686  18.098  0.00  0.00    +0.000 C 
ATOM     28  C   UNL     1       2.968   1.579  18.550  0.00  0.00    +0.000 C 
ATOM     29  O   UNL     1       0.821   2.551  18.233  0.00  0.00    +0.000 OA
ENDBRANCH  26  27
ENDBRANCH  23  26
BRANCH  21  30
ATOM     30  C   UNL     1       6.242   4.976  14.794  0.00  0.00    +0.000 C 
BRANCH  30  31
ATOM     31  O   UNL     1       6.890   4.254  13.680  0.00  0.00    +0.000 OA
BRANCH  31  32
ATOM     32  C   UNL     1       6.062   3.627  12.761  0.00  0.00    +0.000 C 
ATOM     33  C   UNL     1       6.811   2.869  11.688  0.00  0.00    +0.000 C 
ATOM     34  O   UNL     1       4.869   3.714  12.752  0.00  0.00    +0.000 OA
ENDBRANCH  31  32
ENDBRANCH  30  31
ENDBRANCH  21  30
ENDBRANCH  18  19
ENDBRANCH   1  18
TORSDOF 19
ENDMDL
MODEL 8
REMARK VINA RESULT:      -5.8      2.029      4.637
REMARK  Name = 
REMARK  22 active torsions:
REMARK  status: ('A' for Active; 'I' for Inactive)
REMARK    1  A    between atoms: C_1  and  C_2
REMARK    2  A    between atoms: C_2  and  C_3
REMARK    3  A    between atoms: C_3  and  C_4
REMARK    4  A    between atoms: C_4  and  C_5
REMARK    5  A    between atoms: C_5  and  C_6
REMARK    6  A    between atoms: C_6  and  C_7
REMARK    7  A    between atoms: C_7  and  C_8
REMARK    8  A    between atoms: C_8  and  C_9
REMARK    9  A    between atoms: C_9  and  C_10
REMARK   10  A    between atoms: C_10  and  C_11
REMARK   11  A    between atoms: C_11  and  C_12
REMARK   12  A    between atoms: C_12  and  N_13
REMARK   13  A    between atoms: C_14  and  C_16
REMARK   14  A    between atoms: C_16  and  O_17
REMARK   15  A    between atoms: O_17  and  C_18
REMARK   16  A    between atoms: C_20  and  C_21
REMARK   17  A    between atoms: C_21  and  O_22
REMARK   18  A    between atoms: O_22  and  C_23
REMARK   19  A    between atoms: C_23  and  C_24
REMARK   20  A    between atoms: C_27  and  O_28
REMARK   21  A    between atoms: O_28  and  C_29
REMARK   22  A    between atoms: C_29  and  C_30
REMARK                            x       y       z     vdW  Elec       q    Type
REMARK                         _______ _______ _______ _____ _____    ______ ____
ROOT
ATOM      1  C   UNL     1       0.404  10.127  20.846  0.00  0.00    +0.000 C 
ENDROOT
BRANCH   1   3
ATOM      2  N   UNL     1       1.565   8.201  19.917  0.00  0.00    +0.000 N 
ATOM      3  C   UNL     1       1.131   8.822  21.069  0.00  0.00    +0.000 C 
ATOM      4  O   UNL     1       1.357   8.394  22.193  0.00  0.00    +0.000 OA
ATOM      5  H   UNL     1       1.754   8.785  19.108  0.00  0.00    +0.000 HD
BRANCH   2   6
ATOM      6  C   UNL     1       2.248   6.945  20.039  0.00  0.00    +0.000 C 
BRANCH   6   7
ATOM      7  C   UNL     1       2.926   6.513  18.755  0.00  0.00    +0.000 C 
BRANCH   7   8
ATOM      8  C   UNL     1       2.160   5.340  18.159  0.00  0.00    +0.000 C 
BRANCH   8   9
ATOM      9  C   UNL     1       2.751   4.020  18.618  0.00  0.00    +0.000 C 
BRANCH   9  10
ATOM     10  C   UNL     1       4.211   3.923  18.200  0.00  0.00    +0.000 C 
BRANCH  10  11
ATOM     11  C   UNL     1       4.315   3.838  16.687  0.00  0.00    +0.000 C 
BRANCH  11  12
ATOM     12  C   UNL     1       5.607   4.484  16.213  0.00  0.00    +0.000 C 
BRANCH  12  13
ATOM     13  C   UNL     1       5.367   5.945  15.874  0.00  0.00    +0.000 C 
BRANCH  13  14
ATOM     14  C   UNL     1       5.886   6.835  16.993  0.00  0.00    +0.000 C 
BRANCH  14  15
ATOM     15  C   UNL     1       7.407   6.821  17.014  0.00  0.00    +0.000 C 
BRANCH  15  17
ATOM     16  C   UNL     1       7.458   5.703  19.248  0.00  0.00    +0.000 C 
ATOM     17  C   UNL     1       7.926   6.900  18.444  0.00  0.00    +0.000 C 
ENDBRANCH  15  17
ENDBRANCH  14  15
ENDBRANCH  13  14
ENDBRANCH  12  13
ENDBRANCH  11  12
ENDBRANCH  10  11
ENDBRANCH   9  10
ENDBRANCH   8   9
ENDBRANCH   7   8
ENDBRANCH   6   7
ENDBRANCH   2   6
ENDBRANCH   1   3
BRANCH   1  18
ATOM     18  O   UNL     1       0.241  10.931  22.006  0.00  0.00    +0.000 OA
BRANCH  18  19
ATOM     19  C   UNL     1      -0.275  12.221  21.670  0.00  0.00    +0.000 C 
ATOM     20  O   UNL     1      -1.578  12.032  21.151  0.00  0.00    +0.000 OA
ATOM     21  C   UNL     1      -1.862  12.440  19.823  0.00  0.00    +0.000 C 
ATOM     22  C   UNL     1      -0.863  13.370  19.213  0.00  0.00    +0.000 C 
ATOM     23  C   UNL     1       0.374  13.677  19.608  0.00  0.00    +0.000 C 
ATOM     24  C   UNL     1       0.744  13.176  20.951  0.00  0.00    +0.000 C 
ATOM     25  O   UNL     1       1.812  13.529  21.455  0.00  0.00    +0.000 OA
BRANCH  23  26
ATOM     26  O   UNL     1       1.382  14.450  18.904  0.00  0.00    +0.000 OA
BRANCH  26  27
ATOM     27  C   UNL     1       2.526  14.018  18.257  0.00  0.00    +0.000 C 
ATOM     28  C   UNL     1       3.435  15.131  17.756  0.00  0.00    +0.000 C 
ATOM     29  O   UNL     1       2.838  12.852  18.079  0.00  0.00    +0.000 OA
ENDBRANCH  26  27
ENDBRANCH  23  26
BRANCH  21  30
ATOM     30  C   UNL     1      -2.059  11.273  18.811  0.00  0.00    +0.000 C 
BRANCH  30  31
ATOM     31  O   UNL     1      -2.229  11.789  17.438  0.00  0.00    +0.000 OA
BRANCH  31  32
ATOM     32  C   UNL     1      -3.257  11.251  16.677  0.00  0.00    +0.000 C 
ATOM     33  C   UNL     1      -2.776  10.433  15.500  0.00  0.00    +0.000 C 
ATOM     34  O   UNL     1      -4.420  11.453  16.870  0.00  0.00    +0.000 OA
ENDBRANCH  31  32
ENDBRANCH  30  31
ENDBRANCH  21  30
ENDBRANCH  18  19
ENDBRANCH   1  18
TORSDOF 19
ENDMDL
MODEL 9
REMARK VINA RESULT:      -5.8      6.371     11.271
REMARK  Name = 
REMARK  22 active torsions:
REMARK  status: ('A' for Active; 'I' for Inactive)
REMARK    1  A    between atoms: C_1  and  C_2
REMARK    2  A    between atoms: C_2  and  C_3
REMARK    3  A    between atoms: C_3  and  C_4
REMARK    4  A    between atoms: C_4  and  C_5
REMARK    5  A    between atoms: C_5  and  C_6
REMARK    6  A    between atoms: C_6  and  C_7
REMARK    7  A    between atoms: C_7  and  C_8
REMARK    8  A    between atoms: C_8  and  C_9
REMARK    9  A    between atoms: C_9  and  C_10
REMARK   10  A    between atoms: C_10  and  C_11
REMARK   11  A    between atoms: C_11  and  C_12
REMARK   12  A    between atoms: C_12  and  N_13
REMARK   13  A    between atoms: C_14  and  C_16
REMARK   14  A    between atoms: C_16  and  O_17
REMARK   15  A    between atoms: O_17  and  C_18
REMARK   16  A    between atoms: C_20  and  C_21
REMARK   17  A    between atoms: C_21  and  O_22
REMARK   18  A    between atoms: O_22  and  C_23
REMARK   19  A    between atoms: C_23  and  C_24
REMARK   20  A    between atoms: C_27  and  O_28
REMARK   21  A    between atoms: O_28  and  C_29
REMARK   22  A    between atoms: C_29  and  C_30
REMARK                            x       y       z     vdW  Elec       q    Type
REMARK                         _______ _______ _______ _____ _____    ______ ____
ROOT
ATOM      1  C   UNL     1       7.813   7.178  18.330  0.00  0.00    +0.000 C 
ENDROOT
BRANCH   1   3
ATOM      2  N   UNL     1       9.091   9.074  19.161  0.00  0.00    +0.000 N 
ATOM      3  C   UNL     1       8.264   8.609  18.160  0.00  0.00    +0.000 C 
ATOM      4  O   UNL     1       7.958   9.271  17.177  0.00  0.00    +0.000 OA
ATOM      5  H   UNL     1       9.653   8.394  19.663  0.00  0.00    +0.000 HD
BRANCH   2   6
ATOM      6  C   UNL     1       9.550  10.432  19.086  0.00  0.00    +0.000 C 
BRANCH   6   7
ATOM      7  C   UNL     1       9.395  11.182  20.394  0.00  0.00    +0.000 C 
BRANCH   7   8
ATOM      8  C   UNL     1      10.718  11.850  20.744  0.00  0.00    +0.000 C 
BRANCH   8   9
ATOM      9  C   UNL     1      10.624  13.355  20.573  0.00  0.00    +0.000 C 
BRANCH   9  10
ATOM     10  C   UNL     1      11.209  13.771  19.231  0.00  0.00    +0.000 C 
BRANCH  10  11
ATOM     11  C   UNL     1      10.293  14.773  18.550  0.00  0.00    +0.000 C 
BRANCH  11  12
ATOM     12  C   UNL     1       8.877  14.640  19.087  0.00  0.00    +0.000 C 
BRANCH  12  13
ATOM     13  C   UNL     1       7.985  13.979  18.051  0.00  0.00    +0.000 C 
BRANCH  13  14
ATOM     14  C   UNL     1       6.943  14.967  17.549  0.00  0.00    +0.000 C 
BRANCH  14  15
ATOM     15  C   UNL     1       5.581  14.642  18.142  0.00  0.00    +0.000 C 
BRANCH  15  17
ATOM     16  C   UNL     1       5.290  15.004  20.597  0.00  0.00    +0.000 C 
ATOM     17  C   UNL     1       5.212  15.646  19.226  0.00  0.00    +0.000 C 
ENDBRANCH  15  17
ENDBRANCH  14  15
ENDBRANCH  13  14
ENDBRANCH  12  13
ENDBRANCH  11  12
ENDBRANCH  10  11
ENDBRANCH   9  10
ENDBRANCH   8   9
ENDBRANCH   7   8
ENDBRANCH   6   7
ENDBRANCH   2   6
ENDBRANCH   1   3
BRANCH   1  18
ATOM     18  O   UNL     1       7.711   6.433  17.125  0.00  0.00    +0.000 OA
BRANCH  18  19
ATOM     19  C   UNL     1       7.302   5.088  17.384  0.00  0.00    +0.000 C 
ATOM     20  O   UNL     1       7.424   4.369  16.171  0.00  0.00    +0.000 OA
ATOM     21  C   UNL     1       6.271   3.777  15.596  0.00  0.00    +0.000 C 
ATOM     22  C   UNL     1       5.095   3.650  16.510  0.00  0.00    +0.000 C 
ATOM     23  C   UNL     1       4.861   4.226  17.691  0.00  0.00    +0.000 C 
ATOM     24  C   UNL     1       6.016   4.946  18.274  0.00  0.00    +0.000 C 
ATOM     25  O   UNL     1       5.935   5.388  19.422  0.00  0.00    +0.000 OA
BRANCH  23  26
ATOM     26  O   UNL     1       3.639   4.219  18.474  0.00  0.00    +0.000 OA
BRANCH  26  27
ATOM     27  C   UNL     1       3.219   3.319  19.437  0.00  0.00    +0.000 C 
ATOM     28  C   UNL     1       2.444   3.937  20.592  0.00  0.00    +0.000 C 
ATOM     29  O   UNL     1       3.417   2.116  19.412  0.00  0.00    +0.000 OA
ENDBRANCH  26  27
ENDBRANCH  23  26
BRANCH  21  30
ATOM     30  C   UNL     1       5.755   4.476  14.303  0.00  0.00    +0.000 C 
BRANCH  30  31
ATOM     31  O   UNL     1       6.659   4.214  13.165  0.00  0.00    +0.000 OA
BRANCH  31  32
ATOM     32  C   UNL     1       6.218   3.332  12.191  0.00  0.00    +0.000 C 
ATOM     33  C   UNL     1       4.733   3.419  11.922  0.00  0.00    +0.000 C 
ATOM     34  O   UNL     1       6.909   2.522  11.645  0.00  0.00    +0.000 OA
ENDBRANCH  31  32
ENDBRANCH  30  31
ENDBRANCH  21  30
ENDBRANCH  18  19
ENDBRANCH   1  18
TORSDOF 19
ENDMDL
