MODEL 1
REMARK VINA RESULT:      -7.5      0.000      0.000
REMARK  Name = 
REMARK  2 active torsions:
REMARK  status: ('A' for Active; 'I' for Inactive)
REMARK    1  A    between atoms: C_6  and  O_7
REMARK    2  A    between atoms: O_7  and  C_8
REMARK                            x       y       z     vdW  Elec       q    Type
REMARK                         _______ _______ _______ _____ _____    ______ ____
ROOT
ATOM      1  C   UNL     1      -0.415  11.249  20.765  0.00  0.00    +0.000 A 
ATOM      2  C   UNL     1      -0.184  11.652  19.452  0.00  0.00    +0.000 A 
ATOM      3  C   UNL     1       0.560  10.839  18.593  0.00  0.00    +0.000 A 
ATOM      4  C   UNL     1       1.086   9.614  19.037  0.00  0.00    +0.000 A 
ATOM      5  C   UNL     1       1.835   8.780  18.188  0.00  0.00    +0.000 A 
ATOM      6  C   UNL     1       2.353   7.566  18.649  0.00  0.00    +0.000 A 
ATOM      7  C   UNL     1       2.161   7.197  19.980  0.00  0.00    +0.000 A 
ATOM      8  C   UNL     1       1.400   8.003  20.830  0.00  0.00    +0.000 A 
ATOM      9  C   UNL     1       0.858   9.214  20.374  0.00  0.00    +0.000 A 
ATOM     10  C   UNL     1       0.102  10.036  21.223  0.00  0.00    +0.000 A 
ENDROOT
BRANCH   6  11
ATOM     11  O   UNL     1       3.112   6.850  17.749  0.00  0.00    +0.000 OA
BRANCH  11  12
ATOM     12  C   UNL     1       3.855   5.769  18.212  0.00  0.00    +0.000 A 
ATOM     13  N   UNL     1       5.103   5.959  18.696  0.00  0.00    +0.000 NA
ATOM     14  C   UNL     1       5.781   4.884  19.120  0.00  0.00    +0.000 A 
ATOM     15  N   UNL     1       5.364   3.616  19.146  0.00  0.00    +0.000 NA
ATOM     16  C   UNL     1       4.103   3.480  18.703  0.00  0.00    +0.000 A 
ATOM     17  S   UNL     1       3.345   1.952  18.671  0.00  0.00    +0.000 S 
ATOM     18  C   UNL     1       1.896   2.613  18.046  0.00  0.00    +0.000 A 
ATOM     19  C   UNL     1       1.996   3.976  17.855  0.00  0.00    +0.000 A 
ATOM     20  C   UNL     1       3.281   4.492  18.233  0.00  0.00    +0.000 A 
ENDBRANCH  11  12
ENDBRANCH   6  11
TORSDOF 2
ENDMDL
MODEL 2
REMARK VINA RESULT:      -7.3      1.571      2.286
REMARK  Name = 
REMARK  2 active torsions:
REMARK  status: ('A' for Active; 'I' for Inactive)
REMARK    1  A    between atoms: C_6  and  O_7
REMARK    2  A    between atoms: O_7  and  C_8
REMARK                            x       y       z     vdW  Elec       q    Type
REMARK                         _______ _______ _______ _____ _____    ______ ____
ROOT
ATOM      1  C   UNL     1      -0.864  11.324  19.976  0.00  0.00    +0.000 A 
ATOM      2  C   UNL     1      -0.668  10.702  21.207  0.00  0.00    +0.000 A 
ATOM      3  C   UNL     1       0.217   9.627  21.313  0.00  0.00    +0.000 A 
ATOM      4  C   UNL     1       0.916   9.156  20.189  0.00  0.00    +0.000 A 
ATOM      5  C   UNL     1       1.813   8.077  20.274  0.00  0.00    +0.000 A 
ATOM      6  C   UNL     1       2.497   7.621  19.144  0.00  0.00    +0.000 A 
ATOM      7  C   UNL     1       2.254   8.215  17.906  0.00  0.00    +0.000 A 
ATOM      8  C   UNL     1       1.382   9.303  17.808  0.00  0.00    +0.000 A 
ATOM      9  C   UNL     1       0.706   9.783  18.939  0.00  0.00    +0.000 A 
ATOM     10  C   UNL     1      -0.180  10.868  18.849  0.00  0.00    +0.000 A 
ENDROOT
BRANCH   6  11
ATOM     11  O   UNL     1       3.315   6.528  19.330  0.00  0.00    +0.000 OA
BRANCH  11  12
ATOM     12  C   UNL     1       3.060   5.370  18.603  0.00  0.00    +0.000 A 
ATOM     13  N   UNL     1       3.727   5.128  17.452  0.00  0.00    +0.000 NA
ATOM     14  C   UNL     1       3.436   4.004  16.784  0.00  0.00    +0.000 A 
ATOM     15  N   UNL     1       2.562   3.055  17.127  0.00  0.00    +0.000 NA
ATOM     16  C   UNL     1       1.958   3.312  18.300  0.00  0.00    +0.000 A 
ATOM     17  S   UNL     1       0.820   2.224  18.956  0.00  0.00    +0.000 S 
ATOM     18  C   UNL     1       0.577   3.211  20.333  0.00  0.00    +0.000 A 
ATOM     19  C   UNL     1       1.344   4.356  20.284  0.00  0.00    +0.000 A 
ATOM     20  C   UNL     1       2.152   4.427  19.099  0.00  0.00    +0.000 A 
ENDBRANCH  11  12
ENDBRANCH   6  11
TORSDOF 2
ENDMDL
MODEL 3
REMARK VINA RESULT:      -7.3      0.715      1.778
REMARK  Name = 
REMARK  2 active torsions:
REMARK  status: ('A' for Active; 'I' for Inactive)
REMARK    1  A    between atoms: C_6  and  O_7
REMARK    2  A    between atoms: O_7  and  C_8
REMARK                            x       y       z     vdW  Elec       q    Type
REMARK                         _______ _______ _______ _____ _____    ______ ____
ROOT
ATOM      1  C   UNL     1       0.289  10.345  21.870  0.00  0.00    +0.000 A 
ATOM      2  C   UNL     1       0.573   9.084  22.388  0.00  0.00    +0.000 A 
ATOM      3  C   UNL     1       1.185   8.121  21.583  0.00  0.00    +0.000 A 
ATOM      4  C   UNL     1       1.517   8.404  20.247  0.00  0.00    +0.000 A 
ATOM      5  C   UNL     1       2.136   7.450  19.420  0.00  0.00    +0.000 A 
ATOM      6  C   UNL     1       2.456   7.749  18.093  0.00  0.00    +0.000 A 
ATOM      7  C   UNL     1       2.119   8.997  17.569  0.00  0.00    +0.000 A 
ATOM      8  C   UNL     1       1.524   9.964  18.383  0.00  0.00    +0.000 A 
ATOM      9  C   UNL     1       1.217   9.682  19.722  0.00  0.00    +0.000 A 
ATOM     10  C   UNL     1       0.610  10.643  20.545  0.00  0.00    +0.000 A 
ENDROOT
BRANCH   6  11
ATOM     11  O   UNL     1       3.016   6.727  17.358  0.00  0.00    +0.000 OA
BRANCH  11  12
ATOM     12  C   UNL     1       3.756   5.755  18.022  0.00  0.00    +0.000 A 
ATOM     13  N   UNL     1       4.949   6.068  18.576  0.00  0.00    +0.000 NA
ATOM     14  C   UNL     1       5.628   5.093  19.195  0.00  0.00    +0.000 A 
ATOM     15  N   UNL     1       5.259   3.820  19.357  0.00  0.00    +0.000 NA
ATOM     16  C   UNL     1       4.048   3.564  18.834  0.00  0.00    +0.000 A 
ATOM     17  S   UNL     1       3.356   2.009  18.944  0.00  0.00    +0.000 S 
ATOM     18  C   UNL     1       1.944   2.510  18.119  0.00  0.00    +0.000 A 
ATOM     19  C   UNL     1       2.007   3.840  17.756  0.00  0.00    +0.000 A 
ATOM     20  C   UNL     1       3.233   4.464  18.166  0.00  0.00    +0.000 A 
ENDBRANCH  11  12
ENDBRANCH   6  11
TORSDOF 2
ENDMDL
MODEL 4
REMARK VINA RESULT:      -7.2      3.560      6.860
REMARK  Name = 
REMARK  2 active torsions:
REMARK  status: ('A' for Active; 'I' for Inactive)
REMARK    1  A    between atoms: C_6  and  O_7
REMARK    2  A    between atoms: O_7  and  C_8
REMARK                            x       y       z     vdW  Elec       q    Type
REMARK                         _______ _______ _______ _____ _____    ______ ____
ROOT
ATOM      1  C   UNL     1       1.570   1.992  19.882  0.00  0.00    +0.000 A 
ATOM      2  C   UNL     1       1.614   2.551  21.156  0.00  0.00    +0.000 A 
ATOM      3  C   UNL     1       1.778   3.929  21.309  0.00  0.00    +0.000 A 
ATOM      4  C   UNL     1       1.905   4.768  20.189  0.00  0.00    +0.000 A 
ATOM      5  C   UNL     1       2.068   6.158  20.320  0.00  0.00    +0.000 A 
ATOM      6  C   UNL     1       2.196   6.975  19.194  0.00  0.00    +0.000 A 
ATOM      7  C   UNL     1       2.205   6.400  17.924  0.00  0.00    +0.000 A 
ATOM      8  C   UNL     1       2.021   5.023  17.774  0.00  0.00    +0.000 A 
ATOM      9  C   UNL     1       1.871   4.195  18.897  0.00  0.00    +0.000 A 
ATOM     10  C   UNL     1       1.697   2.809  18.758  0.00  0.00    +0.000 A 
ENDROOT
BRANCH   6  11
ATOM     11  O   UNL     1       2.399   8.317  19.437  0.00  0.00    +0.000 OA
BRANCH  11  12
ATOM     12  C   UNL     1       1.292   9.146  19.573  0.00  0.00    +0.000 A 
ATOM     13  N   UNL     1       0.673   9.641  18.478  0.00  0.00    +0.000 NA
ATOM     14  C   UNL     1      -0.383  10.444  18.663  0.00  0.00    +0.000 A 
ATOM     15  N   UNL     1      -0.931  10.814  19.824  0.00  0.00    +0.000 NA
ATOM     16  C   UNL     1      -0.316  10.261  20.883  0.00  0.00    +0.000 A 
ATOM     17  S   UNL     1      -0.860  10.567  22.470  0.00  0.00    +0.000 S 
ATOM     18  C   UNL     1       0.349   9.563  23.146  0.00  0.00    +0.000 A 
ATOM     19  C   UNL     1       1.161   9.014  22.174  0.00  0.00    +0.000 A 
ATOM     20  C   UNL     1       0.783   9.418  20.849  0.00  0.00    +0.000 A 
ENDBRANCH  11  12
ENDBRANCH   6  11
TORSDOF 2
ENDMDL
MODEL 5
REMARK VINA RESULT:      -7.2      1.663      2.747
REMARK  Name = 
REMARK  2 active torsions:
REMARK  status: ('A' for Active; 'I' for Inactive)
REMARK    1  A    between atoms: C_6  and  O_7
REMARK    2  A    between atoms: O_7  and  C_8
REMARK                            x       y       z     vdW  Elec       q    Type
REMARK                         _______ _______ _______ _____ _____    ______ ____
ROOT
ATOM      1  C   UNL     1      -0.682  11.759  19.622  0.00  0.00    +0.000 A 
ATOM      2  C   UNL     1      -0.729  11.210  20.900  0.00  0.00    +0.000 A 
ATOM      3  C   UNL     1      -0.022  10.038  21.182  0.00  0.00    +0.000 A 
ATOM      4  C   UNL     1       0.736   9.397  20.188  0.00  0.00    +0.000 A 
ATOM      5  C   UNL     1       1.456   8.218  20.451  0.00  0.00    +0.000 A 
ATOM      6  C   UNL     1       2.202   7.594  19.448  0.00  0.00    +0.000 A 
ATOM      7  C   UNL     1       2.198   8.123  18.158  0.00  0.00    +0.000 A 
ATOM      8  C   UNL     1       1.507   9.305  17.885  0.00  0.00    +0.000 A 
ATOM      9  C   UNL     1       0.771   9.953  18.888  0.00  0.00    +0.000 A 
ATOM     10  C   UNL     1       0.064  11.135  18.622  0.00  0.00    +0.000 A 
ENDROOT
BRANCH   6  11
ATOM     11  O   UNL     1       2.830   6.419  19.801  0.00  0.00    +0.000 OA
BRANCH  11  12
ATOM     12  C   UNL     1       2.856   5.374  18.885  0.00  0.00    +0.000 A 
ATOM     13  N   UNL     1       1.786   4.558  18.752  0.00  0.00    +0.000 NA
ATOM     14  C   UNL     1       1.864   3.559  17.863  0.00  0.00    +0.000 A 
ATOM     15  N   UNL     1       2.886   3.269  17.053  0.00  0.00    +0.000 NA
ATOM     16  C   UNL     1       3.907   4.132  17.183  0.00  0.00    +0.000 A 
ATOM     17  S   UNL     1       5.313   3.977  16.229  0.00  0.00    +0.000 S 
ATOM     18  C   UNL     1       6.029   5.353  16.948  0.00  0.00    +0.000 A 
ATOM     19  C   UNL     1       5.213   5.914  17.908  0.00  0.00    +0.000 A 
ATOM     20  C   UNL     1       3.972   5.206  18.056  0.00  0.00    +0.000 A 
ENDBRANCH  11  12
ENDBRANCH   6  11
TORSDOF 2
ENDMDL
MODEL 6
REMARK VINA RESULT:      -7.2      2.048      2.814
REMARK  Name = 
REMARK  2 active torsions:
REMARK  status: ('A' for Active; 'I' for Inactive)
REMARK    1  A    between atoms: C_6  and  O_7
REMARK    2  A    between atoms: O_7  and  C_8
REMARK                            x       y       z     vdW  Elec       q    Type
REMARK                         _______ _______ _______ _____ _____    ______ ____
ROOT
ATOM      1  C   UNL     1       0.012  10.514  19.605  0.00  0.00    +0.000 A 
ATOM      2  C   UNL     1      -0.066   9.768  20.778  0.00  0.00    +0.000 A 
ATOM      3  C   UNL     1       0.692   8.602  20.915  0.00  0.00    +0.000 A 
ATOM      4  C   UNL     1       1.534   8.165  19.879  0.00  0.00    +0.000 A 
ATOM      5  C   UNL     1       2.307   6.996  19.998  0.00  0.00    +0.000 A 
ATOM      6  C   UNL     1       3.137   6.575  18.955  0.00  0.00    +0.000 A 
ATOM      7  C   UNL     1       3.167   7.301  17.764  0.00  0.00    +0.000 A 
ATOM      8  C   UNL     1       2.423   8.476  17.638  0.00  0.00    +0.000 A 
ATOM      9  C   UNL     1       1.602   8.920  18.686  0.00  0.00    +0.000 A 
ATOM     10  C   UNL     1       0.842  10.093  18.565  0.00  0.00    +0.000 A 
ENDROOT
BRANCH   6  11
ATOM     11  O   UNL     1       3.813   5.392  19.157  0.00  0.00    +0.000 OA
BRANCH  11  12
ATOM     12  C   UNL     1       5.142   5.305  18.756  0.00  0.00    +0.000 A 
ATOM     13  N   UNL     1       6.137   5.560  19.635  0.00  0.00    +0.000 NA
ATOM     14  C   UNL     1       7.399   5.472  19.197  0.00  0.00    +0.000 A 
ATOM     15  N   UNL     1       7.815   5.137  17.973  0.00  0.00    +0.000 NA
ATOM     16  C   UNL     1       6.797   4.845  17.146  0.00  0.00    +0.000 A 
ATOM     17  S   UNL     1       7.087   4.362  15.536  0.00  0.00    +0.000 S 
ATOM     18  C   UNL     1       5.415   4.186  15.221  0.00  0.00    +0.000 A 
ATOM     19  C   UNL     1       4.649   4.503  16.324  0.00  0.00    +0.000 A 
ATOM     20  C   UNL     1       5.447   4.892  17.453  0.00  0.00    +0.000 A 
ENDBRANCH  11  12
ENDBRANCH   6  11
TORSDOF 2
ENDMDL
MODEL 7
REMARK VINA RESULT:      -7.2      1.761      2.605
REMARK  Name = 
REMARK  2 active torsions:
REMARK  status: ('A' for Active; 'I' for Inactive)
REMARK    1  A    between atoms: C_6  and  O_7
REMARK    2  A    between atoms: O_7  and  C_8
REMARK                            x       y       z     vdW  Elec       q    Type
REMARK                         _______ _______ _______ _____ _____    ______ ____
ROOT
ATOM      1  C   UNL     1      -0.872  11.614  19.427  0.00  0.00    +0.000 A 
ATOM      2  C   UNL     1      -0.872  11.174  20.748  0.00  0.00    +0.000 A 
ATOM      3  C   UNL     1      -0.095  10.074  21.117  0.00  0.00    +0.000 A 
ATOM      4  C   UNL     1       0.690   9.396  20.169  0.00  0.00    +0.000 A 
ATOM      5  C   UNL     1       1.482   8.288  20.521  0.00  0.00    +0.000 A 
ATOM      6  C   UNL     1       2.253   7.625  19.562  0.00  0.00    +0.000 A 
ATOM      7  C   UNL     1       2.204   8.040  18.232  0.00  0.00    +0.000 A 
ATOM      8  C   UNL     1       1.441   9.152  17.870  0.00  0.00    +0.000 A 
ATOM      9  C   UNL     1       0.678   9.839  18.827  0.00  0.00    +0.000 A 
ATOM     10  C   UNL     1      -0.101  10.951  18.472  0.00  0.00    +0.000 A 
ENDROOT
BRANCH   6  11
ATOM     11  O   UNL     1       2.954   6.523  20.004  0.00  0.00    +0.000 OA
BRANCH  11  12
ATOM     12  C   UNL     1       2.395   5.262  19.829  0.00  0.00    +0.000 A 
ATOM     13  N   UNL     1       1.307   4.894  20.543  0.00  0.00    +0.000 NA
ATOM     14  C   UNL     1       0.814   3.665  20.346  0.00  0.00    +0.000 A 
ATOM     15  N   UNL     1       1.259   2.735  19.496  0.00  0.00    +0.000 NA
ATOM     16  C   UNL     1       2.309   3.159  18.774  0.00  0.00    +0.000 A 
ATOM     17  S   UNL     1       3.031   2.151  17.602  0.00  0.00    +0.000 S 
ATOM     18  C   UNL     1       4.173   3.353  17.180  0.00  0.00    +0.000 A 
ATOM     19  C   UNL     1       4.012   4.499  17.930  0.00  0.00    +0.000 A 
ATOM     20  C   UNL     1       2.928   4.396  18.867  0.00  0.00    +0.000 A 
ENDBRANCH  11  12
ENDBRANCH   6  11
TORSDOF 2
ENDMDL
MODEL 8
REMARK VINA RESULT:      -7.1      1.821      2.998
REMARK  Name = 
REMARK  2 active torsions:
REMARK  status: ('A' for Active; 'I' for Inactive)
REMARK    1  A    between atoms: C_6  and  O_7
REMARK    2  A    between atoms: O_7  and  C_8
REMARK                            x       y       z     vdW  Elec       q    Type
REMARK                         _______ _______ _______ _____ _____    ______ ____
ROOT
ATOM      1  C   UNL     1       0.536  10.739  21.558  0.00  0.00    +0.000 A 
ATOM      2  C   UNL     1       0.656   9.545  22.263  0.00  0.00    +0.000 A 
ATOM      3  C   UNL     1       1.110   8.394  21.615  0.00  0.00    +0.000 A 
ATOM      4  C   UNL     1       1.447   8.421  20.251  0.00  0.00    +0.000 A 
ATOM      5  C   UNL     1       1.909   7.274  19.581  0.00  0.00    +0.000 A 
ATOM      6  C   UNL     1       2.236   7.321  18.223  0.00  0.00    +0.000 A 
ATOM      7  C   UNL     1       2.062   8.508  17.513  0.00  0.00    +0.000 A 
ATOM      8  C   UNL     1       1.626   9.662  18.169  0.00  0.00    +0.000 A 
ATOM      9  C   UNL     1       1.314   9.633  19.537  0.00  0.00    +0.000 A 
ATOM     10  C   UNL     1       0.864  10.784  20.203  0.00  0.00    +0.000 A 
ENDROOT
BRANCH   6  11
ATOM     11  O   UNL     1       2.632   6.130  17.653  0.00  0.00    +0.000 OA
BRANCH  11  12
ATOM     12  C   UNL     1       3.694   5.437  18.223  0.00  0.00    +0.000 A 
ATOM     13  N   UNL     1       3.469   4.306  18.928  0.00  0.00    +0.000 NA
ATOM     14  C   UNL     1       4.525   3.682  19.466  0.00  0.00    +0.000 A 
ATOM     15  N   UNL     1       5.811   4.032  19.377  0.00  0.00    +0.000 NA
ATOM     16  C   UNL     1       5.993   5.133  18.628  0.00  0.00    +0.000 A 
ATOM     17  S   UNL     1       7.558   5.754  18.350  0.00  0.00    +0.000 S 
ATOM     18  C   UNL     1       6.949   7.027  17.384  0.00  0.00    +0.000 A 
ATOM     19  C   UNL     1       5.573   6.984  17.287  0.00  0.00    +0.000 A 
ATOM     20  C   UNL     1       5.005   5.883  18.013  0.00  0.00    +0.000 A 
ENDBRANCH  11  12
ENDBRANCH   6  11
TORSDOF 2
ENDMDL
MODEL 9
REMARK VINA RESULT:      -7.1      2.089      2.941
REMARK  Name = 
REMARK  2 active torsions:
REMARK  status: ('A' for Active; 'I' for Inactive)
REMARK    1  A    between atoms: C_6  and  O_7
REMARK    2  A    between atoms: O_7  and  C_8
REMARK                            x       y       z     vdW  Elec       q    Type
REMARK                         _______ _______ _______ _____ _____    ______ ____
ROOT
ATOM      1  C   UNL     1      -1.284  11.329  22.031  0.00  0.00    +0.000 A 
ATOM      2  C   UNL     1      -0.893  10.465  23.050  0.00  0.00    +0.000 A 
ATOM      3  C   UNL     1       0.011   9.434  22.783  0.00  0.00    +0.000 A 
ATOM      4  C   UNL     1       0.532   9.251  21.491  0.00  0.00    +0.000 A 
ATOM      5  C   UNL     1       1.445   8.220  21.202  0.00  0.00    +0.000 A 
ATOM      6  C   UNL     1       1.950   8.052  19.909  0.00  0.00    +0.000 A 
ATOM      7  C   UNL     1       1.511   8.889  18.885  0.00  0.00    +0.000 A 
ATOM      8  C   UNL     1       0.622   9.931  19.160  0.00  0.00    +0.000 A 
ATOM      9  C   UNL     1       0.124  10.123  20.457  0.00  0.00    +0.000 A 
ATOM     10  C   UNL     1      -0.778  11.160  20.742  0.00  0.00    +0.000 A 
ENDROOT
BRANCH   6  11
ATOM     11  O   UNL     1       2.800   6.983  19.725  0.00  0.00    +0.000 OA
BRANCH  11  12
ATOM     12  C   UNL     1       2.289   5.808  19.184  0.00  0.00    +0.000 A 
ATOM     13  N   UNL     1       2.044   5.720  17.858  0.00  0.00    +0.000 NA
ATOM     14  C   UNL     1       1.542   4.571  17.388  0.00  0.00    +0.000 A 
ATOM     15  N   UNL     1       1.263   3.462  18.078  0.00  0.00    +0.000 NA
ATOM     16  C   UNL     1       1.567   3.577  19.381  0.00  0.00    +0.000 A 
ATOM     17  S   UNL     1       1.322   2.275  20.456  0.00  0.00    +0.000 S 
ATOM     18  C   UNL     1       1.924   3.173  21.781  0.00  0.00    +0.000 A 
ATOM     19  C   UNL     1       2.295   4.449  21.409  0.00  0.00    +0.000 A 
ATOM     20  C   UNL     1       2.087   4.696  20.010  0.00  0.00    +0.000 A 
ENDBRANCH  11  12
ENDBRANCH   6  11
TORSDOF 2
ENDMDL
