MODEL 1
REMARK VINA RESULT:      -8.1      0.000      0.000
REMARK  Name = 
REMARK  13 active torsions:
REMARK  status: ('A' for Active; 'I' for Inactive)
REMARK    1  A    between atoms: C_1  and  O_2
REMARK    2  A    between atoms: O_2  and  C_3
REMARK    3  A    between atoms: C_5  and  O_6
REMARK    4  A    between atoms: O_6  and  C_7
REMARK    5  A    between atoms: C_9  and  N_10
REMARK    6  A    between atoms: N_10  and  C_11
REMARK    7  A    between atoms: N_10  and  C_17
REMARK    8  A    between atoms: C_11  and  C_12
REMARK    9  A    between atoms: C_12  and  N_13
REMARK   10  A    between atoms: N_13  and  C_14
REMARK   11  A    between atoms: C_14  and  C_15
REMARK   12  A    between atoms: C_14  and  C_16
REMARK   13  A    between atoms: C_23  and  C_24
REMARK                            x       y       z     vdW  Elec       q    Type
REMARK                         _______ _______ _______ _____ _____    ______ ____
ROOT
ATOM      1  N   UNL     1       3.304   5.383  17.716  0.00  0.00    +0.000 N 
ENDROOT
BRANCH   1   2
ATOM      2  C   UNL     1       2.623   6.405  18.528  0.00  0.00    +0.000 A 
ATOM      3  C   UNL     1       2.301   6.096  19.876  0.00  0.00    +0.000 A 
ATOM      4  C   UNL     1       1.759   7.028  20.740  0.00  0.00    +0.000 A 
ATOM      5  C   UNL     1       1.474   8.305  20.300  0.00  0.00    +0.000 A 
ATOM      6  N   UNL     1       0.985   9.204  21.183  0.00  0.00    +0.000 NA
ATOM      7  C   UNL     1       0.673  10.459  20.809  0.00  0.00    +0.000 A 
ATOM      8  C   UNL     1       0.813  10.845  19.469  0.00  0.00    +0.000 A 
ATOM      9  N   UNL     1       1.335   9.942  18.569  0.00  0.00    +0.000 NA
ATOM     10  C   UNL     1       1.696   8.673  18.963  0.00  0.00    +0.000 A 
ATOM     11  C   UNL     1       2.288   7.730  18.075  0.00  0.00    +0.000 A 
BRANCH   8  12
ATOM     12  C   UNL     1       0.351  12.209  19.076  0.00  0.00    +0.000 A 
ATOM     13  C   UNL     1       0.964  13.429  19.298  0.00  0.00    +0.000 A 
ATOM     14  N   UNL     1       0.222  14.409  18.738  0.00  0.00    +0.000 NA
ATOM     15  N   UNL     1      -0.838  13.851  18.175  0.00  0.00    +0.000 N 
ATOM     16  C   UNL     1      -0.795  12.521  18.356  0.00  0.00    +0.000 A 
ATOM     17  H   UNL     1      -1.584  14.373  17.663  0.00  0.00    +0.000 HD
ENDBRANCH   8  12
ENDBRANCH   1   2
BRANCH   1  22
ATOM     18  C   UNL     1       6.403   4.997  15.523  0.00  0.00    +0.000 A 
ATOM     19  C   UNL     1       7.339   5.782  16.188  0.00  0.00    +0.000 A 
ATOM     20  C   UNL     1       7.004   6.423  17.384  0.00  0.00    +0.000 A 
ATOM     21  C   UNL     1       5.697   6.281  17.898  0.00  0.00    +0.000 A 
ATOM     22  C   UNL     1       4.682   5.529  17.221  0.00  0.00    +0.000 A 
ATOM     23  C   UNL     1       5.105   4.870  16.050  0.00  0.00    +0.000 A 
BRANCH  18  25
ATOM     24  C   UNL     1       5.911   3.767  13.494  0.00  0.00    +0.000 C 
ATOM     25  O   UNL     1       6.779   4.383  14.376  0.00  0.00    +0.000 OA
ENDBRANCH  18  25
BRANCH  20  26
ATOM     26  O   UNL     1       7.909   7.186  18.063  0.00  0.00    +0.000 OA
ATOM     27  C   UNL     1       8.108   8.549  17.896  0.00  0.00    +0.000 C 
ENDBRANCH  20  26
ENDBRANCH   1  22
BRANCH   1  28
ATOM     28  C   UNL     1       2.465   4.222  17.321  0.00  0.00    +0.000 C 
BRANCH  28  29
ATOM     29  C   UNL     1       2.885   2.835  17.843  0.00  0.00    +0.000 C 
BRANCH  29  30
ATOM     30  N   UNL     1       1.808   2.068  18.488  0.00  0.00    +0.000 NA
ATOM     31  H   UNL     1       1.901   1.065  18.193  0.00  0.00    +0.000 HD
BRANCH  30  32
ATOM     32  C   UNL     1       1.933   2.135  19.968  0.00  0.00    +0.000 C 
ATOM     33  C   UNL     1       3.336   2.605  20.412  0.00  0.00    +0.000 C 
ATOM     34  C   UNL     1       0.897   3.103  20.551  0.00  0.00    +0.000 C 
ENDBRANCH  30  32
ENDBRANCH  29  30
ENDBRANCH  28  29
ENDBRANCH   1  28
TORSDOF 9
ENDMDL
MODEL 2
REMARK VINA RESULT:      -8.0      0.589      2.324
REMARK  Name = 
REMARK  13 active torsions:
REMARK  status: ('A' for Active; 'I' for Inactive)
REMARK    1  A    between atoms: C_1  and  O_2
REMARK    2  A    between atoms: O_2  and  C_3
REMARK    3  A    between atoms: C_5  and  O_6
REMARK    4  A    between atoms: O_6  and  C_7
REMARK    5  A    between atoms: C_9  and  N_10
REMARK    6  A    between atoms: N_10  and  C_11
REMARK    7  A    between atoms: N_10  and  C_17
REMARK    8  A    between atoms: C_11  and  C_12
REMARK    9  A    between atoms: C_12  and  N_13
REMARK   10  A    between atoms: N_13  and  C_14
REMARK   11  A    between atoms: C_14  and  C_15
REMARK   12  A    between atoms: C_14  and  C_16
REMARK   13  A    between atoms: C_23  and  C_24
REMARK                            x       y       z     vdW  Elec       q    Type
REMARK                         _______ _______ _______ _____ _____    ______ ____
ROOT
ATOM      1  N   UNL     1       2.949   5.161  17.913  0.00  0.00    +0.000 N 
ENDROOT
BRANCH   1   2
ATOM      2  C   UNL     1       2.383   6.259  18.713  0.00  0.00    +0.000 A 
ATOM      3  C   UNL     1       2.115   6.028  20.088  0.00  0.00    +0.000 A 
ATOM      4  C   UNL     1       1.683   7.030  20.937  0.00  0.00    +0.000 A 
ATOM      5  C   UNL     1       1.461   8.304  20.457  0.00  0.00    +0.000 A 
ATOM      6  N   UNL     1       1.081   9.269  21.324  0.00  0.00    +0.000 NA
ATOM      7  C   UNL     1       0.834  10.527  20.911  0.00  0.00    +0.000 A 
ATOM      8  C   UNL     1       0.926  10.848  19.550  0.00  0.00    +0.000 A 
ATOM      9  N   UNL     1       1.337   9.875  18.666  0.00  0.00    +0.000 NA
ATOM     10  C   UNL     1       1.634   8.601  19.095  0.00  0.00    +0.000 A 
ATOM     11  C   UNL     1       2.112   7.585  18.221  0.00  0.00    +0.000 A 
BRANCH   8  12
ATOM     12  C   UNL     1       0.535  12.224  19.122  0.00  0.00    +0.000 A 
ATOM     13  C   UNL     1       1.254  13.401  19.229  0.00  0.00    +0.000 A 
ATOM     14  N   UNL     1       0.542  14.408  18.677  0.00  0.00    +0.000 NA
ATOM     15  N   UNL     1      -0.600  13.908  18.231  0.00  0.00    +0.000 N 
ATOM     16  C   UNL     1      -0.640  12.589  18.479  0.00  0.00    +0.000 A 
ATOM     17  H   UNL     1      -1.345  14.462  17.752  0.00  0.00    +0.000 HD
ENDBRANCH   8  12
ENDBRANCH   1   2
BRANCH   1  22
ATOM     18  C   UNL     1       6.627   6.065  17.444  0.00  0.00    +0.000 A 
ATOM     19  C   UNL     1       7.003   5.245  16.386  0.00  0.00    +0.000 A 
ATOM     20  C   UNL     1       6.067   4.410  15.770  0.00  0.00    +0.000 A 
ATOM     21  C   UNL     1       4.739   4.392  16.249  0.00  0.00    +0.000 A 
ATOM     22  C   UNL     1       4.317   5.176  17.372  0.00  0.00    +0.000 A 
ATOM     23  C   UNL     1       5.299   6.031  17.910  0.00  0.00    +0.000 A 
BRANCH  18  25
ATOM     24  C   UNL     1       7.790   8.183  17.633  0.00  0.00    +0.000 C 
ATOM     25  O   UNL     1       7.565   6.869  17.999  0.00  0.00    +0.000 OA
ENDBRANCH  18  25
BRANCH  20  26
ATOM     26  O   UNL     1       6.407   3.608  14.719  0.00  0.00    +0.000 OA
ATOM     27  C   UNL     1       6.530   4.012  13.398  0.00  0.00    +0.000 C 
ENDBRANCH  20  26
ENDBRANCH   1  22
BRANCH   1  28
ATOM     28  C   UNL     1       2.003   4.064  17.580  0.00  0.00    +0.000 C 
BRANCH  28  29
ATOM     29  C   UNL     1       2.444   2.626  17.908  0.00  0.00    +0.000 C 
BRANCH  29  30
ATOM     30  N   UNL     1       1.982   2.122  19.212  0.00  0.00    +0.000 NA
ATOM     31  H   UNL     1       2.163   1.089  19.244  0.00  0.00    +0.000 HD
BRANCH  30  32
ATOM     32  C   UNL     1       2.737   2.767  20.318  0.00  0.00    +0.000 C 
ATOM     33  C   UNL     1       2.165   2.399  21.705  0.00  0.00    +0.000 C 
ATOM     34  C   UNL     1       4.210   2.343  20.281  0.00  0.00    +0.000 C 
ENDBRANCH  30  32
ENDBRANCH  29  30
ENDBRANCH  28  29
ENDBRANCH   1  28
TORSDOF 9
ENDMDL
MODEL 3
REMARK VINA RESULT:      -7.9      0.953      2.408
REMARK  Name = 
REMARK  13 active torsions:
REMARK  status: ('A' for Active; 'I' for Inactive)
REMARK    1  A    between atoms: C_1  and  O_2
REMARK    2  A    between atoms: O_2  and  C_3
REMARK    3  A    between atoms: C_5  and  O_6
REMARK    4  A    between atoms: O_6  and  C_7
REMARK    5  A    between atoms: C_9  and  N_10
REMARK    6  A    between atoms: N_10  and  C_11
REMARK    7  A    between atoms: N_10  and  C_17
REMARK    8  A    between atoms: C_11  and  C_12
REMARK    9  A    between atoms: C_12  and  N_13
REMARK   10  A    between atoms: N_13  and  C_14
REMARK   11  A    between atoms: C_14  and  C_15
REMARK   12  A    between atoms: C_14  and  C_16
REMARK   13  A    between atoms: C_23  and  C_24
REMARK                            x       y       z     vdW  Elec       q    Type
REMARK                         _______ _______ _______ _____ _____    ______ ____
ROOT
ATOM      1  N   UNL     1       3.169   4.929  17.675  0.00  0.00    +0.000 N 
ENDROOT
BRANCH   1   2
ATOM      2  C   UNL     1       2.599   6.015  18.489  0.00  0.00    +0.000 A 
ATOM      3  C   UNL     1       2.312   5.759  19.856  0.00  0.00    +0.000 A 
ATOM      4  C   UNL     1       1.875   6.746  20.718  0.00  0.00    +0.000 A 
ATOM      5  C   UNL     1       1.666   8.031  20.260  0.00  0.00    +0.000 A 
ATOM      6  N   UNL     1       1.280   8.982  21.140  0.00  0.00    +0.000 NA
ATOM      7  C   UNL     1       1.046  10.248  20.748  0.00  0.00    +0.000 A 
ATOM      8  C   UNL     1       1.158  10.595  19.395  0.00  0.00    +0.000 A 
ATOM      9  N   UNL     1       1.575   9.637  18.497  0.00  0.00    +0.000 NA
ATOM     10  C   UNL     1       1.858   8.353  18.906  0.00  0.00    +0.000 A 
ATOM     11  C   UNL     1       2.343   7.351  18.018  0.00  0.00    +0.000 A 
BRANCH   8  12
ATOM     12  C   UNL     1       0.780  11.981  18.988  0.00  0.00    +0.000 A 
ATOM     13  C   UNL     1      -0.450  12.457  18.574  0.00  0.00    +0.000 A 
ATOM     14  N   UNL     1      -0.358  13.785  18.343  0.00  0.00    +0.000 NA
ATOM     15  N   UNL     1       0.886  14.162  18.593  0.00  0.00    +0.000 N 
ATOM     16  C   UNL     1       1.605  13.098  18.988  0.00  0.00    +0.000 A 
ATOM     17  H   UNL     1       1.242  15.139  18.502  0.00  0.00    +0.000 HD
ENDBRANCH   8  12
ENDBRANCH   1   2
BRANCH   1  22
ATOM     18  C   UNL     1       6.983   4.971  17.824  0.00  0.00    +0.000 A 
ATOM     19  C   UNL     1       7.335   4.812  16.488  0.00  0.00    +0.000 A 
ATOM     20  C   UNL     1       6.350   4.728  15.501  0.00  0.00    +0.000 A 
ATOM     21  C   UNL     1       4.991   4.786  15.878  0.00  0.00    +0.000 A 
ATOM     22  C   UNL     1       4.577   4.893  17.246  0.00  0.00    +0.000 A 
ATOM     23  C   UNL     1       5.622   5.024  18.180  0.00  0.00    +0.000 A 
BRANCH  18  25
ATOM     24  C   UNL     1       7.818   5.579  20.016  0.00  0.00    +0.000 C 
ATOM     25  O   UNL     1       7.973   5.063  18.743  0.00  0.00    +0.000 OA
ENDBRANCH  18  25
BRANCH  20  26
ATOM     26  O   UNL     1       6.670   4.587  14.182  0.00  0.00    +0.000 OA
ATOM     27  C   UNL     1       6.040   3.741  13.280  0.00  0.00    +0.000 C 
ENDBRANCH  20  26
ENDBRANCH   1  22
BRANCH   1  28
ATOM     28  C   UNL     1       2.197   3.907  17.206  0.00  0.00    +0.000 C 
BRANCH  28  29
ATOM     29  C   UNL     1       2.409   2.458  17.682  0.00  0.00    +0.000 C 
BRANCH  29  30
ATOM     30  N   UNL     1       1.434   1.989  18.680  0.00  0.00    +0.000 NA
ATOM     31  H   UNL     1       1.130   1.022  18.408  0.00  0.00    +0.000 HD
BRANCH  30  32
ATOM     32  C   UNL     1       2.057   1.923  20.028  0.00  0.00    +0.000 C 
ATOM     33  C   UNL     1       3.538   2.363  20.006  0.00  0.00    +0.000 C 
ATOM     34  C   UNL     1       1.304   2.826  21.012  0.00  0.00    +0.000 C 
ENDBRANCH  30  32
ENDBRANCH  29  30
ENDBRANCH  28  29
ENDBRANCH   1  28
TORSDOF 9
ENDMDL
MODEL 4
REMARK VINA RESULT:      -7.9      3.477      8.796
REMARK  Name = 
REMARK  13 active torsions:
REMARK  status: ('A' for Active; 'I' for Inactive)
REMARK    1  A    between atoms: C_1  and  O_2
REMARK    2  A    between atoms: O_2  and  C_3
REMARK    3  A    between atoms: C_5  and  O_6
REMARK    4  A    between atoms: O_6  and  C_7
REMARK    5  A    between atoms: C_9  and  N_10
REMARK    6  A    between atoms: N_10  and  C_11
REMARK    7  A    between atoms: N_10  and  C_17
REMARK    8  A    between atoms: C_11  and  C_12
REMARK    9  A    between atoms: C_12  and  N_13
REMARK   10  A    between atoms: N_13  and  C_14
REMARK   11  A    between atoms: C_14  and  C_15
REMARK   12  A    between atoms: C_14  and  C_16
REMARK   13  A    between atoms: C_23  and  C_24
REMARK                            x       y       z     vdW  Elec       q    Type
REMARK                         _______ _______ _______ _____ _____    ______ ____
ROOT
ATOM      1  N   UNL     1       0.275  10.742  18.712  0.00  0.00    +0.000 N 
ENDROOT
BRANCH   1   2
ATOM      2  C   UNL     1       1.121   9.558  18.935  0.00  0.00    +0.000 A 
ATOM      3  C   UNL     1       1.014   8.873  20.174  0.00  0.00    +0.000 A 
ATOM      4  C   UNL     1       1.691   7.695  20.429  0.00  0.00    +0.000 A 
ATOM      5  C   UNL     1       2.537   7.157  19.482  0.00  0.00    +0.000 A 
ATOM      6  N   UNL     1       3.149   5.981  19.747  0.00  0.00    +0.000 NA
ATOM      7  C   UNL     1       3.998   5.416  18.868  0.00  0.00    +0.000 A 
ATOM      8  C   UNL     1       4.296   6.068  17.664  0.00  0.00    +0.000 A 
ATOM      9  N   UNL     1       3.656   7.254  17.376  0.00  0.00    +0.000 NA
ATOM     10  C   UNL     1       2.755   7.809  18.256  0.00  0.00    +0.000 A 
ATOM     11  C   UNL     1       2.034   9.003  17.971  0.00  0.00    +0.000 A 
BRANCH   8  12
ATOM     12  C   UNL     1       5.326   5.462  16.769  0.00  0.00    +0.000 A 
ATOM     13  C   UNL     1       5.189   4.415  15.876  0.00  0.00    +0.000 A 
ATOM     14  N   UNL     1       6.364   4.217  15.240  0.00  0.00    +0.000 NA
ATOM     15  N   UNL     1       7.237   5.097  15.703  0.00  0.00    +0.000 N 
ATOM     16  C   UNL     1       6.645   5.870  16.628  0.00  0.00    +0.000 A 
ATOM     17  H   UNL     1       8.228   5.177  15.384  0.00  0.00    +0.000 HD
ENDBRANCH   8  12
ENDBRANCH   1   2
BRANCH   1  22
ATOM     18  C   UNL     1       0.399  14.554  18.832  0.00  0.00    +0.000 A 
ATOM     19  C   UNL     1       1.750  14.815  18.636  0.00  0.00    +0.000 A 
ATOM     20  C   UNL     1       2.649  13.768  18.420  0.00  0.00    +0.000 A 
ATOM     21  C   UNL     1       2.173  12.439  18.423  0.00  0.00    +0.000 A 
ATOM     22  C   UNL     1       0.799  12.117  18.675  0.00  0.00    +0.000 A 
ATOM     23  C   UNL     1      -0.058  13.223  18.834  0.00  0.00    +0.000 A 
BRANCH  18  25
ATOM     24  C   UNL     1      -0.119  16.921  18.750  0.00  0.00    +0.000 C 
ATOM     25  O   UNL     1      -0.437  15.603  19.022  0.00  0.00    +0.000 OA
ENDBRANCH  18  25
BRANCH  20  26
ATOM     26  O   UNL     1       3.978  13.999  18.210  0.00  0.00    +0.000 OA
ATOM     27  C   UNL     1       4.544  15.216  17.860  0.00  0.00    +0.000 C 
ENDBRANCH  20  26
ENDBRANCH   1  22
BRANCH   1  28
ATOM     28  C   UNL     1      -1.185  10.475  18.636  0.00  0.00    +0.000 C 
BRANCH  28  29
ATOM     29  C   UNL     1      -1.781  10.190  17.245  0.00  0.00    +0.000 C 
BRANCH  29  30
ATOM     30  N   UNL     1      -2.015  11.385  16.418  0.00  0.00    +0.000 NA
ATOM     31  H   UNL     1      -1.224  11.466  15.733  0.00  0.00    +0.000 HD
BRANCH  30  32
ATOM     32  C   UNL     1      -3.285  11.253  15.657  0.00  0.00    +0.000 C 
ATOM     33  C   UNL     1      -3.271  10.033  14.709  0.00  0.00    +0.000 C 
ATOM     34  C   UNL     1      -4.472  11.099  16.615  0.00  0.00    +0.000 C 
ENDBRANCH  30  32
ENDBRANCH  29  30
ENDBRANCH  28  29
ENDBRANCH   1  28
TORSDOF 9
ENDMDL
MODEL 5
REMARK VINA RESULT:      -7.9      3.340      8.676
REMARK  Name = 
REMARK  13 active torsions:
REMARK  status: ('A' for Active; 'I' for Inactive)
REMARK    1  A    between atoms: C_1  and  O_2
REMARK    2  A    between atoms: O_2  and  C_3
REMARK    3  A    between atoms: C_5  and  O_6
REMARK    4  A    between atoms: O_6  and  C_7
REMARK    5  A    between atoms: C_9  and  N_10
REMARK    6  A    between atoms: N_10  and  C_11
REMARK    7  A    between atoms: N_10  and  C_17
REMARK    8  A    between atoms: C_11  and  C_12
REMARK    9  A    between atoms: C_12  and  N_13
REMARK   10  A    between atoms: N_13  and  C_14
REMARK   11  A    between atoms: C_14  and  C_15
REMARK   12  A    between atoms: C_14  and  C_16
REMARK   13  A    between atoms: C_23  and  C_24
REMARK                            x       y       z     vdW  Elec       q    Type
REMARK                         _______ _______ _______ _____ _____    ______ ____
ROOT
ATOM      1  N   UNL     1       0.981   8.957  20.699  0.00  0.00    +0.000 N 
ENDROOT
BRANCH   1   2
ATOM      2  C   UNL     1       1.668   7.759  20.190  0.00  0.00    +0.000 A 
ATOM      3  C   UNL     1       1.390   6.507  20.801  0.00  0.00    +0.000 A 
ATOM      4  C   UNL     1       1.907   5.319  20.322  0.00  0.00    +0.000 A 
ATOM      5  C   UNL     1       2.756   5.315  19.234  0.00  0.00    +0.000 A 
ATOM      6  N   UNL     1       3.208   4.131  18.765  0.00  0.00    +0.000 NA
ATOM      7  C   UNL     1       4.052   4.065  17.718  0.00  0.00    +0.000 A 
ATOM      8  C   UNL     1       4.513   5.243  17.115  0.00  0.00    +0.000 A 
ATOM      9  N   UNL     1       4.036   6.452  17.573  0.00  0.00    +0.000 NA
ATOM     10  C   UNL     1       3.139   6.516  18.615  0.00  0.00    +0.000 A 
ATOM     11  C   UNL     1       2.583   7.742  19.079  0.00  0.00    +0.000 A 
BRANCH   8  12
ATOM     12  C   UNL     1       5.533   5.129  16.031  0.00  0.00    +0.000 A 
ATOM     13  C   UNL     1       6.859   5.519  16.045  0.00  0.00    +0.000 A 
ATOM     14  N   UNL     1       7.431   5.191  14.866  0.00  0.00    +0.000 NA
ATOM     15  N   UNL     1       6.513   4.612  14.109  0.00  0.00    +0.000 N 
ATOM     16  C   UNL     1       5.351   4.554  14.780  0.00  0.00    +0.000 A 
ATOM     17  H   UNL     1       6.678   4.252  13.143  0.00  0.00    +0.000 HD
ENDBRANCH   8  12
ENDBRANCH   1   2
BRANCH   1  22
ATOM     18  C   UNL     1       0.741  12.308  18.888  0.00  0.00    +0.000 A 
ATOM     19  C   UNL     1      -0.423  12.162  18.142  0.00  0.00    +0.000 A 
ATOM     20  C   UNL     1      -1.182  10.992  18.237  0.00  0.00    +0.000 A 
ATOM     21  C   UNL     1      -0.742   9.952  19.083  0.00  0.00    +0.000 A 
ATOM     22  C   UNL     1       0.480  10.033  19.829  0.00  0.00    +0.000 A 
ATOM     23  C   UNL     1       1.166  11.259  19.725  0.00  0.00    +0.000 A 
BRANCH  18  25
ATOM     24  C   UNL     1       2.659  13.710  19.371  0.00  0.00    +0.000 C 
ATOM     25  O   UNL     1       1.435  13.466  18.775  0.00  0.00    +0.000 OA
ENDBRANCH  18  25
BRANCH  20  26
ATOM     26  O   UNL     1      -2.336  10.830  17.527  0.00  0.00    +0.000 OA
ATOM     27  C   UNL     1      -3.186   9.736  17.601  0.00  0.00    +0.000 C 
ENDBRANCH  20  26
ENDBRANCH   1  22
BRANCH   1  28
ATOM     28  C   UNL     1       0.921   9.076  22.179  0.00  0.00    +0.000 C 
BRANCH  28  29
ATOM     29  C   UNL     1      -0.422   9.501  22.801  0.00  0.00    +0.000 C 
BRANCH  29  30
ATOM     30  N   UNL     1      -0.444  10.869  23.345  0.00  0.00    +0.000 NA
ATOM     31  H   UNL     1       0.525  11.264  23.270  0.00  0.00    +0.000 HD
BRANCH  30  32
ATOM     32  C   UNL     1      -1.364  11.729  22.557  0.00  0.00    +0.000 C 
ATOM     33  C   UNL     1      -2.695  11.990  23.297  0.00  0.00    +0.000 C 
ATOM     34  C   UNL     1      -0.710  13.084  22.259  0.00  0.00    +0.000 C 
ENDBRANCH  30  32
ENDBRANCH  29  30
ENDBRANCH  28  29
ENDBRANCH   1  28
TORSDOF 9
ENDMDL
MODEL 6
REMARK VINA RESULT:      -7.7      0.728      1.090
REMARK  Name = 
REMARK  13 active torsions:
REMARK  status: ('A' for Active; 'I' for Inactive)
REMARK    1  A    between atoms: C_1  and  O_2
REMARK    2  A    between atoms: O_2  and  C_3
REMARK    3  A    between atoms: C_5  and  O_6
REMARK    4  A    between atoms: O_6  and  C_7
REMARK    5  A    between atoms: C_9  and  N_10
REMARK    6  A    between atoms: N_10  and  C_11
REMARK    7  A    between atoms: N_10  and  C_17
REMARK    8  A    between atoms: C_11  and  C_12
REMARK    9  A    between atoms: C_12  and  N_13
REMARK   10  A    between atoms: N_13  and  C_14
REMARK   11  A    between atoms: C_14  and  C_15
REMARK   12  A    between atoms: C_14  and  C_16
REMARK   13  A    between atoms: C_23  and  C_24
REMARK                            x       y       z     vdW  Elec       q    Type
REMARK                         _______ _______ _______ _____ _____    ______ ____
ROOT
ATOM      1  N   UNL     1       3.010   5.199  17.712  0.00  0.00    +0.000 N 
ENDROOT
BRANCH   1   2
ATOM      2  C   UNL     1       2.443   6.275  18.542  0.00  0.00    +0.000 A 
ATOM      3  C   UNL     1       2.128   5.991  19.897  0.00  0.00    +0.000 A 
ATOM      4  C   UNL     1       1.692   6.965  20.775  0.00  0.00    +0.000 A 
ATOM      5  C   UNL     1       1.512   8.263  20.344  0.00  0.00    +0.000 A 
ATOM      6  N   UNL     1       1.126   9.199  21.240  0.00  0.00    +0.000 NA
ATOM      7  C   UNL     1       0.918  10.478  20.874  0.00  0.00    +0.000 A 
ATOM      8  C   UNL     1       1.060  10.856  19.532  0.00  0.00    +0.000 A 
ATOM      9  N   UNL     1       1.477   9.912  18.619  0.00  0.00    +0.000 NA
ATOM     10  C   UNL     1       1.733   8.615  19.002  0.00  0.00    +0.000 A 
ATOM     11  C   UNL     1       2.217   7.626  18.099  0.00  0.00    +0.000 A 
BRANCH   8  12
ATOM     12  C   UNL     1       0.712  12.257  19.153  0.00  0.00    +0.000 A 
ATOM     13  C   UNL     1      -0.512  12.895  19.224  0.00  0.00    +0.000 A 
ATOM     14  N   UNL     1      -0.371  14.175  18.818  0.00  0.00    +0.000 NA
ATOM     15  N   UNL     1       0.897  14.366  18.490  0.00  0.00    +0.000 N 
ATOM     16  C   UNL     1       1.585  13.228  18.680  0.00  0.00    +0.000 A 
ATOM     17  H   UNL     1       1.293  15.268  18.144  0.00  0.00    +0.000 HD
ENDBRANCH   8  12
ENDBRANCH   1   2
BRANCH   1  22
ATOM     18  C   UNL     1       5.967   4.402  15.434  0.00  0.00    +0.000 A 
ATOM     19  C   UNL     1       6.881   5.393  15.774  0.00  0.00    +0.000 A 
ATOM     20  C   UNL     1       6.581   6.320  16.776  0.00  0.00    +0.000 A 
ATOM     21  C   UNL     1       5.330   6.250  17.426  0.00  0.00    +0.000 A 
ATOM     22  C   UNL     1       4.334   5.282  17.073  0.00  0.00    +0.000 A 
ATOM     23  C   UNL     1       4.724   4.350  16.092  0.00  0.00    +0.000 A 
BRANCH  18  25
ATOM     24  C   UNL     1       6.308   3.794  13.113  0.00  0.00    +0.000 C 
ATOM     25  O   UNL     1       6.309   3.517  14.468  0.00  0.00    +0.000 OA
ENDBRANCH  18  25
BRANCH  20  26
ATOM     26  O   UNL     1       7.468   7.293  17.138  0.00  0.00    +0.000 OA
ATOM     27  C   UNL     1       8.077   7.413  18.379  0.00  0.00    +0.000 C 
ENDBRANCH  20  26
ENDBRANCH   1  22
BRANCH   1  28
ATOM     28  C   UNL     1       2.106   4.047  17.458  0.00  0.00    +0.000 C 
BRANCH  28  29
ATOM     29  C   UNL     1       2.572   2.662  17.940  0.00  0.00    +0.000 C 
BRANCH  29  30
ATOM     30  N   UNL     1       2.095   2.283  19.280  0.00  0.00    +0.000 NA
ATOM     31  H   UNL     1       2.111   1.236  19.346  0.00  0.00    +0.000 HD
BRANCH  30  32
ATOM     32  C   UNL     1       2.991   2.834  20.329  0.00  0.00    +0.000 C 
ATOM     33  C   UNL     1       2.439   2.595  21.751  0.00  0.00    +0.000 C 
ATOM     34  C   UNL     1       4.381   2.191  20.241  0.00  0.00    +0.000 C 
ENDBRANCH  30  32
ENDBRANCH  29  30
ENDBRANCH  28  29
ENDBRANCH   1  28
TORSDOF 9
ENDMDL
MODEL 7
REMARK VINA RESULT:      -7.7      3.921      9.351
REMARK  Name = 
REMARK  13 active torsions:
REMARK  status: ('A' for Active; 'I' for Inactive)
REMARK    1  A    between atoms: C_1  and  O_2
REMARK    2  A    between atoms: O_2  and  C_3
REMARK    3  A    between atoms: C_5  and  O_6
REMARK    4  A    between atoms: O_6  and  C_7
REMARK    5  A    between atoms: C_9  and  N_10
REMARK    6  A    between atoms: N_10  and  C_11
REMARK    7  A    between atoms: N_10  and  C_17
REMARK    8  A    between atoms: C_11  and  C_12
REMARK    9  A    between atoms: C_12  and  N_13
REMARK   10  A    between atoms: N_13  and  C_14
REMARK   11  A    between atoms: C_14  and  C_15
REMARK   12  A    between atoms: C_14  and  C_16
REMARK   13  A    between atoms: C_23  and  C_24
REMARK                            x       y       z     vdW  Elec       q    Type
REMARK                         _______ _______ _______ _____ _____    ______ ____
ROOT
ATOM      1  N   UNL     1       0.442  10.890  19.252  0.00  0.00    +0.000 N 
ENDROOT
BRANCH   1   2
ATOM      2  C   UNL     1       1.143   9.601  19.376  0.00  0.00    +0.000 A 
ATOM      3  C   UNL     1       1.005   8.868  20.583  0.00  0.00    +0.000 A 
ATOM      4  C   UNL     1       1.541   7.604  20.748  0.00  0.00    +0.000 A 
ATOM      5  C   UNL     1       2.271   7.019  19.734  0.00  0.00    +0.000 A 
ATOM      6  N   UNL     1       2.743   5.765  19.912  0.00  0.00    +0.000 NA
ATOM      7  C   UNL     1       3.476   5.149  18.966  0.00  0.00    +0.000 A 
ATOM      8  C   UNL     1       3.801   5.824  17.781  0.00  0.00    +0.000 A 
ATOM      9  N   UNL     1       3.302   7.092  17.583  0.00  0.00    +0.000 NA
ATOM     10  C   UNL     1       2.515   7.704  18.533  0.00  0.00    +0.000 A 
ATOM     11  C   UNL     1       1.937   8.992  18.341  0.00  0.00    +0.000 A 
BRANCH   8  12
ATOM     12  C   UNL     1       4.708   5.145  16.809  0.00  0.00    +0.000 A 
ATOM     13  C   UNL     1       5.411   5.694  15.752  0.00  0.00    +0.000 A 
ATOM     14  N   UNL     1       6.143   4.728  15.156  0.00  0.00    +0.000 NA
ATOM     15  N   UNL     1       5.923   3.590  15.796  0.00  0.00    +0.000 N 
ATOM     16  C   UNL     1       5.062   3.802  16.804  0.00  0.00    +0.000 A 
ATOM     17  H   UNL     1       6.363   2.675  15.552  0.00  0.00    +0.000 HD
ENDBRANCH   8  12
ENDBRANCH   1   2
BRANCH   1  22
ATOM     18  C   UNL     1      -2.764  10.415  17.236  0.00  0.00    +0.000 A 
ATOM     19  C   UNL     1      -3.681  11.178  17.950  0.00  0.00    +0.000 A 
ATOM     20  C   UNL     1      -3.277  11.899  19.077  0.00  0.00    +0.000 A 
ATOM     21  C   UNL     1      -1.931  11.826  19.495  0.00  0.00    +0.000 A 
ATOM     22  C   UNL     1      -0.962  11.009  18.826  0.00  0.00    +0.000 A 
ATOM     23  C   UNL     1      -1.426  10.352  17.670  0.00  0.00    +0.000 A 
BRANCH  18  25
ATOM     24  C   UNL     1      -2.942  10.124  14.836  0.00  0.00    +0.000 C 
ATOM     25  O   UNL     1      -3.199   9.746  16.141  0.00  0.00    +0.000 OA
ENDBRANCH  18  25
BRANCH  20  26
ATOM     26  O   UNL     1      -4.155  12.668  19.785  0.00  0.00    +0.000 OA
ATOM     27  C   UNL     1      -5.535  12.659  19.647  0.00  0.00    +0.000 C 
ENDBRANCH  20  26
ENDBRANCH   1  22
BRANCH   1  28
ATOM     28  C   UNL     1       1.281  12.096  19.476  0.00  0.00    +0.000 C 
BRANCH  28  29
ATOM     29  C   UNL     1       1.516  13.028  18.273  0.00  0.00    +0.000 C 
BRANCH  29  30
ATOM     30  N   UNL     1       2.924  13.169  17.868  0.00  0.00    +0.000 NA
ATOM     31  H   UNL     1       2.947  13.366  16.838  0.00  0.00    +0.000 HD
BRANCH  30  32
ATOM     32  C   UNL     1       3.561  14.307  18.579  0.00  0.00    +0.000 C 
ATOM     33  C   UNL     1       4.927  14.686  17.965  0.00  0.00    +0.000 C 
ATOM     34  C   UNL     1       2.656  15.544  18.532  0.00  0.00    +0.000 C 
ENDBRANCH  30  32
ENDBRANCH  29  30
ENDBRANCH  28  29
ENDBRANCH   1  28
TORSDOF 9
ENDMDL
MODEL 8
REMARK VINA RESULT:      -7.7      2.109      3.503
REMARK  Name = 
REMARK  13 active torsions:
REMARK  status: ('A' for Active; 'I' for Inactive)
REMARK    1  A    between atoms: C_1  and  O_2
REMARK    2  A    between atoms: O_2  and  C_3
REMARK    3  A    between atoms: C_5  and  O_6
REMARK    4  A    between atoms: O_6  and  C_7
REMARK    5  A    between atoms: C_9  and  N_10
REMARK    6  A    between atoms: N_10  and  C_11
REMARK    7  A    between atoms: N_10  and  C_17
REMARK    8  A    between atoms: C_11  and  C_12
REMARK    9  A    between atoms: C_12  and  N_13
REMARK   10  A    between atoms: N_13  and  C_14
REMARK   11  A    between atoms: C_14  and  C_15
REMARK   12  A    between atoms: C_14  and  C_16
REMARK   13  A    between atoms: C_23  and  C_24
REMARK                            x       y       z     vdW  Elec       q    Type
REMARK                         _______ _______ _______ _____ _____    ______ ____
ROOT
ATOM      1  N   UNL     1       2.605   6.076  19.456  0.00  0.00    +0.000 N 
ENDROOT
BRANCH   1   2
ATOM      2  C   UNL     1       2.128   7.465  19.362  0.00  0.00    +0.000 A 
ATOM      3  C   UNL     1       2.286   8.154  18.131  0.00  0.00    +0.000 A 
ATOM      4  C   UNL     1       1.774   9.421  17.921  0.00  0.00    +0.000 A 
ATOM      5  C   UNL     1       1.111  10.083  18.934  0.00  0.00    +0.000 A 
ATOM      6  N   UNL     1       0.586  11.302  18.681  0.00  0.00    +0.000 NA
ATOM      7  C   UNL     1      -0.057  12.002  19.634  0.00  0.00    +0.000 A 
ATOM      8  C   UNL     1      -0.156  11.488  20.935  0.00  0.00    +0.000 A 
ATOM      9  N   UNL     1       0.356  10.235  21.192  0.00  0.00    +0.000 NA
ATOM     10  C   UNL     1       0.973   9.501  20.205  0.00  0.00    +0.000 A 
ATOM     11  C   UNL     1       1.465   8.182  20.420  0.00  0.00    +0.000 A 
BRANCH   8  12
ATOM     12  C   UNL     1      -0.778  12.346  21.986  0.00  0.00    +0.000 A 
ATOM     13  C   UNL     1      -1.841  12.057  22.822  0.00  0.00    +0.000 A 
ATOM     14  N   UNL     1      -2.050  13.101  23.653  0.00  0.00    +0.000 NA
ATOM     15  N   UNL     1      -1.160  14.038  23.369  0.00  0.00    +0.000 N 
ATOM     16  C   UNL     1      -0.370  13.617  22.367  0.00  0.00    +0.000 A 
ATOM     17  H   UNL     1      -1.085  14.957  23.860  0.00  0.00    +0.000 HD
ENDBRANCH   8  12
ENDBRANCH   1   2
BRANCH   1  22
ATOM     18  C   UNL     1       6.213   5.062  18.733  0.00  0.00    +0.000 A 
ATOM     19  C   UNL     1       6.138   4.606  17.422  0.00  0.00    +0.000 A 
ATOM     20  C   UNL     1       4.928   4.651  16.725  0.00  0.00    +0.000 A 
ATOM     21  C   UNL     1       3.777   5.148  17.374  0.00  0.00    +0.000 A 
ATOM     22  C   UNL     1       3.792   5.578  18.741  0.00  0.00    +0.000 A 
ATOM     23  C   UNL     1       5.054   5.552  19.365  0.00  0.00    +0.000 A 
BRANCH  18  25
ATOM     24  C   UNL     1       8.316   6.057  19.415  0.00  0.00    +0.000 C 
ATOM     25  O   UNL     1       7.411   5.012  19.363  0.00  0.00    +0.000 OA
ENDBRANCH  18  25
BRANCH  20  26
ATOM     26  O   UNL     1       4.832   4.223  15.432  0.00  0.00    +0.000 OA
ATOM     27  C   UNL     1       5.835   4.298  14.477  0.00  0.00    +0.000 C 
ENDBRANCH  20  26
ENDBRANCH   1  22
BRANCH   1  28
ATOM     28  C   UNL     1       1.739   5.156  20.239  0.00  0.00    +0.000 C 
BRANCH  28  29
ATOM     29  C   UNL     1       2.348   3.811  20.676  0.00  0.00    +0.000 C 
BRANCH  29  30
ATOM     30  N   UNL     1       1.645   2.622  20.167  0.00  0.00    +0.000 NA
ATOM     31  H   UNL     1       0.814   2.947  19.615  0.00  0.00    +0.000 HD
BRANCH  30  32
ATOM     32  C   UNL     1       2.531   1.839  19.267  0.00  0.00    +0.000 C 
ATOM     33  C   UNL     1       2.309   2.193  17.780  0.00  0.00    +0.000 C 
ATOM     34  C   UNL     1       4.004   2.097  19.605  0.00  0.00    +0.000 C 
ENDBRANCH  30  32
ENDBRANCH  29  30
ENDBRANCH  28  29
ENDBRANCH   1  28
TORSDOF 9
ENDMDL
MODEL 9
REMARK VINA RESULT:      -7.7      0.932      2.495
REMARK  Name = 
REMARK  13 active torsions:
REMARK  status: ('A' for Active; 'I' for Inactive)
REMARK    1  A    between atoms: C_1  and  O_2
REMARK    2  A    between atoms: O_2  and  C_3
REMARK    3  A    between atoms: C_5  and  O_6
REMARK    4  A    between atoms: O_6  and  C_7
REMARK    5  A    between atoms: C_9  and  N_10
REMARK    6  A    between atoms: N_10  and  C_11
REMARK    7  A    between atoms: N_10  and  C_17
REMARK    8  A    between atoms: C_11  and  C_12
REMARK    9  A    between atoms: C_12  and  N_13
REMARK   10  A    between atoms: N_13  and  C_14
REMARK   11  A    between atoms: C_14  and  C_15
REMARK   12  A    between atoms: C_14  and  C_16
REMARK   13  A    between atoms: C_23  and  C_24
REMARK                            x       y       z     vdW  Elec       q    Type
REMARK                         _______ _______ _______ _____ _____    ______ ____
ROOT
ATOM      1  N   UNL     1       3.483   4.637  17.417  0.00  0.00    +0.000 N 
ENDROOT
BRANCH   1   2
ATOM      2  C   UNL     1       2.882   5.698  18.242  0.00  0.00    +0.000 A 
ATOM      3  C   UNL     1       2.874   5.537  19.652  0.00  0.00    +0.000 A 
ATOM      4  C   UNL     1       2.427   6.526  20.508  0.00  0.00    +0.000 A 
ATOM      5  C   UNL     1       1.930   7.711  20.005  0.00  0.00    +0.000 A 
ATOM      6  N   UNL     1       1.542   8.674  20.871  0.00  0.00    +0.000 NA
ATOM      7  C   UNL     1       1.034   9.844  20.439  0.00  0.00    +0.000 A 
ATOM      8  C   UNL     1       0.859  10.068  19.067  0.00  0.00    +0.000 A 
ATOM      9  N   UNL     1       1.276   9.101  18.179  0.00  0.00    +0.000 NA
ATOM     10  C   UNL     1       1.837   7.924  18.619  0.00  0.00    +0.000 A 
ATOM     11  C   UNL     1       2.328   6.925  17.732  0.00  0.00    +0.000 A 
BRANCH   8  12
ATOM     12  C   UNL     1       0.190  11.332  18.639  0.00  0.00    +0.000 A 
ATOM     13  C   UNL     1       0.655  12.631  18.728  0.00  0.00    +0.000 A 
ATOM     14  N   UNL     1      -0.254  13.468  18.183  0.00  0.00    +0.000 NA
ATOM     15  N   UNL     1      -1.277  12.744  17.758  0.00  0.00    +0.000 N 
ATOM     16  C   UNL     1      -1.044  11.446  18.013  0.00  0.00    +0.000 A 
ATOM     17  H   UNL     1      -2.126  13.130  17.288  0.00  0.00    +0.000 HD
ENDBRANCH   8  12
ENDBRANCH   1   2
BRANCH   1  22
ATOM     18  C   UNL     1       6.879   5.999  16.332  0.00  0.00    +0.000 A 
ATOM     19  C   UNL     1       7.184   5.202  15.234  0.00  0.00    +0.000 A 
ATOM     20  C   UNL     1       6.281   4.232  14.792  0.00  0.00    +0.000 A 
ATOM     21  C   UNL     1       5.064   4.056  15.485  0.00  0.00    +0.000 A 
ATOM     22  C   UNL     1       4.730   4.814  16.655  0.00  0.00    +0.000 A 
ATOM     23  C   UNL     1       5.663   5.807  17.013  0.00  0.00    +0.000 A 
BRANCH  18  25
ATOM     24  C   UNL     1       7.526   7.941  17.630  0.00  0.00    +0.000 C 
ATOM     25  O   UNL     1       7.779   6.937  16.714  0.00  0.00    +0.000 OA
ENDBRANCH  18  25
BRANCH  20  26
ATOM     26  O   UNL     1       6.549   3.447  13.707  0.00  0.00    +0.000 OA
ATOM     27  C   UNL     1       6.403   3.822  12.379  0.00  0.00    +0.000 C 
ENDBRANCH  20  26
ENDBRANCH   1  22
BRANCH   1  28
ATOM     28  C   UNL     1       2.685   3.389  17.304  0.00  0.00    +0.000 C 
BRANCH  28  29
ATOM     29  C   UNL     1       3.173   2.162  18.096  0.00  0.00    +0.000 C 
BRANCH  29  30
ATOM     30  N   UNL     1       2.215   1.646  19.086  0.00  0.00    +0.000 NA
ATOM     31  H   UNL     1       2.678   0.865  19.612  0.00  0.00    +0.000 HD
BRANCH  30  32
ATOM     32  C   UNL     1       1.844   2.710  20.056  0.00  0.00    +0.000 C 
ATOM     33  C   UNL     1       0.336   3.042  20.007  0.00  0.00    +0.000 C 
ATOM     34  C   UNL     1       2.192   2.277  21.486  0.00  0.00    +0.000 C 
ENDBRANCH  30  32
ENDBRANCH  29  30
ENDBRANCH  28  29
ENDBRANCH   1  28
TORSDOF 9
ENDMDL
