MODEL 1
REMARK VINA RESULT:      -7.4      0.000      0.000
REMARK  Name = 
REMARK  10 active torsions:
REMARK  status: ('A' for Active; 'I' for Inactive)
REMARK    1  A    between atoms: C_1  and  C_2
REMARK    2  A    between atoms: C_2  and  N_3
REMARK    3  A    between atoms: N_3  and  C_4
REMARK    4  A    between atoms: N_3  and  C_6
REMARK    5  A    between atoms: C_4  and  C_5
REMARK    6  A    between atoms: C_6  and  C_7
REMARK    7  A    between atoms: C_11  and  C_13
REMARK    8  A    between atoms: C_13  and  N_14
REMARK    9  A    between atoms: C_13  and  C_26
REMARK   10  A    between atoms: C_15  and  C_17
REMARK                            x       y       z     vdW  Elec       q    Type
REMARK                         _______ _______ _______ _____ _____    ______ ____
ROOT
ATOM      1  C   UNL     1       0.345   9.965  19.737  0.00  0.00    +0.000 C 
ENDROOT
BRANCH   1   6
ATOM      2  C   UNL     1       2.813  14.562  18.638  0.00  0.00    +0.000 C 
ATOM      3  C   UNL     1       2.215  14.647  20.054  0.00  0.00    +0.000 C 
ATOM      4  C   UNL     1       2.119  13.298  20.775  0.00  0.00    +0.000 C 
ATOM      5  N   UNL     1       1.568  12.231  19.943  0.00  0.00    +0.000 N 
ATOM      6  C   UNL     1       1.041  11.096  20.578  0.00  0.00    +0.000 C 
ATOM      7  O   UNL     1       1.102  10.985  21.811  0.00  0.00    +0.000 OA
ATOM      8  C   UNL     1       1.986  12.189  18.548  0.00  0.00    +0.000 C 
ATOM      9  C   UNL     1       1.999  13.538  17.858  0.00  0.00    +0.000 C 
BRANCH   2  10
ATOM     10  C   UNL     1       4.336  14.264  18.661  0.00  0.00    +0.000 C 
BRANCH  10  11
ATOM     11  N   UNL     1       5.260  15.345  18.214  0.00  0.00    +0.000 NA
BRANCH  11  13
ATOM     12  C   UNL     1       5.647  17.416  19.655  0.00  0.00    +0.000 C 
ATOM     13  C   UNL     1       4.767  16.674  18.648  0.00  0.00    +0.000 C 
ENDBRANCH  11  13
BRANCH  11  14
ATOM     14  C   UNL     1       6.616  15.102  18.763  0.00  0.00    +0.000 C 
ATOM     15  C   UNL     1       7.643  14.535  17.785  0.00  0.00    +0.000 C 
ENDBRANCH  11  14
ENDBRANCH  10  11
ENDBRANCH   2  10
ENDBRANCH   1   6
BRANCH   1  16
ATOM     16  C   UNL     1      -0.779  10.423  18.798  0.00  0.00    +0.000 A 
ATOM     17  C   UNL     1      -1.686  11.401  19.236  0.00  0.00    +0.000 A 
ATOM     18  C   UNL     1      -2.842  11.682  18.502  0.00  0.00    +0.000 A 
ATOM     19  C   UNL     1      -3.102  10.999  17.316  0.00  0.00    +0.000 A 
ATOM     20  C   UNL     1      -2.168  10.103  16.819  0.00  0.00    +0.000 A 
ATOM     21  C   UNL     1      -0.995   9.850  17.538  0.00  0.00    +0.000 A 
ENDBRANCH   1  16
BRANCH   1  22
ATOM     22  N   UNL     1       1.279   8.955  19.172  0.00  0.00    +0.000 N 
ATOM     23  C   UNL     1       1.762   7.822  19.800  0.00  0.00    +0.000 C 
ATOM     24  O   UNL     1       1.445   7.455  20.927  0.00  0.00    +0.000 OA
ATOM     25  H   UNL     1       1.467   9.063  18.186  0.00  0.00    +0.000 HD
BRANCH  23  26
ATOM     26  C   UNL     1       2.779   6.992  19.094  0.00  0.00    +0.000 A 
ATOM     27  C   UNL     1       2.992   5.650  19.415  0.00  0.00    +0.000 A 
ATOM     28  C   UNL     1       3.795   4.835  18.596  0.00  0.00    +0.000 A 
ATOM     29  C   UNL     1       4.377   5.378  17.435  0.00  0.00    +0.000 A 
ATOM     30  C   UNL     1       5.142   4.835  16.366  0.00  0.00    +0.000 A 
ATOM     31  C   UNL     1       5.433   5.859  15.493  0.00  0.00    +0.000 A 
ATOM     32  N   UNL     1       4.878   7.008  15.996  0.00  0.00    +0.000 N 
ATOM     33  C   UNL     1       4.198   6.734  17.160  0.00  0.00    +0.000 A 
ATOM     34  C   UNL     1       3.411   7.564  17.970  0.00  0.00    +0.000 A 
ATOM     35  H   UNL     1       4.929   7.918  15.558  0.00  0.00    +0.000 HD
ENDBRANCH  23  26
ENDBRANCH   1  22
TORSDOF 8
ENDMDL
MODEL 2
REMARK VINA RESULT:      -7.3      0.364      1.247
REMARK  Name = 
REMARK  10 active torsions:
REMARK  status: ('A' for Active; 'I' for Inactive)
REMARK    1  A    between atoms: C_1  and  C_2
REMARK    2  A    between atoms: C_2  and  N_3
REMARK    3  A    between atoms: N_3  and  C_4
REMARK    4  A    between atoms: N_3  and  C_6
REMARK    5  A    between atoms: C_4  and  C_5
REMARK    6  A    between atoms: C_6  and  C_7
REMARK    7  A    between atoms: C_11  and  C_13
REMARK    8  A    between atoms: C_13  and  N_14
REMARK    9  A    between atoms: C_13  and  C_26
REMARK   10  A    between atoms: C_15  and  C_17
REMARK                            x       y       z     vdW  Elec       q    Type
REMARK                         _______ _______ _______ _____ _____    ______ ____
ROOT
ATOM      1  C   UNL     1       0.317  10.020  19.781  0.00  0.00    +0.000 C 
ENDROOT
BRANCH   1   6
ATOM      2  C   UNL     1       2.722  14.637  18.631  0.00  0.00    +0.000 C 
ATOM      3  C   UNL     1       2.152  14.718  20.059  0.00  0.00    +0.000 C 
ATOM      4  C   UNL     1       2.082  13.369  20.782  0.00  0.00    +0.000 C 
ATOM      5  N   UNL     1       1.523  12.296  19.962  0.00  0.00    +0.000 N 
ATOM      6  C   UNL     1       1.019  11.157  20.608  0.00  0.00    +0.000 C 
ATOM      7  O   UNL     1       1.105  11.048  21.839  0.00  0.00    +0.000 OA
ATOM      8  C   UNL     1       1.914  12.257  18.559  0.00  0.00    +0.000 C 
ATOM      9  C   UNL     1       1.902  13.605  17.868  0.00  0.00    +0.000 C 
BRANCH   2  10
ATOM     10  C   UNL     1       4.247  14.352  18.624  0.00  0.00    +0.000 C 
BRANCH  10  11
ATOM     11  N   UNL     1       5.124  15.255  19.423  0.00  0.00    +0.000 NA
BRANCH  11  13
ATOM     12  C   UNL     1       6.954  14.787  17.705  0.00  0.00    +0.000 C 
ATOM     13  C   UNL     1       6.555  14.959  19.173  0.00  0.00    +0.000 C 
ENDBRANCH  11  13
BRANCH  11  14
ATOM     14  C   UNL     1       4.830  16.668  19.081  0.00  0.00    +0.000 C 
ATOM     15  C   UNL     1       4.607  17.610  20.262  0.00  0.00    +0.000 C 
ENDBRANCH  11  14
ENDBRANCH  10  11
ENDBRANCH   2  10
ENDBRANCH   1   6
BRANCH   1  16
ATOM     16  C   UNL     1      -0.792  10.475  18.822  0.00  0.00    +0.000 A 
ATOM     17  C   UNL     1      -1.720  11.438  19.250  0.00  0.00    +0.000 A 
ATOM     18  C   UNL     1      -2.862  11.714  18.494  0.00  0.00    +0.000 A 
ATOM     19  C   UNL     1      -3.089  11.040  17.295  0.00  0.00    +0.000 A 
ATOM     20  C   UNL     1      -2.133  10.160  16.810  0.00  0.00    +0.000 A 
ATOM     21  C   UNL     1      -0.973   9.912  17.552  0.00  0.00    +0.000 A 
ENDBRANCH   1  16
BRANCH   1  22
ATOM     22  N   UNL     1       1.242   8.986  19.245  0.00  0.00    +0.000 N 
ATOM     23  C   UNL     1       1.699   7.858  19.899  0.00  0.00    +0.000 C 
ATOM     24  O   UNL     1       1.363   7.514  21.027  0.00  0.00    +0.000 OA
ATOM     25  H   UNL     1       1.444   9.075  18.261  0.00  0.00    +0.000 HD
BRANCH  23  26
ATOM     26  C   UNL     1       2.713   7.001  19.219  0.00  0.00    +0.000 A 
ATOM     27  C   UNL     1       2.925   5.671  19.590  0.00  0.00    +0.000 A 
ATOM     28  C   UNL     1       3.724   4.825  18.798  0.00  0.00    +0.000 A 
ATOM     29  C   UNL     1       4.302   5.324  17.615  0.00  0.00    +0.000 A 
ATOM     30  C   UNL     1       5.062   4.741  16.564  0.00  0.00    +0.000 A 
ATOM     31  C   UNL     1       5.351   5.732  15.653  0.00  0.00    +0.000 A 
ATOM     32  N   UNL     1       4.799   6.899  16.115  0.00  0.00    +0.000 N 
ATOM     33  C   UNL     1       4.124   6.669  17.291  0.00  0.00    +0.000 A 
ATOM     34  C   UNL     1       3.341   7.530  18.073  0.00  0.00    +0.000 A 
ATOM     35  H   UNL     1       4.850   7.793  15.644  0.00  0.00    +0.000 HD
ENDBRANCH  23  26
ENDBRANCH   1  22
TORSDOF 8
ENDMDL
MODEL 3
REMARK VINA RESULT:      -7.3      0.960      1.353
REMARK  Name = 
REMARK  10 active torsions:
REMARK  status: ('A' for Active; 'I' for Inactive)
REMARK    1  A    between atoms: C_1  and  C_2
REMARK    2  A    between atoms: C_2  and  N_3
REMARK    3  A    between atoms: N_3  and  C_4
REMARK    4  A    between atoms: N_3  and  C_6
REMARK    5  A    between atoms: C_4  and  C_5
REMARK    6  A    between atoms: C_6  and  C_7
REMARK    7  A    between atoms: C_11  and  C_13
REMARK    8  A    between atoms: C_13  and  N_14
REMARK    9  A    between atoms: C_13  and  C_26
REMARK   10  A    between atoms: C_15  and  C_17
REMARK                            x       y       z     vdW  Elec       q    Type
REMARK                         _______ _______ _______ _____ _____    ______ ____
ROOT
ATOM      1  C   UNL     1      -0.015  10.229  19.807  0.00  0.00    +0.000 C 
ENDROOT
BRANCH   1   6
ATOM      2  C   UNL     1       2.699  14.700  18.772  0.00  0.00    +0.000 C 
ATOM      3  C   UNL     1       2.043  14.828  20.159  0.00  0.00    +0.000 C 
ATOM      4  C   UNL     1       1.856  13.494  20.889  0.00  0.00    +0.000 C 
ATOM      5  N   UNL     1       1.296  12.441  20.045  0.00  0.00    +0.000 N 
ATOM      6  C   UNL     1       0.692  11.338  20.667  0.00  0.00    +0.000 C 
ATOM      7  O   UNL     1       0.693  11.241  21.902  0.00  0.00    +0.000 OA
ATOM      8  C   UNL     1       1.773  12.364  18.670  0.00  0.00    +0.000 C 
ATOM      9  C   UNL     1       1.876  13.702  17.967  0.00  0.00    +0.000 C 
BRANCH   2  10
ATOM     10  C   UNL     1       4.204  14.336  18.867  0.00  0.00    +0.000 C 
BRANCH  10  11
ATOM     11  N   UNL     1       5.187  15.302  18.299  0.00  0.00    +0.000 NA
BRANCH  11  13
ATOM     12  C   UNL     1       5.831  17.413  19.582  0.00  0.00    +0.000 C 
ATOM     13  C   UNL     1       4.835  16.693  18.670  0.00  0.00    +0.000 C 
ENDBRANCH  11  13
BRANCH  11  14
ATOM     14  C   UNL     1       6.549  14.975  18.786  0.00  0.00    +0.000 C 
ATOM     15  C   UNL     1       7.512  14.401  17.750  0.00  0.00    +0.000 C 
ENDBRANCH  11  14
ENDBRANCH  10  11
ENDBRANCH   2  10
ENDBRANCH   1   6
BRANCH   1  16
ATOM     16  C   UNL     1      -1.178  10.702  18.926  0.00  0.00    +0.000 A 
ATOM     17  C   UNL     1      -2.079  11.656  19.428  0.00  0.00    +0.000 A 
ATOM     18  C   UNL     1      -3.264  11.947  18.747  0.00  0.00    +0.000 A 
ATOM     19  C   UNL     1      -3.562  11.297  17.550  0.00  0.00    +0.000 A 
ATOM     20  C   UNL     1      -2.638  10.428  16.991  0.00  0.00    +0.000 A 
ATOM     21  C   UNL     1      -1.436  10.165  17.658  0.00  0.00    +0.000 A 
ENDBRANCH   1  16
BRANCH   1  22
ATOM     22  N   UNL     1       0.914   9.256  19.172  0.00  0.00    +0.000 N 
ATOM     23  C   UNL     1       1.536   8.180  19.777  0.00  0.00    +0.000 C 
ATOM     24  O   UNL     1       1.371   7.837  20.943  0.00  0.00    +0.000 OA
ATOM     25  H   UNL     1       0.985   9.338  18.169  0.00  0.00    +0.000 HD
BRANCH  23  26
ATOM     26  C   UNL     1       2.521   7.388  18.986  0.00  0.00    +0.000 A 
ATOM     27  C   UNL     1       3.079   7.872  17.800  0.00  0.00    +0.000 A 
ATOM     28  C   UNL     1       4.159   7.207  17.193  0.00  0.00    +0.000 A 
ATOM     29  C   UNL     1       4.690   6.050  17.795  0.00  0.00    +0.000 A 
ATOM     30  C   UNL     1       5.801   5.209  17.513  0.00  0.00    +0.000 A 
ATOM     31  C   UNL     1       5.831   4.216  18.466  0.00  0.00    +0.000 A 
ATOM     32  N   UNL     1       4.773   4.418  19.314  0.00  0.00    +0.000 N 
ATOM     33  C   UNL     1       4.083   5.551  18.948  0.00  0.00    +0.000 A 
ATOM     34  C   UNL     1       2.999   6.193  19.562  0.00  0.00    +0.000 A 
ATOM     35  H   UNL     1       4.551   3.841  20.115  0.00  0.00    +0.000 HD
ENDBRANCH  23  26
ENDBRANCH   1  22
TORSDOF 8
ENDMDL
MODEL 4
REMARK VINA RESULT:      -7.3      3.124      5.010
REMARK  Name = 
REMARK  10 active torsions:
REMARK  status: ('A' for Active; 'I' for Inactive)
REMARK    1  A    between atoms: C_1  and  C_2
REMARK    2  A    between atoms: C_2  and  N_3
REMARK    3  A    between atoms: N_3  and  C_4
REMARK    4  A    between atoms: N_3  and  C_6
REMARK    5  A    between atoms: C_4  and  C_5
REMARK    6  A    between atoms: C_6  and  C_7
REMARK    7  A    between atoms: C_11  and  C_13
REMARK    8  A    between atoms: C_13  and  N_14
REMARK    9  A    between atoms: C_13  and  C_26
REMARK   10  A    between atoms: C_15  and  C_17
REMARK                            x       y       z     vdW  Elec       q    Type
REMARK                         _______ _______ _______ _____ _____    ______ ____
ROOT
ATOM      1  C   UNL     1      -0.867  10.709  18.865  0.00  0.00    +0.000 C 
ENDROOT
BRANCH   1   6
ATOM      2  C   UNL     1      -0.820  14.096  22.982  0.00  0.00    +0.000 C 
ATOM      3  C   UNL     1       0.415  14.367  22.104  0.00  0.00    +0.000 C 
ATOM      4  C   UNL     1       0.214  14.038  20.621  0.00  0.00    +0.000 C 
ATOM      5  N   UNL     1      -0.426  12.744  20.392  0.00  0.00    +0.000 N 
ATOM      6  C   UNL     1      -0.287  12.145  19.131  0.00  0.00    +0.000 C 
ATOM      7  O   UNL     1       0.314  12.736  18.223  0.00  0.00    +0.000 OA
ATOM      8  C   UNL     1      -1.510  12.367  21.291  0.00  0.00    +0.000 C 
ATOM      9  C   UNL     1      -1.235  12.648  22.754  0.00  0.00    +0.000 C 
BRANCH   2  10
ATOM     10  C   UNL     1      -1.957  15.120  22.726  0.00  0.00    +0.000 C 
BRANCH  10  11
ATOM     11  N   UNL     1      -2.494  15.866  23.900  0.00  0.00    +0.000 NA
BRANCH  11  13
ATOM     12  C   UNL     1      -4.461  14.241  23.871  0.00  0.00    +0.000 C 
ATOM     13  C   UNL     1      -3.425  15.020  24.683  0.00  0.00    +0.000 C 
ENDBRANCH  11  13
BRANCH  11  14
ATOM     14  C   UNL     1      -1.373  16.319  24.760  0.00  0.00    +0.000 C 
ATOM     15  C   UNL     1      -1.294  15.686  26.147  0.00  0.00    +0.000 C 
ENDBRANCH  11  14
ENDBRANCH  10  11
ENDBRANCH   2  10
ENDBRANCH   1   6
BRANCH   1  16
ATOM     16  C   UNL     1      -2.034  10.631  17.872  0.00  0.00    +0.000 A 
ATOM     17  C   UNL     1      -1.917   9.815  16.735  0.00  0.00    +0.000 A 
ATOM     18  C   UNL     1      -2.860   9.886  15.705  0.00  0.00    +0.000 A 
ATOM     19  C   UNL     1      -3.938  10.765  15.801  0.00  0.00    +0.000 A 
ATOM     20  C   UNL     1      -4.122  11.504  16.960  0.00  0.00    +0.000 A 
ATOM     21  C   UNL     1      -3.195  11.404  18.004  0.00  0.00    +0.000 A 
ENDBRANCH   1  16
BRANCH   1  22
ATOM     22  N   UNL     1       0.162   9.644  18.728  0.00  0.00    +0.000 N 
ATOM     23  C   UNL     1       0.923   9.085  19.737  0.00  0.00    +0.000 C 
ATOM     24  O   UNL     1       0.822   9.362  20.928  0.00  0.00    +0.000 OA
ATOM     25  H   UNL     1       0.203   9.216  17.815  0.00  0.00    +0.000 HD
BRANCH  23  26
ATOM     26  C   UNL     1       1.982   8.101  19.371  0.00  0.00    +0.000 A 
ATOM     27  C   UNL     1       2.172   6.918  20.089  0.00  0.00    +0.000 A 
ATOM     28  C   UNL     1       3.024   5.912  19.598  0.00  0.00    +0.000 A 
ATOM     29  C   UNL     1       3.680   6.097  18.366  0.00  0.00    +0.000 A 
ATOM     30  C   UNL     1       4.511   5.277  17.555  0.00  0.00    +0.000 A 
ATOM     31  C   UNL     1       4.859   6.002  16.438  0.00  0.00    +0.000 A 
ATOM     32  N   UNL     1       4.274   7.238  16.543  0.00  0.00    +0.000 N 
ATOM     33  C   UNL     1       3.521   7.308  17.692  0.00  0.00    +0.000 A 
ATOM     34  C   UNL     1       2.685   8.327  18.170  0.00  0.00    +0.000 A 
ATOM     35  H   UNL     1       4.354   7.980  15.859  0.00  0.00    +0.000 HD
ENDBRANCH  23  26
ENDBRANCH   1  22
TORSDOF 8
ENDMDL
MODEL 5
REMARK VINA RESULT:      -7.2      3.143      4.621
REMARK  Name = 
REMARK  10 active torsions:
REMARK  status: ('A' for Active; 'I' for Inactive)
REMARK    1  A    between atoms: C_1  and  C_2
REMARK    2  A    between atoms: C_2  and  N_3
REMARK    3  A    between atoms: N_3  and  C_4
REMARK    4  A    between atoms: N_3  and  C_6
REMARK    5  A    between atoms: C_4  and  C_5
REMARK    6  A    between atoms: C_6  and  C_7
REMARK    7  A    between atoms: C_11  and  C_13
REMARK    8  A    between atoms: C_13  and  N_14
REMARK    9  A    between atoms: C_13  and  C_26
REMARK   10  A    between atoms: C_15  and  C_17
REMARK                            x       y       z     vdW  Elec       q    Type
REMARK                         _______ _______ _______ _____ _____    ______ ____
ROOT
ATOM      1  C   UNL     1      -1.810  12.493  23.053  0.00  0.00    +0.000 C 
ENDROOT
BRANCH   1   6
ATOM      2  C   UNL     1       0.289  15.964  19.592  0.00  0.00    +0.000 C 
ATOM      3  C   UNL     1      -0.160  16.729  20.850  0.00  0.00    +0.000 C 
ATOM      4  C   UNL     1      -0.111  15.901  22.138  0.00  0.00    +0.000 C 
ATOM      5  N   UNL     1      -0.691  14.567  21.996  0.00  0.00    +0.000 N 
ATOM      6  C   UNL     1      -1.089  13.886  23.156  0.00  0.00    +0.000 C 
ATOM      7  O   UNL     1      -0.894  14.387  24.272  0.00  0.00    +0.000 OA
ATOM      8  C   UNL     1      -0.420  13.850  20.756  0.00  0.00    +0.000 C 
ATOM      9  C   UNL     1      -0.548  14.694  19.505  0.00  0.00    +0.000 C 
BRANCH   2  10
ATOM     10  C   UNL     1       1.819  15.705  19.579  0.00  0.00    +0.000 C 
BRANCH  10  11
ATOM     11  N   UNL     1       2.423  15.188  18.317  0.00  0.00    +0.000 NA
BRANCH  11  13
ATOM     12  C   UNL     1       4.563  16.573  18.453  0.00  0.00    +0.000 C 
ATOM     13  C   UNL     1       3.288  16.214  17.687  0.00  0.00    +0.000 C 
ENDBRANCH  11  13
BRANCH  11  14
ATOM     14  C   UNL     1       3.210  13.964  18.603  0.00  0.00    +0.000 C 
ATOM     15  C   UNL     1       2.625  12.654  18.081  0.00  0.00    +0.000 C 
ENDBRANCH  11  14
ENDBRANCH  10  11
ENDBRANCH   2  10
ENDBRANCH   1   6
BRANCH   1  16
ATOM     16  C   UNL     1      -3.343  12.526  23.106  0.00  0.00    +0.000 A 
ATOM     17  C   UNL     1      -4.070  12.697  21.917  0.00  0.00    +0.000 A 
ATOM     18  C   UNL     1      -5.445  12.949  21.950  0.00  0.00    +0.000 A 
ATOM     19  C   UNL     1      -6.114  13.024  23.171  0.00  0.00    +0.000 A 
ATOM     20  C   UNL     1      -5.430  12.759  24.348  0.00  0.00    +0.000 A 
ATOM     21  C   UNL     1      -4.061  12.472  24.308  0.00  0.00    +0.000 A 
ENDBRANCH   1  16
BRANCH   1  22
ATOM     22  N   UNL     1      -1.225  11.570  22.045  0.00  0.00    +0.000 N 
ATOM     23  C   UNL     1      -0.350  10.525  22.280  0.00  0.00    +0.000 C 
ATOM     24  O   UNL     1       0.042  10.172  23.387  0.00  0.00    +0.000 OA
ATOM     25  H   UNL     1      -1.617  11.657  21.119  0.00  0.00    +0.000 HD
BRANCH  23  26
ATOM     26  C   UNL     1       0.207   9.784  21.112  0.00  0.00    +0.000 A 
ATOM     27  C   UNL     1       0.216  10.329  19.826  0.00  0.00    +0.000 A 
ATOM     28  C   UNL     1       0.938   9.709  18.790  0.00  0.00    +0.000 A 
ATOM     29  C   UNL     1       1.668   8.535  19.059  0.00  0.00    +0.000 A 
ATOM     30  C   UNL     1       2.554   7.724  18.297  0.00  0.00    +0.000 A 
ATOM     31  C   UNL     1       2.978   6.691  19.101  0.00  0.00    +0.000 A 
ATOM     32  N   UNL     1       2.376   6.839  20.324  0.00  0.00    +0.000 N 
ATOM     33  C   UNL     1       1.601   7.976  20.335  0.00  0.00    +0.000 A 
ATOM     34  C   UNL     1       0.878   8.573  21.377  0.00  0.00    +0.000 A 
ATOM     35  H   UNL     1       2.509   6.224  21.116  0.00  0.00    +0.000 HD
ENDBRANCH  23  26
ENDBRANCH   1  22
TORSDOF 8
ENDMDL
MODEL 6
REMARK VINA RESULT:      -7.2      0.988      1.828
REMARK  Name = 
REMARK  10 active torsions:
REMARK  status: ('A' for Active; 'I' for Inactive)
REMARK    1  A    between atoms: C_1  and  C_2
REMARK    2  A    between atoms: C_2  and  N_3
REMARK    3  A    between atoms: N_3  and  C_4
REMARK    4  A    between atoms: N_3  and  C_6
REMARK    5  A    between atoms: C_4  and  C_5
REMARK    6  A    between atoms: C_6  and  C_7
REMARK    7  A    between atoms: C_11  and  C_13
REMARK    8  A    between atoms: C_13  and  N_14
REMARK    9  A    between atoms: C_13  and  C_26
REMARK   10  A    between atoms: C_15  and  C_17
REMARK                            x       y       z     vdW  Elec       q    Type
REMARK                         _______ _______ _______ _____ _____    ______ ____
ROOT
ATOM      1  C   UNL     1       0.166  10.157  19.802  0.00  0.00    +0.000 C 
ENDROOT
BRANCH   1   6
ATOM      2  C   UNL     1       2.735  14.713  18.768  0.00  0.00    +0.000 C 
ATOM      3  C   UNL     1       2.146  14.788  20.189  0.00  0.00    +0.000 C 
ATOM      4  C   UNL     1       2.021  13.430  20.888  0.00  0.00    +0.000 C 
ATOM      5  N   UNL     1       1.441  12.389  20.040  0.00  0.00    +0.000 N 
ATOM      6  C   UNL     1       0.891  11.257  20.659  0.00  0.00    +0.000 C 
ATOM      7  O   UNL     1       0.955  11.124  21.889  0.00  0.00    +0.000 OA
ATOM      8  C   UNL     1       1.852  12.361  18.643  0.00  0.00    +0.000 C 
ATOM      9  C   UNL     1       1.894  13.721  17.975  0.00  0.00    +0.000 C 
BRANCH   2  10
ATOM     10  C   UNL     1       4.250  14.378  18.779  0.00  0.00    +0.000 C 
BRANCH  10  11
ATOM     11  N   UNL     1       5.165  15.335  19.464  0.00  0.00    +0.000 NA
BRANCH  11  13
ATOM     12  C   UNL     1       6.754  14.403  17.698  0.00  0.00    +0.000 C 
ATOM     13  C   UNL     1       6.568  15.126  19.033  0.00  0.00    +0.000 C 
ENDBRANCH  11  13
BRANCH  11  14
ATOM     14  C   UNL     1       4.745  16.727  19.170  0.00  0.00    +0.000 C 
ATOM     15  C   UNL     1       4.616  17.657  20.375  0.00  0.00    +0.000 C 
ENDBRANCH  11  14
ENDBRANCH  10  11
ENDBRANCH   2  10
ENDBRANCH   1   6
BRANCH   1  16
ATOM     16  C   UNL     1      -1.011  10.642  18.946  0.00  0.00    +0.000 A 
ATOM     17  C   UNL     1      -1.897  11.598  19.470  0.00  0.00    +0.000 A 
ATOM     18  C   UNL     1      -3.093  11.900  18.813  0.00  0.00    +0.000 A 
ATOM     19  C   UNL     1      -3.417  11.258  17.618  0.00  0.00    +0.000 A 
ATOM     20  C   UNL     1      -2.508  10.386  17.037  0.00  0.00    +0.000 A 
ATOM     21  C   UNL     1      -1.296  10.114  17.680  0.00  0.00    +0.000 A 
ENDBRANCH   1  16
BRANCH   1  22
ATOM     22  N   UNL     1       1.080   9.187  19.143  0.00  0.00    +0.000 N 
ATOM     23  C   UNL     1       1.670   8.076  19.715  0.00  0.00    +0.000 C 
ATOM     24  O   UNL     1       1.483   7.695  20.866  0.00  0.00    +0.000 OA
ATOM     25  H   UNL     1       1.164   9.303  18.144  0.00  0.00    +0.000 HD
BRANCH  23  26
ATOM     26  C   UNL     1       2.646   7.290  18.907  0.00  0.00    +0.000 A 
ATOM     27  C   UNL     1       3.149   7.759  17.692  0.00  0.00    +0.000 A 
ATOM     28  C   UNL     1       4.223   7.107  17.061  0.00  0.00    +0.000 A 
ATOM     29  C   UNL     1       4.804   5.978  17.669  0.00  0.00    +0.000 A 
ATOM     30  C   UNL     1       5.926   5.158  17.367  0.00  0.00    +0.000 A 
ATOM     31  C   UNL     1       6.016   4.189  18.340  0.00  0.00    +0.000 A 
ATOM     32  N   UNL     1       4.984   4.385  19.221  0.00  0.00    +0.000 N 
ATOM     33  C   UNL     1       4.253   5.492  18.855  0.00  0.00    +0.000 A 
ATOM     34  C   UNL     1       3.175   6.121  19.493  0.00  0.00    +0.000 A 
ATOM     35  H   UNL     1       4.806   3.822  20.043  0.00  0.00    +0.000 HD
ENDBRANCH  23  26
ENDBRANCH   1  22
TORSDOF 8
ENDMDL
MODEL 7
REMARK VINA RESULT:      -7.2      3.264      5.276
REMARK  Name = 
REMARK  10 active torsions:
REMARK  status: ('A' for Active; 'I' for Inactive)
REMARK    1  A    between atoms: C_1  and  C_2
REMARK    2  A    between atoms: C_2  and  N_3
REMARK    3  A    between atoms: N_3  and  C_4
REMARK    4  A    between atoms: N_3  and  C_6
REMARK    5  A    between atoms: C_4  and  C_5
REMARK    6  A    between atoms: C_6  and  C_7
REMARK    7  A    between atoms: C_11  and  C_13
REMARK    8  A    between atoms: C_13  and  N_14
REMARK    9  A    between atoms: C_13  and  C_26
REMARK   10  A    between atoms: C_15  and  C_17
REMARK                            x       y       z     vdW  Elec       q    Type
REMARK                         _______ _______ _______ _____ _____    ______ ____
ROOT
ATOM      1  C   UNL     1      -1.035  10.735  18.666  0.00  0.00    +0.000 C 
ENDROOT
BRANCH   1   6
ATOM      2  C   UNL     1      -0.750  13.829  22.999  0.00  0.00    +0.000 C 
ATOM      3  C   UNL     1       0.434  14.163  22.073  0.00  0.00    +0.000 C 
ATOM      4  C   UNL     1       0.148  13.937  20.584  0.00  0.00    +0.000 C 
ATOM      5  N   UNL     1      -0.505  12.660  20.304  0.00  0.00    +0.000 N 
ATOM      6  C   UNL     1      -0.438  12.150  18.999  0.00  0.00    +0.000 C 
ATOM      7  O   UNL     1       0.111  12.803  18.101  0.00  0.00    +0.000 OA
ATOM      8  C   UNL     1      -1.537  12.219  21.234  0.00  0.00    +0.000 C 
ATOM      9  C   UNL     1      -1.180  12.400  22.695  0.00  0.00    +0.000 C 
BRANCH   2  10
ATOM     10  C   UNL     1      -1.899  14.865  22.879  0.00  0.00    +0.000 C 
BRANCH  10  11
ATOM     11  N   UNL     1      -2.550  15.326  24.139  0.00  0.00    +0.000 NA
BRANCH  11  13
ATOM     12  C   UNL     1      -4.761  14.220  23.501  0.00  0.00    +0.000 C 
ATOM     13  C   UNL     1      -3.646  14.409  24.532  0.00  0.00    +0.000 C 
ENDBRANCH  11  13
BRANCH  11  14
ATOM     14  C   UNL     1      -1.540  15.407  25.222  0.00  0.00    +0.000 C 
ATOM     15  C   UNL     1      -1.484  16.727  25.988  0.00  0.00    +0.000 C 
ENDBRANCH  11  14
ENDBRANCH  10  11
ENDBRANCH   2  10
ENDBRANCH   1   6
BRANCH   1  16
ATOM     16  C   UNL     1      -2.256  10.722  17.738  0.00  0.00    +0.000 A 
ATOM     17  C   UNL     1      -2.190  10.022  16.522  0.00  0.00    +0.000 A 
ATOM     18  C   UNL     1      -3.192  10.167  15.559  0.00  0.00    +0.000 A 
ATOM     19  C   UNL     1      -4.280  11.005  15.800  0.00  0.00    +0.000 A 
ATOM     20  C   UNL     1      -4.410  11.626  17.034  0.00  0.00    +0.000 A 
ATOM     21  C   UNL     1      -3.422  11.450  18.010  0.00  0.00    +0.000 A 
ENDBRANCH   1  16
BRANCH   1  22
ATOM     22  N   UNL     1      -0.017   9.684  18.399  0.00  0.00    +0.000 N 
ATOM     23  C   UNL     1       0.916   9.181  19.286  0.00  0.00    +0.000 C 
ATOM     24  O   UNL     1       1.009   9.504  20.466  0.00  0.00    +0.000 OA
ATOM     25  H   UNL     1      -0.118   9.220  17.508  0.00  0.00    +0.000 HD
BRANCH  23  26
ATOM     26  C   UNL     1       1.923   8.203  18.785  0.00  0.00    +0.000 A 
ATOM     27  C   UNL     1       2.652   8.426  17.614  0.00  0.00    +0.000 A 
ATOM     28  C   UNL     1       3.743   7.602  17.281  0.00  0.00    +0.000 A 
ATOM     29  C   UNL     1       4.109   6.552  18.145  0.00  0.00    +0.000 A 
ATOM     30  C   UNL     1       5.179   5.615  18.166  0.00  0.00    +0.000 A 
ATOM     31  C   UNL     1       5.021   4.819  19.277  0.00  0.00    +0.000 A 
ATOM     32  N   UNL     1       3.889   5.233  19.931  0.00  0.00    +0.000 N 
ATOM     33  C   UNL     1       3.335   6.311  19.281  0.00  0.00    +0.000 A 
ATOM     34  C   UNL     1       2.238   7.114  19.623  0.00  0.00    +0.000 A 
ATOM     35  H   UNL     1       3.531   4.829  20.787  0.00  0.00    +0.000 HD
ENDBRANCH  23  26
ENDBRANCH   1  22
TORSDOF 8
ENDMDL
MODEL 8
REMARK VINA RESULT:      -7.2      3.703      6.821
REMARK  Name = 
REMARK  10 active torsions:
REMARK  status: ('A' for Active; 'I' for Inactive)
REMARK    1  A    between atoms: C_1  and  C_2
REMARK    2  A    between atoms: C_2  and  N_3
REMARK    3  A    between atoms: N_3  and  C_4
REMARK    4  A    between atoms: N_3  and  C_6
REMARK    5  A    between atoms: C_4  and  C_5
REMARK    6  A    between atoms: C_6  and  C_7
REMARK    7  A    between atoms: C_11  and  C_13
REMARK    8  A    between atoms: C_13  and  N_14
REMARK    9  A    between atoms: C_13  and  C_26
REMARK   10  A    between atoms: C_15  and  C_17
REMARK                            x       y       z     vdW  Elec       q    Type
REMARK                         _______ _______ _______ _____ _____    ______ ____
ROOT
ATOM      1  C   UNL     1       0.404  12.626  19.454  0.00  0.00    +0.000 C 
ENDROOT
BRANCH   1   6
ATOM      2  C   UNL     1      -4.095  12.896  22.301  0.00  0.00    +0.000 C 
ATOM      3  C   UNL     1      -3.004  12.234  23.161  0.00  0.00    +0.000 C 
ATOM      4  C   UNL     1      -1.580  12.692  22.829  0.00  0.00    +0.000 C 
ATOM      5  N   UNL     1      -1.296  12.718  21.395  0.00  0.00    +0.000 N 
ATOM      6  C   UNL     1       0.045  12.702  20.982  0.00  0.00    +0.000 C 
ATOM      7  O   UNL     1       0.957  12.726  21.820  0.00  0.00    +0.000 OA
ATOM      8  C   UNL     1      -2.352  13.199  20.514  0.00  0.00    +0.000 C 
ATOM      9  C   UNL     1      -3.731  12.664  20.840  0.00  0.00    +0.000 C 
BRANCH   2  10
ATOM     10  C   UNL     1      -4.300  14.391  22.664  0.00  0.00    +0.000 C 
BRANCH  10  11
ATOM     11  N   UNL     1      -5.395  14.728  23.618  0.00  0.00    +0.000 NA
BRANCH  11  13
ATOM     12  C   UNL     1      -4.724  16.850  24.867  0.00  0.00    +0.000 C 
ATOM     13  C   UNL     1      -5.545  16.196  23.754  0.00  0.00    +0.000 C 
ENDBRANCH  11  13
BRANCH  11  14
ATOM     14  C   UNL     1      -6.669  14.128  23.151  0.00  0.00    +0.000 C 
ATOM     15  C   UNL     1      -7.574  13.547  24.234  0.00  0.00    +0.000 C 
ENDBRANCH  11  14
ENDBRANCH  10  11
ENDBRANCH   2  10
ENDBRANCH   1   6
BRANCH   1  16
ATOM     16  C   UNL     1       1.058  13.878  18.855  0.00  0.00    +0.000 A 
ATOM     17  C   UNL     1       2.329  13.777  18.267  0.00  0.00    +0.000 A 
ATOM     18  C   UNL     1       3.045  14.924  17.911  0.00  0.00    +0.000 A 
ATOM     19  C   UNL     1       2.496  16.187  18.128  0.00  0.00    +0.000 A 
ATOM     20  C   UNL     1       1.203  16.301  18.615  0.00  0.00    +0.000 A 
ATOM     21  C   UNL     1       0.476  15.150  18.937  0.00  0.00    +0.000 A 
ENDBRANCH   1  16
BRANCH   1  22
ATOM     22  N   UNL     1       0.991  11.329  19.023  0.00  0.00    +0.000 N 
ATOM     23  C   UNL     1       0.641  10.067  19.464  0.00  0.00    +0.000 C 
ATOM     24  O   UNL     1      -0.260   9.827  20.260  0.00  0.00    +0.000 OA
ATOM     25  H   UNL     1       1.622  11.395  18.238  0.00  0.00    +0.000 HD
BRANCH  23  26
ATOM     26  C   UNL     1       1.431   8.898  18.984  0.00  0.00    +0.000 A 
ATOM     27  C   UNL     1       2.073   8.897  17.743  0.00  0.00    +0.000 A 
ATOM     28  C   UNL     1       2.984   7.880  17.408  0.00  0.00    +0.000 A 
ATOM     29  C   UNL     1       3.261   6.861  18.340  0.00  0.00    +0.000 A 
ATOM     30  C   UNL     1       4.168   5.766  18.368  0.00  0.00    +0.000 A 
ATOM     31  C   UNL     1       3.992   5.103  19.562  0.00  0.00    +0.000 A 
ATOM     32  N   UNL     1       3.006   5.752  20.259  0.00  0.00    +0.000 N 
ATOM     33  C   UNL     1       2.569   6.848  19.551  0.00  0.00    +0.000 A 
ATOM     34  C   UNL     1       1.649   7.846  19.898  0.00  0.00    +0.000 A 
ATOM     35  H   UNL     1       2.671   5.487  21.176  0.00  0.00    +0.000 HD
ENDBRANCH  23  26
ENDBRANCH   1  22
TORSDOF 8
ENDMDL
MODEL 9
REMARK VINA RESULT:      -7.2      1.619      8.012
REMARK  Name = 
REMARK  10 active torsions:
REMARK  status: ('A' for Active; 'I' for Inactive)
REMARK    1  A    between atoms: C_1  and  C_2
REMARK    2  A    between atoms: C_2  and  N_3
REMARK    3  A    between atoms: N_3  and  C_4
REMARK    4  A    between atoms: N_3  and  C_6
REMARK    5  A    between atoms: C_4  and  C_5
REMARK    6  A    between atoms: C_6  and  C_7
REMARK    7  A    between atoms: C_11  and  C_13
REMARK    8  A    between atoms: C_13  and  N_14
REMARK    9  A    between atoms: C_13  and  C_26
REMARK   10  A    between atoms: C_15  and  C_17
REMARK                            x       y       z     vdW  Elec       q    Type
REMARK                         _______ _______ _______ _____ _____    ______ ____
ROOT
ATOM      1  C   UNL     1       0.279  10.688  18.753  0.00  0.00    +0.000 C 
ENDROOT
BRANCH   1   6
ATOM      2  C   UNL     1       3.382   6.372  18.353  0.00  0.00    +0.000 C 
ATOM      3  C   UNL     1       3.167   6.690  19.844  0.00  0.00    +0.000 C 
ATOM      4  C   UNL     1       1.832   7.377  20.151  0.00  0.00    +0.000 C 
ATOM      5  N   UNL     1       1.518   8.476  19.241  0.00  0.00    +0.000 N 
ATOM      6  C   UNL     1       0.577   9.433  19.649  0.00  0.00    +0.000 C 
ATOM      7  O   UNL     1      -0.012   9.306  20.732  0.00  0.00    +0.000 OA
ATOM      8  C   UNL     1       1.838   8.287  17.831  0.00  0.00    +0.000 C 
ATOM      9  C   UNL     1       3.197   7.668  17.576  0.00  0.00    +0.000 C 
BRANCH   2  10
ATOM     10  C   UNL     1       2.470   5.215  17.864  0.00  0.00    +0.000 C 
BRANCH  10  11
ATOM     11  N   UNL     1       3.087   3.866  17.709  0.00  0.00    +0.000 NA
BRANCH  11  13
ATOM     12  C   UNL     1       4.970   4.113  16.003  0.00  0.00    +0.000 C 
ATOM     13  C   UNL     1       4.545   3.977  17.466  0.00  0.00    +0.000 C 
ENDBRANCH  11  13
BRANCH  11  14
ATOM     14  C   UNL     1       2.833   3.057  18.925  0.00  0.00    +0.000 C 
ATOM     15  C   UNL     1       4.069   2.519  19.642  0.00  0.00    +0.000 C 
ENDBRANCH  11  14
ENDBRANCH  10  11
ENDBRANCH   2  10
ENDBRANCH   1   6
BRANCH   1  16
ATOM     16  C   UNL     1      -1.157  10.811  18.226  0.00  0.00    +0.000 A 
ATOM     17  C   UNL     1      -2.034  11.730  18.824  0.00  0.00    +0.000 A 
ATOM     18  C   UNL     1      -3.399  11.716  18.521  0.00  0.00    +0.000 A 
ATOM     19  C   UNL     1      -3.904  10.791  17.609  0.00  0.00    +0.000 A 
ATOM     20  C   UNL     1      -3.037   9.943  16.936  0.00  0.00    +0.000 A 
ATOM     21  C   UNL     1      -1.667   9.984  17.216  0.00  0.00    +0.000 A 
ENDBRANCH   1  16
BRANCH   1  22
ATOM     22  N   UNL     1       0.891  11.953  19.240  0.00  0.00    +0.000 N 
ATOM     23  C   UNL     1       2.070  12.530  18.806  0.00  0.00    +0.000 C 
ATOM     24  O   UNL     1       2.774  12.094  17.901  0.00  0.00    +0.000 OA
ATOM     25  H   UNL     1       0.306  12.489  19.863  0.00  0.00    +0.000 HD
BRANCH  23  26
ATOM     26  C   UNL     1       2.567  13.750  19.505  0.00  0.00    +0.000 A 
ATOM     27  C   UNL     1       2.397  13.937  20.879  0.00  0.00    +0.000 A 
ATOM     28  C   UNL     1       3.061  14.982  21.546  0.00  0.00    +0.000 A 
ATOM     29  C   UNL     1       3.914  15.838  20.823  0.00  0.00    +0.000 A 
ATOM     30  C   UNL     1       4.785  16.902  21.184  0.00  0.00    +0.000 A 
ATOM     31  C   UNL     1       5.377  17.371  20.033  0.00  0.00    +0.000 A 
ATOM     32  N   UNL     1       4.893  16.634  18.983  0.00  0.00    +0.000 N 
ATOM     33  C   UNL     1       4.027  15.669  19.443  0.00  0.00    +0.000 A 
ATOM     34  C   UNL     1       3.366  14.641  18.758  0.00  0.00    +0.000 A 
ATOM     35  H   UNL     1       5.160  16.756  18.015  0.00  0.00    +0.000 HD
ENDBRANCH  23  26
ENDBRANCH   1  22
TORSDOF 8
ENDMDL
