MODEL 1
REMARK VINA RESULT:      -6.8      0.000      0.000
REMARK  Name = 
REMARK  6 active torsions:
REMARK  status: ('A' for Active; 'I' for Inactive)
REMARK    1  A    between atoms: N_1  and  C_2
REMARK    2  A    between atoms: C_2  and  C_3
REMARK    3  A    between atoms: C_3  and  C_4
REMARK    4  A    between atoms: C_4  and  C_5
REMARK    5  A    between atoms: N_7  and  C_8
REMARK    6  A    between atoms: C_21  and  C_22
REMARK                            x       y       z     vdW  Elec       q    Type
REMARK                         _______ _______ _______ _____ _____    ______ ____
ROOT
ATOM      1  C   UNL     1       1.039   8.943  20.075  0.00  0.00    +0.000 A 
ATOM      2  C   UNL     1       1.667   9.731  19.117  0.00  0.00    +0.000 A 
ATOM      3  C   UNL     1       2.563   9.155  18.213  0.00  0.00    +0.000 A 
ATOM      4  C   UNL     1       2.861   7.802  18.234  0.00  0.00    +0.000 A 
ATOM      5  N   UNL     1       3.687   7.339  17.298  0.00  0.00    +0.000 NA
ATOM      6  C   UNL     1       3.956   6.031  17.255  0.00  0.00    +0.000 A 
ATOM      7  N   UNL     1       4.790   5.564  16.280  0.00  0.00    +0.000 N 
ATOM      8  C   UNL     1       5.428   6.456  15.313  0.00  0.00    +0.000 C 
ATOM      9  C   UNL     1       6.946   6.167  15.267  0.00  0.00    +0.000 C 
ATOM     10  N   UNL     1       7.276   4.745  15.036  0.00  0.00    +0.000 NA
ATOM     11  C   UNL     1       6.590   3.911  16.046  0.00  0.00    +0.000 C 
ATOM     12  C   UNL     1       5.063   4.143  16.111  0.00  0.00    +0.000 C 
ATOM     13  N   UNL     1       3.444   5.173  18.145  0.00  0.00    +0.000 NA
ATOM     14  C   UNL     1       2.626   5.639  19.118  0.00  0.00    +0.000 A 
ATOM     15  C   UNL     1       2.272   6.998  19.209  0.00  0.00    +0.000 A 
ATOM     16  C   UNL     1       1.364   7.595  20.133  0.00  0.00    +0.000 A 
ATOM     17  H   UNL     1       8.282   4.621  15.135  0.00  0.00    +0.000 HD
ENDROOT
BRANCH  14  18
ATOM     18  C   UNL     1       2.108   4.575  20.019  0.00  0.00    +0.000 A 
ATOM     19  C   UNL     1       1.021   3.749  19.674  0.00  0.00    +0.000 A 
ATOM     20  C   UNL     1       0.633   2.670  20.472  0.00  0.00    +0.000 A 
ATOM     21  C   UNL     1       1.263   2.448  21.690  0.00  0.00    +0.000 A 
ATOM     22  C   UNL     1       2.281   3.301  22.104  0.00  0.00    +0.000 A 
ATOM     23  C   UNL     1       2.706   4.344  21.273  0.00  0.00    +0.000 A 
ENDBRANCH  14  18
BRANCH   1  26
ATOM     24  C   UNL     1       0.273   9.723  22.286  0.00  0.00    +0.000 C 
ATOM     25  O   UNL     1       1.338   9.613  22.896  0.00  0.00    +0.000 OA
ATOM     26  N   UNL     1       0.058   9.427  20.962  0.00  0.00    +0.000 N 
ATOM     27  H   UNL     1      -0.797   9.794  20.552  0.00  0.00    +0.000 HD
BRANCH  24  28
ATOM     28  C   UNL     1      -0.931  10.305  22.994  0.00  0.00    +0.000 C 
BRANCH  28  29
ATOM     29  C   UNL     1      -0.994  11.818  22.762  0.00  0.00    +0.000 C 
BRANCH  29  30
ATOM     30  C   UNL     1      -2.001  12.227  21.687  0.00  0.00    +0.000 C 
BRANCH  30  31
ATOM     31  N   UNL     1      -1.380  12.205  20.365  0.00  0.00    +0.000 NA
ATOM     32  H   UNL     1      -0.707  11.437  20.332  0.00  0.00    +0.000 HD
ATOM     33  H   UNL     1      -0.826  13.055  20.248  0.00  0.00    +0.000 HD
ENDBRANCH  30  31
ENDBRANCH  29  30
ENDBRANCH  28  29
ENDBRANCH  24  28
ENDBRANCH   1  26
TORSDOF 6
ENDMDL
MODEL 2
REMARK VINA RESULT:      -6.7      0.705      1.136
REMARK  Name = 
REMARK  6 active torsions:
REMARK  status: ('A' for Active; 'I' for Inactive)
REMARK    1  A    between atoms: N_1  and  C_2
REMARK    2  A    between atoms: C_2  and  C_3
REMARK    3  A    between atoms: C_3  and  C_4
REMARK    4  A    between atoms: C_4  and  C_5
REMARK    5  A    between atoms: N_7  and  C_8
REMARK    6  A    between atoms: C_21  and  C_22
REMARK                            x       y       z     vdW  Elec       q    Type
REMARK                         _______ _______ _______ _____ _____    ______ ____
ROOT
ATOM      1  C   UNL     1       1.080   8.821  20.079  0.00  0.00    +0.000 A 
ATOM      2  C   UNL     1       1.683   9.627  19.121  0.00  0.00    +0.000 A 
ATOM      3  C   UNL     1       2.578   9.075  18.202  0.00  0.00    +0.000 A 
ATOM      4  C   UNL     1       2.901   7.727  18.209  0.00  0.00    +0.000 A 
ATOM      5  N   UNL     1       3.724   7.287  17.260  0.00  0.00    +0.000 NA
ATOM      6  C   UNL     1       4.017   5.984  17.204  0.00  0.00    +0.000 A 
ATOM      7  N   UNL     1       4.847   5.539  16.215  0.00  0.00    +0.000 N 
ATOM      8  C   UNL     1       5.457   6.450  15.249  0.00  0.00    +0.000 C 
ATOM      9  C   UNL     1       6.981   6.189  15.183  0.00  0.00    +0.000 C 
ATOM     10  N   UNL     1       7.333   4.775  14.937  0.00  0.00    +0.000 NA
ATOM     11  C   UNL     1       6.675   3.921  15.948  0.00  0.00    +0.000 C 
ATOM     12  C   UNL     1       5.144   4.125  16.032  0.00  0.00    +0.000 C 
ATOM     13  N   UNL     1       3.531   5.110  18.093  0.00  0.00    +0.000 NA
ATOM     14  C   UNL     1       2.715   5.554  19.079  0.00  0.00    +0.000 A 
ATOM     15  C   UNL     1       2.338   6.905  19.184  0.00  0.00    +0.000 A 
ATOM     16  C   UNL     1       1.430   7.479  20.124  0.00  0.00    +0.000 A 
ATOM     17  H   UNL     1       8.342   4.668  15.023  0.00  0.00    +0.000 HD
ENDROOT
BRANCH  14  18
ATOM     18  C   UNL     1       2.227   4.473  19.977  0.00  0.00    +0.000 A 
ATOM     19  C   UNL     1       2.810   4.205  21.230  0.00  0.00    +0.000 A 
ATOM     20  C   UNL     1       2.258   3.276  22.116  0.00  0.00    +0.000 A 
ATOM     21  C   UNL     1       1.161   2.518  21.729  0.00  0.00    +0.000 A 
ATOM     22  C   UNL     1       0.616   2.694  20.461  0.00  0.00    +0.000 A 
ATOM     23  C   UNL     1       1.135   3.667  19.601  0.00  0.00    +0.000 A 
ENDBRANCH  14  18
BRANCH   1  26
ATOM     24  C   UNL     1       0.340   9.641  22.286  0.00  0.00    +0.000 C 
ATOM     25  O   UNL     1       1.430   9.619  22.861  0.00  0.00    +0.000 OA
ATOM     26  N   UNL     1       0.101   9.281  20.981  0.00  0.00    +0.000 N 
ATOM     27  H   UNL     1      -0.788   9.579  20.588  0.00  0.00    +0.000 HD
BRANCH  24  28
ATOM     28  C   UNL     1      -0.873  10.178  23.013  0.00  0.00    +0.000 C 
BRANCH  28  29
ATOM     29  C   UNL     1      -0.960  11.696  22.837  0.00  0.00    +0.000 C 
BRANCH  29  30
ATOM     30  C   UNL     1      -2.340  12.180  22.389  0.00  0.00    +0.000 C 
BRANCH  30  31
ATOM     31  N   UNL     1      -3.309  12.042  23.474  0.00  0.00    +0.000 NA
ATOM     32  H   UNL     1      -3.748  12.951  23.638  0.00  0.00    +0.000 HD
ATOM     33  H   UNL     1      -2.808  11.824  24.337  0.00  0.00    +0.000 HD
ENDBRANCH  30  31
ENDBRANCH  29  30
ENDBRANCH  28  29
ENDBRANCH  24  28
ENDBRANCH   1  26
TORSDOF 6
ENDMDL
MODEL 3
REMARK VINA RESULT:      -6.5      2.357      7.846
REMARK  Name = 
REMARK  6 active torsions:
REMARK  status: ('A' for Active; 'I' for Inactive)
REMARK    1  A    between atoms: N_1  and  C_2
REMARK    2  A    between atoms: C_2  and  C_3
REMARK    3  A    between atoms: C_3  and  C_4
REMARK    4  A    between atoms: C_4  and  C_5
REMARK    5  A    between atoms: N_7  and  C_8
REMARK    6  A    between atoms: C_21  and  C_22
REMARK                            x       y       z     vdW  Elec       q    Type
REMARK                         _______ _______ _______ _____ _____    ______ ____
ROOT
ATOM      1  C   UNL     1       4.045   6.196  16.863  0.00  0.00    +0.000 A 
ATOM      2  C   UNL     1       4.064   7.567  16.634  0.00  0.00    +0.000 A 
ATOM      3  C   UNL     1       3.401   8.434  17.507  0.00  0.00    +0.000 A 
ATOM      4  C   UNL     1       2.707   7.973  18.613  0.00  0.00    +0.000 A 
ATOM      5  N   UNL     1       2.153   8.882  19.414  0.00  0.00    +0.000 NA
ATOM      6  C   UNL     1       1.520   8.477  20.519  0.00  0.00    +0.000 A 
ATOM      7  N   UNL     1       0.971   9.417  21.343  0.00  0.00    +0.000 N 
ATOM      8  C   UNL     1       1.018  10.844  21.029  0.00  0.00    +0.000 C 
ATOM      9  C   UNL     1      -0.402  11.447  21.150  0.00  0.00    +0.000 C 
ATOM     10  N   UNL     1      -1.059  11.168  22.445  0.00  0.00    +0.000 NA
ATOM     11  C   UNL     1      -1.060   9.710  22.691  0.00  0.00    +0.000 C 
ATOM     12  C   UNL     1       0.342   9.065  22.609  0.00  0.00    +0.000 C 
ATOM     13  N   UNL     1       1.399   7.182  20.832  0.00  0.00    +0.000 NA
ATOM     14  C   UNL     1       1.935   6.249  20.009  0.00  0.00    +0.000 A 
ATOM     15  C   UNL     1       2.642   6.600  18.844  0.00  0.00    +0.000 A 
ATOM     16  C   UNL     1       3.315   5.721  17.944  0.00  0.00    +0.000 A 
ATOM     17  H   UNL     1      -2.022  11.495  22.401  0.00  0.00    +0.000 HD
ENDROOT
BRANCH  14  18
ATOM     18  C   UNL     1       1.751   4.855  20.492  0.00  0.00    +0.000 A 
ATOM     19  C   UNL     1       0.868   3.947  19.876  0.00  0.00    +0.000 A 
ATOM     20  C   UNL     1       0.805   2.606  20.259  0.00  0.00    +0.000 A 
ATOM     21  C   UNL     1       1.555   2.157  21.339  0.00  0.00    +0.000 A 
ATOM     22  C   UNL     1       2.370   3.051  22.028  0.00  0.00    +0.000 A 
ATOM     23  C   UNL     1       2.475   4.379  21.602  0.00  0.00    +0.000 A 
ENDBRANCH  14  18
BRANCH   1  26
ATOM     24  C   UNL     1       6.112   5.312  15.848  0.00  0.00    +0.000 C 
ATOM     25  O   UNL     1       6.899   6.161  16.273  0.00  0.00    +0.000 OA
ATOM     26  N   UNL     1       4.760   5.266  16.085  0.00  0.00    +0.000 N 
ATOM     27  H   UNL     1       4.296   4.386  15.872  0.00  0.00    +0.000 HD
BRANCH  24  28
ATOM     28  C   UNL     1       6.642   4.144  15.046  0.00  0.00    +0.000 C 
BRANCH  28  29
ATOM     29  C   UNL     1       5.722   3.868  13.853  0.00  0.00    +0.000 C 
BRANCH  29  30
ATOM     30  C   UNL     1       6.477   3.632  12.545  0.00  0.00    +0.000 C 
BRANCH  30  31
ATOM     31  N   UNL     1       6.075   2.363  11.941  0.00  0.00    +0.000 NA
ATOM     32  H   UNL     1       5.331   2.544  11.264  0.00  0.00    +0.000 HD
ATOM     33  H   UNL     1       5.649   1.777  12.661  0.00  0.00    +0.000 HD
ENDBRANCH  30  31
ENDBRANCH  29  30
ENDBRANCH  28  29
ENDBRANCH  24  28
ENDBRANCH   1  26
TORSDOF 6
ENDMDL
MODEL 4
REMARK VINA RESULT:      -6.4      3.455      9.869
REMARK  Name = 
REMARK  6 active torsions:
REMARK  status: ('A' for Active; 'I' for Inactive)
REMARK    1  A    between atoms: N_1  and  C_2
REMARK    2  A    between atoms: C_2  and  C_3
REMARK    3  A    between atoms: C_3  and  C_4
REMARK    4  A    between atoms: C_4  and  C_5
REMARK    5  A    between atoms: N_7  and  C_8
REMARK    6  A    between atoms: C_21  and  C_22
REMARK                            x       y       z     vdW  Elec       q    Type
REMARK                         _______ _______ _______ _____ _____    ______ ____
ROOT
ATOM      1  C   UNL     1       0.827   9.514  20.009  0.00  0.00    +0.000 A 
ATOM      2  C   UNL     1       1.055  10.098  21.250  0.00  0.00    +0.000 A 
ATOM      3  C   UNL     1       0.193  11.088  21.727  0.00  0.00    +0.000 A 
ATOM      4  C   UNL     1      -0.901  11.525  20.998  0.00  0.00    +0.000 A 
ATOM      5  N   UNL     1      -1.692  12.435  21.562  0.00  0.00    +0.000 NA
ATOM      6  C   UNL     1      -2.786  12.841  20.910  0.00  0.00    +0.000 A 
ATOM      7  N   UNL     1      -3.601  13.761  21.505  0.00  0.00    +0.000 N 
ATOM      8  C   UNL     1      -3.289  14.345  22.808  0.00  0.00    +0.000 C 
ATOM      9  C   UNL     1      -3.386  15.886  22.721  0.00  0.00    +0.000 C 
ATOM     10  N   UNL     1      -4.669  16.372  22.170  0.00  0.00    +0.000 NA
ATOM     11  C   UNL     1      -4.914  15.733  20.860  0.00  0.00    +0.000 C 
ATOM     12  C   UNL     1      -4.856  14.189  20.900  0.00  0.00    +0.000 C 
ATOM     13  N   UNL     1      -3.096  12.382  19.692  0.00  0.00    +0.000 NA
ATOM     14  C   UNL     1      -2.281  11.477  19.099  0.00  0.00    +0.000 A 
ATOM     15  C   UNL     1      -1.129  10.980  19.735  0.00  0.00    +0.000 A 
ATOM     16  C   UNL     1      -0.240   9.975  19.251  0.00  0.00    +0.000 A 
ATOM     17  H   UNL     1      -4.609  17.380  22.038  0.00  0.00    +0.000 HD
ENDROOT
BRANCH  14  18
ATOM     18  C   UNL     1      -2.760  11.034  17.762  0.00  0.00    +0.000 A 
ATOM     19  C   UNL     1      -3.966  11.491  17.196  0.00  0.00    +0.000 A 
ATOM     20  C   UNL     1      -4.335  11.168  15.889  0.00  0.00    +0.000 A 
ATOM     21  C   UNL     1      -3.552  10.297  15.143  0.00  0.00    +0.000 A 
ATOM     22  C   UNL     1      -2.400   9.755  15.705  0.00  0.00    +0.000 A 
ATOM     23  C   UNL     1      -2.004  10.128  16.994  0.00  0.00    +0.000 A 
ENDBRANCH  14  18
BRANCH   1  26
ATOM     24  C   UNL     1       2.204   8.441  18.265  0.00  0.00    +0.000 C 
ATOM     25  O   UNL     1       2.178   9.349  17.431  0.00  0.00    +0.000 OA
ATOM     26  N   UNL     1       1.594   8.449  19.496  0.00  0.00    +0.000 N 
ATOM     27  H   UNL     1       1.903   7.741  20.156  0.00  0.00    +0.000 HD
BRANCH  24  28
ATOM     28  C   UNL     1       3.035   7.206  17.993  0.00  0.00    +0.000 C 
BRANCH  28  29
ATOM     29  C   UNL     1       2.379   5.982  18.637  0.00  0.00    +0.000 C 
BRANCH  29  30
ATOM     30  C   UNL     1       2.566   4.696  17.831  0.00  0.00    +0.000 C 
BRANCH  30  31
ATOM     31  N   UNL     1       1.272   4.114  17.482  0.00  0.00    +0.000 NA
ATOM     32  H   UNL     1       0.666   4.855  17.122  0.00  0.00    +0.000 HD
ATOM     33  H   UNL     1       0.818   3.787  18.337  0.00  0.00    +0.000 HD
ENDBRANCH  30  31
ENDBRANCH  29  30
ENDBRANCH  28  29
ENDBRANCH  24  28
ENDBRANCH   1  26
TORSDOF 6
ENDMDL
MODEL 5
REMARK VINA RESULT:      -6.2      3.398      9.882
REMARK  Name = 
REMARK  6 active torsions:
REMARK  status: ('A' for Active; 'I' for Inactive)
REMARK    1  A    between atoms: N_1  and  C_2
REMARK    2  A    between atoms: C_2  and  C_3
REMARK    3  A    between atoms: C_3  and  C_4
REMARK    4  A    between atoms: C_4  and  C_5
REMARK    5  A    between atoms: N_7  and  C_8
REMARK    6  A    between atoms: C_21  and  C_22
REMARK                            x       y       z     vdW  Elec       q    Type
REMARK                         _______ _______ _______ _____ _____    ______ ____
ROOT
ATOM      1  C   UNL     1       0.991   9.568  19.707  0.00  0.00    +0.000 A 
ATOM      2  C   UNL     1       1.218  10.094  20.974  0.00  0.00    +0.000 A 
ATOM      3  C   UNL     1       0.308  10.994  21.534  0.00  0.00    +0.000 A 
ATOM      4  C   UNL     1      -0.835  11.396  20.862  0.00  0.00    +0.000 A 
ATOM      5  N   UNL     1      -1.668  12.215  21.501  0.00  0.00    +0.000 NA
ATOM      6  C   UNL     1      -2.805  12.583  20.905  0.00  0.00    +0.000 A 
ATOM      7  N   UNL     1      -3.662  13.409  21.575  0.00  0.00    +0.000 N 
ATOM      8  C   UNL     1      -3.348  13.936  22.902  0.00  0.00    +0.000 C 
ATOM      9  C   UNL     1      -3.550  15.470  22.910  0.00  0.00    +0.000 C 
ATOM     10  N   UNL     1      -4.879  15.898  22.425  0.00  0.00    +0.000 NA
ATOM     11  C   UNL     1      -5.123  15.321  21.086  0.00  0.00    +0.000 C 
ATOM     12  C   UNL     1      -4.960  13.784  21.032  0.00  0.00    +0.000 C 
ATOM     13  N   UNL     1      -3.122  12.175  19.670  0.00  0.00    +0.000 NA
ATOM     14  C   UNL     1      -2.269  11.364  19.002  0.00  0.00    +0.000 A 
ATOM     15  C   UNL     1      -1.067  10.911  19.576  0.00  0.00    +0.000 A 
ATOM     16  C   UNL     1      -0.128   9.998  19.008  0.00  0.00    +0.000 A 
ATOM     17  H   UNL     1      -4.891  16.914  22.352  0.00  0.00    +0.000 HD
ENDROOT
BRANCH  14  18
ATOM     18  C   UNL     1      -2.758  10.967  17.655  0.00  0.00    +0.000 A 
ATOM     19  C   UNL     1      -3.938  11.490  17.090  0.00  0.00    +0.000 A 
ATOM     20  C   UNL     1      -4.312  11.208  15.775  0.00  0.00    +0.000 A 
ATOM     21  C   UNL     1      -3.565  10.314  15.018  0.00  0.00    +0.000 A 
ATOM     22  C   UNL     1      -2.444   9.709  15.577  0.00  0.00    +0.000 A 
ATOM     23  C   UNL     1      -2.039  10.041  16.875  0.00  0.00    +0.000 A 
ENDBRANCH  14  18
BRANCH   1  26
ATOM     24  C   UNL     1       2.073   7.352  19.645  0.00  0.00    +0.000 C 
ATOM     25  O   UNL     1       1.641   6.910  20.711  0.00  0.00    +0.000 OA
ATOM     26  N   UNL     1       1.810   8.590  19.111  0.00  0.00    +0.000 N 
ATOM     27  H   UNL     1       2.039   8.713  18.128  0.00  0.00    +0.000 HD
BRANCH  24  28
ATOM     28  C   UNL     1       2.919   6.462  18.761  0.00  0.00    +0.000 C 
BRANCH  28  29
ATOM     29  C   UNL     1       3.661   5.429  19.614  0.00  0.00    +0.000 C 
BRANCH  29  30
ATOM     30  C   UNL     1       5.090   5.163  19.142  0.00  0.00    +0.000 C 
BRANCH  30  31
ATOM     31  N   UNL     1       5.373   3.729  19.137  0.00  0.00    +0.000 NA
ATOM     32  H   UNL     1       5.152   3.356  18.211  0.00  0.00    +0.000 HD
ATOM     33  H   UNL     1       4.726   3.265  19.776  0.00  0.00    +0.000 HD
ENDBRANCH  30  31
ENDBRANCH  29  30
ENDBRANCH  28  29
ENDBRANCH  24  28
ENDBRANCH   1  26
TORSDOF 6
ENDMDL
MODEL 6
REMARK VINA RESULT:      -6.2      3.017      9.945
REMARK  Name = 
REMARK  6 active torsions:
REMARK  status: ('A' for Active; 'I' for Inactive)
REMARK    1  A    between atoms: N_1  and  C_2
REMARK    2  A    between atoms: C_2  and  C_3
REMARK    3  A    between atoms: C_3  and  C_4
REMARK    4  A    between atoms: C_4  and  C_5
REMARK    5  A    between atoms: N_7  and  C_8
REMARK    6  A    between atoms: C_21  and  C_22
REMARK                            x       y       z     vdW  Elec       q    Type
REMARK                         _______ _______ _______ _____ _____    ______ ____
ROOT
ATOM      1  C   UNL     1       1.355   8.443  20.747  0.00  0.00    +0.000 A 
ATOM      2  C   UNL     1       0.331   7.965  21.556  0.00  0.00    +0.000 A 
ATOM      3  C   UNL     1      -0.576   8.854  22.139  0.00  0.00    +0.000 A 
ATOM      4  C   UNL     1      -0.492  10.223  21.943  0.00  0.00    +0.000 A 
ATOM      5  N   UNL     1      -1.435  10.982  22.498  0.00  0.00    +0.000 NA
ATOM      6  C   UNL     1      -1.417  12.301  22.287  0.00  0.00    +0.000 A 
ATOM      7  N   UNL     1      -2.398  13.069  22.845  0.00  0.00    +0.000 N 
ATOM      8  C   UNL     1      -3.437  12.497  23.700  0.00  0.00    +0.000 C 
ATOM      9  C   UNL     1      -3.528  13.307  25.015  0.00  0.00    +0.000 C 
ATOM     10  N   UNL     1      -3.695  14.761  24.809  0.00  0.00    +0.000 NA
ATOM     11  C   UNL     1      -2.614  15.260  23.933  0.00  0.00    +0.000 C 
ATOM     12  C   UNL     1      -2.500  14.500  22.591  0.00  0.00    +0.000 C 
ATOM     13  N   UNL     1      -0.461  12.889  21.557  0.00  0.00    +0.000 NA
ATOM     14  C   UNL     1       0.517  12.128  21.012  0.00  0.00    +0.000 A 
ATOM     15  C   UNL     1       0.548  10.729  21.165  0.00  0.00    +0.000 A 
ATOM     16  C   UNL     1       1.474   9.816  20.580  0.00  0.00    +0.000 A 
ATOM     17  H   UNL     1      -3.630  15.230  25.710  0.00  0.00    +0.000 HD
ENDROOT
BRANCH  14  18
ATOM     18  C   UNL     1       1.495  12.906  20.205  0.00  0.00    +0.000 A 
ATOM     19  C   UNL     1       2.499  13.702  20.788  0.00  0.00    +0.000 A 
ATOM     20  C   UNL     1       3.488  14.320  20.020  0.00  0.00    +0.000 A 
ATOM     21  C   UNL     1       3.441  14.237  18.634  0.00  0.00    +0.000 A 
ATOM     22  C   UNL     1       2.409  13.534  18.021  0.00  0.00    +0.000 A 
ATOM     23  C   UNL     1       1.455  12.867  18.798  0.00  0.00    +0.000 A 
ENDBRANCH  14  18
BRANCH   1  26
ATOM     24  C   UNL     1       2.371   7.549  18.684  0.00  0.00    +0.000 C 
ATOM     25  O   UNL     1       1.722   8.202  17.865  0.00  0.00    +0.000 OA
ATOM     26  N   UNL     1       2.253   7.610  20.052  0.00  0.00    +0.000 N 
ATOM     27  H   UNL     1       3.012   7.198  20.587  0.00  0.00    +0.000 HD
BRANCH  24  28
ATOM     28  C   UNL     1       3.470   6.630  18.197  0.00  0.00    +0.000 C 
BRANCH  28  29
ATOM     29  C   UNL     1       3.832   5.621  19.291  0.00  0.00    +0.000 C 
BRANCH  29  30
ATOM     30  C   UNL     1       5.297   5.184  19.255  0.00  0.00    +0.000 C 
BRANCH  30  31
ATOM     31  N   UNL     1       5.398   3.736  19.084  0.00  0.00    +0.000 NA
ATOM     32  H   UNL     1       6.278   3.419  19.495  0.00  0.00    +0.000 HD
ATOM     33  H   UNL     1       5.474   3.528  18.087  0.00  0.00    +0.000 HD
ENDBRANCH  30  31
ENDBRANCH  29  30
ENDBRANCH  28  29
ENDBRANCH  24  28
ENDBRANCH   1  26
TORSDOF 6
ENDMDL
MODEL 7
REMARK VINA RESULT:      -6.1      2.997      9.563
REMARK  Name = 
REMARK  6 active torsions:
REMARK  status: ('A' for Active; 'I' for Inactive)
REMARK    1  A    between atoms: N_1  and  C_2
REMARK    2  A    between atoms: C_2  and  C_3
REMARK    3  A    between atoms: C_3  and  C_4
REMARK    4  A    between atoms: C_4  and  C_5
REMARK    5  A    between atoms: N_7  and  C_8
REMARK    6  A    between atoms: C_21  and  C_22
REMARK                            x       y       z     vdW  Elec       q    Type
REMARK                         _______ _______ _______ _____ _____    ______ ____
ROOT
ATOM      1  C   UNL     1       1.184   8.500  20.683  0.00  0.00    +0.000 A 
ATOM      2  C   UNL     1       1.568   8.945  21.943  0.00  0.00    +0.000 A 
ATOM      3  C   UNL     1       0.979  10.086  22.493  0.00  0.00    +0.000 A 
ATOM      4  C   UNL     1       0.008  10.810  21.820  0.00  0.00    +0.000 A 
ATOM      5  N   UNL     1      -0.531  11.851  22.450  0.00  0.00    +0.000 NA
ATOM      6  C   UNL     1      -1.507  12.541  21.853  0.00  0.00    +0.000 A 
ATOM      7  N   UNL     1      -2.066  13.596  22.515  0.00  0.00    +0.000 N 
ATOM      8  C   UNL     1      -1.599  14.017  23.835  0.00  0.00    +0.000 C 
ATOM      9  C   UNL     1      -1.325  15.539  23.824  0.00  0.00    +0.000 C 
ATOM     10  N   UNL     1      -2.463  16.347  23.336  0.00  0.00    +0.000 NA
ATOM     11  C   UNL     1      -2.879  15.856  22.005  0.00  0.00    +0.000 C 
ATOM     12  C   UNL     1      -3.192  14.343  21.970  0.00  0.00    +0.000 C 
ATOM     13  N   UNL     1      -1.940  12.236  20.624  0.00  0.00    +0.000 NA
ATOM     14  C   UNL     1      -1.378  11.195  19.964  0.00  0.00    +0.000 A 
ATOM     15  C   UNL     1      -0.368  10.404  20.540  0.00  0.00    +0.000 A 
ATOM     16  C   UNL     1       0.245   9.243  19.982  0.00  0.00    +0.000 A 
ATOM     17  H   UNL     1      -2.165  17.317  23.251  0.00  0.00    +0.000 HD
ENDROOT
BRANCH  14  18
ATOM     18  C   UNL     1      -1.974  10.952  18.623  0.00  0.00    +0.000 A 
ATOM     19  C   UNL     1      -1.369  10.120  17.661  0.00  0.00    +0.000 A 
ATOM     20  C   UNL     1      -2.005   9.798  16.461  0.00  0.00    +0.000 A 
ATOM     21  C   UNL     1      -3.226  10.380  16.146  0.00  0.00    +0.000 A 
ATOM     22  C   UNL     1      -3.809  11.278  17.035  0.00  0.00    +0.000 A 
ATOM     23  C   UNL     1      -3.197  11.551  18.262  0.00  0.00    +0.000 A 
ENDBRANCH  14  18
BRANCH   1  26
ATOM     24  C   UNL     1       2.410   7.249  18.945  0.00  0.00    +0.000 C 
ATOM     25  O   UNL     1       2.772   8.205  18.257  0.00  0.00    +0.000 OA
ATOM     26  N   UNL     1       1.662   7.312  20.097  0.00  0.00    +0.000 N 
ATOM     27  H   UNL     1       1.651   6.474  20.672  0.00  0.00    +0.000 HD
BRANCH  24  28
ATOM     28  C   UNL     1       2.864   5.854  18.577  0.00  0.00    +0.000 C 
BRANCH  28  29
ATOM     29  C   UNL     1       3.970   5.394  19.532  0.00  0.00    +0.000 C 
BRANCH  29  30
ATOM     30  C   UNL     1       5.176   4.784  18.817  0.00  0.00    +0.000 C 
BRANCH  30  31
ATOM     31  N   UNL     1       5.279   3.356  19.109  0.00  0.00    +0.000 NA
ATOM     32  H   UNL     1       5.441   3.237  20.111  0.00  0.00    +0.000 HD
ATOM     33  H   UNL     1       6.117   2.988  18.655  0.00  0.00    +0.000 HD
ENDBRANCH  30  31
ENDBRANCH  29  30
ENDBRANCH  28  29
ENDBRANCH  24  28
ENDBRANCH   1  26
TORSDOF 6
ENDMDL
MODEL 8
REMARK VINA RESULT:      -6.1      3.411     10.076
REMARK  Name = 
REMARK  6 active torsions:
REMARK  status: ('A' for Active; 'I' for Inactive)
REMARK    1  A    between atoms: N_1  and  C_2
REMARK    2  A    between atoms: C_2  and  C_3
REMARK    3  A    between atoms: C_3  and  C_4
REMARK    4  A    between atoms: C_4  and  C_5
REMARK    5  A    between atoms: N_7  and  C_8
REMARK    6  A    between atoms: C_21  and  C_22
REMARK                            x       y       z     vdW  Elec       q    Type
REMARK                         _______ _______ _______ _____ _____    ______ ____
ROOT
ATOM      1  C   UNL     1       0.824   8.892  21.661  0.00  0.00    +0.000 A 
ATOM      2  C   UNL     1      -0.154   8.731  22.636  0.00  0.00    +0.000 A 
ATOM      3  C   UNL     1      -0.848   9.841  23.124  0.00  0.00    +0.000 A 
ATOM      4  C   UNL     1      -0.594  11.125  22.669  0.00  0.00    +0.000 A 
ATOM      5  N   UNL     1      -1.345  12.110  23.157  0.00  0.00    +0.000 NA
ATOM      6  C   UNL     1      -1.163  13.354  22.703  0.00  0.00    +0.000 A 
ATOM      7  N   UNL     1      -1.951  14.354  23.196  0.00  0.00    +0.000 N 
ATOM      8  C   UNL     1      -2.952  14.112  24.234  0.00  0.00    +0.000 C 
ATOM      9  C   UNL     1      -2.769  15.137  25.378  0.00  0.00    +0.000 C 
ATOM     10  N   UNL     1      -2.749  16.543  24.921  0.00  0.00    +0.000 NA
ATOM     11  C   UNL     1      -1.720  16.704  23.871  0.00  0.00    +0.000 C 
ATOM     12  C   UNL     1      -1.877  15.719  22.690  0.00  0.00    +0.000 C 
ATOM     13  N   UNL     1      -0.228  13.646  21.793  0.00  0.00    +0.000 NA
ATOM     14  C   UNL     1       0.560  12.655  21.311  0.00  0.00    +0.000 A 
ATOM     15  C   UNL     1       0.408  11.317  21.719  0.00  0.00    +0.000 A 
ATOM     16  C   UNL     1       1.117  10.179  21.231  0.00  0.00    +0.000 A 
ATOM     17  H   UNL     1      -2.511  17.141  25.709  0.00  0.00    +0.000 HD
ENDROOT
BRANCH  14  18
ATOM     18  C   UNL     1       1.535  13.116  20.288  0.00  0.00    +0.000 A 
ATOM     19  C   UNL     1       1.382  12.845  18.915  0.00  0.00    +0.000 A 
ATOM     20  C   UNL     1       2.235  13.396  17.955  0.00  0.00    +0.000 A 
ATOM     21  C   UNL     1       3.326  14.156  18.354  0.00  0.00    +0.000 A 
ATOM     22  C   UNL     1       3.559  14.368  19.709  0.00  0.00    +0.000 A 
ATOM     23  C   UNL     1       2.668  13.864  20.663  0.00  0.00    +0.000 A 
ENDBRANCH  14  18
BRANCH   1  26
ATOM     24  C   UNL     1       1.894   7.779  19.737  0.00  0.00    +0.000 C 
ATOM     25  O   UNL     1       1.714   8.661  18.895  0.00  0.00    +0.000 OA
ATOM     26  N   UNL     1       1.504   7.819  21.054  0.00  0.00    +0.000 N 
ATOM     27  H   UNL     1       1.931   7.133  21.671  0.00  0.00    +0.000 HD
BRANCH  24  28
ATOM     28  C   UNL     1       2.681   6.543  19.361  0.00  0.00    +0.000 C 
BRANCH  28  29
ATOM     29  C   UNL     1       2.296   5.378  20.278  0.00  0.00    +0.000 C 
BRANCH  29  30
ATOM     30  C   UNL     1       1.694   4.188  19.530  0.00  0.00    +0.000 C 
BRANCH  30  31
ATOM     31  N   UNL     1       0.590   3.608  20.290  0.00  0.00    +0.000 NA
ATOM     32  H   UNL     1       0.301   4.275  21.009  0.00  0.00    +0.000 HD
ATOM     33  H   UNL     1       0.934   2.793  20.801  0.00  0.00    +0.000 HD
ENDBRANCH  30  31
ENDBRANCH  29  30
ENDBRANCH  28  29
ENDBRANCH  24  28
ENDBRANCH   1  26
TORSDOF 6
ENDMDL
MODEL 9
REMARK VINA RESULT:      -6.1      2.961      9.444
REMARK  Name = 
REMARK  6 active torsions:
REMARK  status: ('A' for Active; 'I' for Inactive)
REMARK    1  A    between atoms: N_1  and  C_2
REMARK    2  A    between atoms: C_2  and  C_3
REMARK    3  A    between atoms: C_3  and  C_4
REMARK    4  A    between atoms: C_4  and  C_5
REMARK    5  A    between atoms: N_7  and  C_8
REMARK    6  A    between atoms: C_21  and  C_22
REMARK                            x       y       z     vdW  Elec       q    Type
REMARK                         _______ _______ _______ _____ _____    ______ ____
ROOT
ATOM      1  C   UNL     1       1.128   8.448  20.964  0.00  0.00    +0.000 A 
ATOM      2  C   UNL     1       1.494   8.904  22.225  0.00  0.00    +0.000 A 
ATOM      3  C   UNL     1       0.929  10.073  22.740  0.00  0.00    +0.000 A 
ATOM      4  C   UNL     1       0.000  10.816  22.028  0.00  0.00    +0.000 A 
ATOM      5  N   UNL     1      -0.521  11.885  22.626  0.00  0.00    +0.000 NA
ATOM      6  C   UNL     1      -1.457  12.596  21.991  0.00  0.00    +0.000 A 
ATOM      7  N   UNL     1      -1.999  13.680  22.620  0.00  0.00    +0.000 N 
ATOM      8  C   UNL     1      -1.552  14.110  23.944  0.00  0.00    +0.000 C 
ATOM      9  C   UNL     1      -1.227  15.622  23.914  0.00  0.00    +0.000 C 
ATOM     10  N   UNL     1      -2.325  16.457  23.383  0.00  0.00    +0.000 NA
ATOM     11  C   UNL     1      -2.723  15.956  22.050  0.00  0.00    +0.000 C 
ATOM     12  C   UNL     1      -3.085  14.453  22.033  0.00  0.00    +0.000 C 
ATOM     13  N   UNL     1      -1.869  12.282  20.757  0.00  0.00    +0.000 NA
ATOM     14  C   UNL     1      -1.325  11.212  20.131  0.00  0.00    +0.000 A 
ATOM     15  C   UNL     1      -0.356  10.399  20.747  0.00  0.00    +0.000 A 
ATOM     16  C   UNL     1       0.232   9.208  20.225  0.00  0.00    +0.000 A 
ATOM     17  H   UNL     1      -1.993  17.415  23.288  0.00  0.00    +0.000 HD
ENDROOT
BRANCH  14  18
ATOM     18  C   UNL     1      -1.894  10.963  18.779  0.00  0.00    +0.000 A 
ATOM     19  C   UNL     1      -1.262  10.140  17.827  0.00  0.00    +0.000 A 
ATOM     20  C   UNL     1      -1.873   9.812  16.615  0.00  0.00    +0.000 A 
ATOM     21  C   UNL     1      -3.095  10.381  16.279  0.00  0.00    +0.000 A 
ATOM     22  C   UNL     1      -3.704  11.271  17.158  0.00  0.00    +0.000 A 
ATOM     23  C   UNL     1      -3.116  11.549  18.397  0.00  0.00    +0.000 A 
ENDBRANCH  14  18
BRANCH   1  26
ATOM     24  C   UNL     1       2.315   7.124  19.254  0.00  0.00    +0.000 C 
ATOM     25  O   UNL     1       2.683   8.051  18.531  0.00  0.00    +0.000 OA
ATOM     26  N   UNL     1       1.582   7.235  20.411  0.00  0.00    +0.000 N 
ATOM     27  H   UNL     1       1.565   6.416  21.013  0.00  0.00    +0.000 HD
BRANCH  24  28
ATOM     28  C   UNL     1       2.744   5.711  18.926  0.00  0.00    +0.000 C 
BRANCH  28  29
ATOM     29  C   UNL     1       1.850   4.708  19.660  0.00  0.00    +0.000 C 
BRANCH  29  30
ATOM     30  C   UNL     1       1.461   3.500  18.807  0.00  0.00    +0.000 C 
BRANCH  30  31
ATOM     31  N   UNL     1       1.247   3.899  17.417  0.00  0.00    +0.000 NA
ATOM     32  H   UNL     1       2.011   4.516  17.133  0.00  0.00    +0.000 HD
ATOM     33  H   UNL     1       0.403   4.472  17.366  0.00  0.00    +0.000 HD
ENDBRANCH  30  31
ENDBRANCH  29  30
ENDBRANCH  28  29
ENDBRANCH  24  28
ENDBRANCH   1  26
TORSDOF 6
ENDMDL
