MODEL 1
REMARK VINA RESULT:      -8.2      0.000      0.000
REMARK  Name = 
REMARK  5 active torsions:
REMARK  status: ('A' for Active; 'I' for Inactive)
REMARK    1  A    between atoms: O_1  and  C_2
REMARK    2  A    between atoms: C_8  and  C_9
REMARK    3  A    between atoms: C_9  and  C_10
REMARK    4  A    between atoms: C_9  and  N_18
REMARK    5  A    between atoms: C_11  and  C_12
REMARK                            x       y       z     vdW  Elec       q    Type
REMARK                         _______ _______ _______ _____ _____    ______ ____
ROOT
ATOM      1  C   UNL     1       3.966   4.774  19.249  0.00  0.00    +0.000 C 
ENDROOT
BRANCH   1   8
ATOM      2  C   UNL     1       6.431   4.909  18.527  0.00  0.00    +0.000 A 
ATOM      3  C   UNL     1       7.447   4.844  17.570  0.00  0.00    +0.000 A 
ATOM      4  C   UNL     1       7.127   4.627  16.231  0.00  0.00    +0.000 A 
ATOM      5  C   UNL     1       5.797   4.455  15.864  0.00  0.00    +0.000 A 
ATOM      6 CL   UNL     1       5.394   4.249  14.204  0.00  0.00    +0.000 Cl
ATOM      7  C   UNL     1       4.787   4.468  16.828  0.00  0.00    +0.000 A 
ATOM      8  C   UNL     1       5.082   4.710  18.189  0.00  0.00    +0.000 A 
BRANCH   2   9
ATOM      9  O   UNL     1       6.765   5.170  19.827  0.00  0.00    +0.000 OA
ATOM     10  H   UNL     1       5.983   5.509  20.295  0.00  0.00    +0.000 HD
ENDBRANCH   2   9
ENDBRANCH   1   8
BRANCH   1  11
ATOM     11  N   UNL     1       3.020   3.619  19.179  0.00  0.00    +0.000 NA
ATOM     12  C   UNL     1       1.859   3.767  20.098  0.00  0.00    +0.000 C 
ATOM     13  C   UNL     1       2.226   3.647  21.587  0.00  0.00    +0.000 C 
ATOM     14  O   UNL     1       2.809   2.368  21.862  0.00  0.00    +0.000 OA
ATOM     15  C   UNL     1       3.965   2.149  21.043  0.00  0.00    +0.000 C 
ATOM     16  C   UNL     1       3.651   2.323  19.542  0.00  0.00    +0.000 C 
ENDBRANCH   1  11
BRANCH   1  17
ATOM     17  C   UNL     1       3.232   6.064  19.090  0.00  0.00    +0.000 C 
ATOM     18  C   UNL     1       2.600   7.087  19.065  0.00  0.00    +0.000 C 
BRANCH  18  19
ATOM     19  C   UNL     1       1.816   8.286  19.147  0.00  0.00    +0.000 A 
ATOM     20  C   UNL     1       1.589   9.051  17.998  0.00  0.00    +0.000 A 
ATOM     21  C   UNL     1       0.800  10.205  18.067  0.00  0.00    +0.000 A 
ATOM     22  C   UNL     1       0.243  10.594  19.284  0.00  0.00    +0.000 A 
ATOM     23  C   UNL     1       0.464   9.829  20.430  0.00  0.00    +0.000 A 
ATOM     24  C   UNL     1       1.249   8.675  20.362  0.00  0.00    +0.000 A 
ENDBRANCH  18  19
ENDBRANCH   1  17
TORSDOF 5
ENDMDL
MODEL 2
REMARK VINA RESULT:      -8.2      0.043      1.009
REMARK  Name = 
REMARK  5 active torsions:
REMARK  status: ('A' for Active; 'I' for Inactive)
REMARK    1  A    between atoms: O_1  and  C_2
REMARK    2  A    between atoms: C_8  and  C_9
REMARK    3  A    between atoms: C_9  and  C_10
REMARK    4  A    between atoms: C_9  and  N_18
REMARK    5  A    between atoms: C_11  and  C_12
REMARK                            x       y       z     vdW  Elec       q    Type
REMARK                         _______ _______ _______ _____ _____    ______ ____
ROOT
ATOM      1  C   UNL     1       3.954   4.778  19.240  0.00  0.00    +0.000 C 
ENDROOT
BRANCH   1   8
ATOM      2  C   UNL     1       6.422   4.909  18.524  0.00  0.00    +0.000 A 
ATOM      3  C   UNL     1       7.440   4.841  17.570  0.00  0.00    +0.000 A 
ATOM      4  C   UNL     1       7.123   4.621  16.231  0.00  0.00    +0.000 A 
ATOM      5  C   UNL     1       5.794   4.451  15.860  0.00  0.00    +0.000 A 
ATOM      6 CL   UNL     1       5.396   4.241  14.199  0.00  0.00    +0.000 Cl
ATOM      7  C   UNL     1       4.782   4.467  16.822  0.00  0.00    +0.000 A 
ATOM      8  C   UNL     1       5.073   4.711  18.183  0.00  0.00    +0.000 A 
BRANCH   2   9
ATOM      9  O   UNL     1       6.753   5.172  19.824  0.00  0.00    +0.000 OA
ATOM     10  H   UNL     1       7.712   5.056  19.938  0.00  0.00    +0.000 HD
ENDBRANCH   2   9
ENDBRANCH   1   8
BRANCH   1  11
ATOM     11  N   UNL     1       3.012   3.621  19.174  0.00  0.00    +0.000 NA
ATOM     12  C   UNL     1       1.855   3.765  20.099  0.00  0.00    +0.000 C 
ATOM     13  C   UNL     1       2.230   3.645  21.586  0.00  0.00    +0.000 C 
ATOM     14  O   UNL     1       2.818   2.368  21.858  0.00  0.00    +0.000 OA
ATOM     15  C   UNL     1       3.971   2.153  21.033  0.00  0.00    +0.000 C 
ATOM     16  C   UNL     1       3.648   2.326  19.534  0.00  0.00    +0.000 C 
ENDBRANCH   1  11
BRANCH   1  17
ATOM     17  C   UNL     1       3.218   6.065  19.072  0.00  0.00    +0.000 C 
ATOM     18  C   UNL     1       2.587   7.089  19.041  0.00  0.00    +0.000 C 
BRANCH  18  19
ATOM     19  C   UNL     1       1.810   8.292  19.118  0.00  0.00    +0.000 A 
ATOM     20  C   UNL     1       1.252   8.685  20.340  0.00  0.00    +0.000 A 
ATOM     21  C   UNL     1       0.518   9.874  20.427  0.00  0.00    +0.000 A 
ATOM     22  C   UNL     1       0.339  10.664  19.293  0.00  0.00    +0.000 A 
ATOM     23  C   UNL     1       0.898  10.276  18.075  0.00  0.00    +0.000 A 
ATOM     24  C   UNL     1       1.635   9.092  17.987  0.00  0.00    +0.000 A 
ENDBRANCH  18  19
ENDBRANCH   1  17
TORSDOF 5
ENDMDL
MODEL 3
REMARK VINA RESULT:      -8.0      1.113      1.564
REMARK  Name = 
REMARK  5 active torsions:
REMARK  status: ('A' for Active; 'I' for Inactive)
REMARK    1  A    between atoms: O_1  and  C_2
REMARK    2  A    between atoms: C_8  and  C_9
REMARK    3  A    between atoms: C_9  and  C_10
REMARK    4  A    between atoms: C_9  and  N_18
REMARK    5  A    between atoms: C_11  and  C_12
REMARK                            x       y       z     vdW  Elec       q    Type
REMARK                         _______ _______ _______ _____ _____    ______ ____
ROOT
ATOM      1  C   UNL     1       3.659   4.507  18.320  0.00  0.00    +0.000 C 
ENDROOT
BRANCH   1   8
ATOM      2  C   UNL     1       6.219   4.751  18.257  0.00  0.00    +0.000 A 
ATOM      3  C   UNL     1       7.447   4.760  17.590  0.00  0.00    +0.000 A 
ATOM      4  C   UNL     1       7.487   4.591  16.207  0.00  0.00    +0.000 A 
ATOM      5  C   UNL     1       6.303   4.394  15.506  0.00  0.00    +0.000 A 
ATOM      6 CL   UNL     1       6.344   4.248  13.792  0.00  0.00    +0.000 Cl
ATOM      7  C   UNL     1       5.082   4.334  16.180  0.00  0.00    +0.000 A 
ATOM      8  C   UNL     1       5.010   4.525  17.579  0.00  0.00    +0.000 A 
BRANCH   2   9
ATOM      9  O   UNL     1       6.202   4.965  19.607  0.00  0.00    +0.000 OA
ATOM     10  H   UNL     1       5.379   5.426  19.846  0.00  0.00    +0.000 HD
ENDBRANCH   2   9
ENDBRANCH   1   8
BRANCH   1  11
ATOM     11  N   UNL     1       2.640   3.634  17.664  0.00  0.00    +0.000 NA
ATOM     12  C   UNL     1       1.269   3.842  18.206  0.00  0.00    +0.000 C 
ATOM     13  C   UNL     1       1.086   3.333  19.646  0.00  0.00    +0.000 C 
ATOM     14  O   UNL     1       1.350   1.928  19.722  0.00  0.00    +0.000 OA
ATOM     15  C   UNL     1       2.672   1.633  19.253  0.00  0.00    +0.000 C 
ATOM     16  C   UNL     1       2.916   2.183  17.832  0.00  0.00    +0.000 C 
ENDBRANCH   1  11
BRANCH   1  17
ATOM     17  C   UNL     1       3.159   5.908  18.429  0.00  0.00    +0.000 C 
ATOM     18  C   UNL     1       2.677   7.000  18.588  0.00  0.00    +0.000 C 
BRANCH  18  19
ATOM     19  C   UNL     1       2.031   8.252  18.858  0.00  0.00    +0.000 A 
ATOM     20  C   UNL     1       1.431   8.473  20.102  0.00  0.00    +0.000 A 
ATOM     21  C   UNL     1       0.826   9.704  20.381  0.00  0.00    +0.000 A 
ATOM     22  C   UNL     1       0.818  10.709  19.415  0.00  0.00    +0.000 A 
ATOM     23  C   UNL     1       1.421  10.491  18.175  0.00  0.00    +0.000 A 
ATOM     24  C   UNL     1       2.029   9.265  17.897  0.00  0.00    +0.000 A 
ENDBRANCH  18  19
ENDBRANCH   1  17
TORSDOF 5
ENDMDL
MODEL 4
REMARK VINA RESULT:      -7.9      1.144      1.238
REMARK  Name = 
REMARK  5 active torsions:
REMARK  status: ('A' for Active; 'I' for Inactive)
REMARK    1  A    between atoms: O_1  and  C_2
REMARK    2  A    between atoms: C_8  and  C_9
REMARK    3  A    between atoms: C_9  and  C_10
REMARK    4  A    between atoms: C_9  and  N_18
REMARK    5  A    between atoms: C_11  and  C_12
REMARK                            x       y       z     vdW  Elec       q    Type
REMARK                         _______ _______ _______ _____ _____    ______ ____
ROOT
ATOM      1  C   UNL     1       3.613   4.446  18.233  0.00  0.00    +0.000 C 
ENDROOT
BRANCH   1   8
ATOM      2  C   UNL     1       6.169   4.719  18.122  0.00  0.00    +0.000 A 
ATOM      3  C   UNL     1       7.384   4.739  17.432  0.00  0.00    +0.000 A 
ATOM      4  C   UNL     1       7.401   4.565  16.050  0.00  0.00    +0.000 A 
ATOM      5  C   UNL     1       6.206   4.351  15.372  0.00  0.00    +0.000 A 
ATOM      6 CL   UNL     1       6.217   4.197  13.658  0.00  0.00    +0.000 Cl
ATOM      7  C   UNL     1       4.998   4.279  16.068  0.00  0.00    +0.000 A 
ATOM      8  C   UNL     1       4.950   4.476  17.467  0.00  0.00    +0.000 A 
BRANCH   2   9
ATOM      9  O   UNL     1       6.173   4.940  19.471  0.00  0.00    +0.000 OA
ATOM     10  H   UNL     1       5.272   5.161  19.761  0.00  0.00    +0.000 HD
ENDBRANCH   2   9
ENDBRANCH   1   8
BRANCH   1  11
ATOM     11  N   UNL     1       2.612   3.513  17.634  0.00  0.00    +0.000 NA
ATOM     12  C   UNL     1       1.236   3.727  18.160  0.00  0.00    +0.000 C 
ATOM     13  C   UNL     1       1.060   3.309  19.629  0.00  0.00    +0.000 C 
ATOM     14  O   UNL     1       1.353   1.917  19.796  0.00  0.00    +0.000 OA
ATOM     15  C   UNL     1       2.681   1.619  19.348  0.00  0.00    +0.000 C 
ATOM     16  C   UNL     1       2.917   2.081  17.894  0.00  0.00    +0.000 C 
ENDBRANCH   1  11
BRANCH   1  17
ATOM     17  C   UNL     1       3.068   5.834  18.292  0.00  0.00    +0.000 C 
ATOM     18  C   UNL     1       2.619   6.939  18.450  0.00  0.00    +0.000 C 
BRANCH  18  19
ATOM     19  C   UNL     1       2.086   8.235  18.755  0.00  0.00    +0.000 A 
ATOM     20  C   UNL     1       2.184   9.268  17.816  0.00  0.00    +0.000 A 
ATOM     21  C   UNL     1       1.638  10.527  18.096  0.00  0.00    +0.000 A 
ATOM     22  C   UNL     1       1.002  10.751  19.316  0.00  0.00    +0.000 A 
ATOM     23  C   UNL     1       0.899   9.720  20.251  0.00  0.00    +0.000 A 
ATOM     24  C   UNL     1       1.439   8.463  19.971  0.00  0.00    +0.000 A 
ENDBRANCH  18  19
ENDBRANCH   1  17
TORSDOF 5
ENDMDL
MODEL 5
REMARK VINA RESULT:      -7.5      2.414      2.910
REMARK  Name = 
REMARK  5 active torsions:
REMARK  status: ('A' for Active; 'I' for Inactive)
REMARK    1  A    between atoms: O_1  and  C_2
REMARK    2  A    between atoms: C_8  and  C_9
REMARK    3  A    between atoms: C_9  and  C_10
REMARK    4  A    between atoms: C_9  and  N_18
REMARK    5  A    between atoms: C_11  and  C_12
REMARK                            x       y       z     vdW  Elec       q    Type
REMARK                         _______ _______ _______ _____ _____    ______ ____
ROOT
ATOM      1  C   UNL     1       3.534   5.243  18.822  0.00  0.00    +0.000 C 
ENDROOT
BRANCH   1   8
ATOM      2  C   UNL     1       5.307   6.478  17.427  0.00  0.00    +0.000 A 
ATOM      3  C   UNL     1       6.613   6.912  17.186  0.00  0.00    +0.000 A 
ATOM      4  C   UNL     1       7.638   6.541  18.054  0.00  0.00    +0.000 A 
ATOM      5  C   UNL     1       7.346   5.758  19.165  0.00  0.00    +0.000 A 
ATOM      6 CL   UNL     1       8.620   5.247  20.203  0.00  0.00    +0.000 Cl
ATOM      7  C   UNL     1       6.033   5.369  19.433  0.00  0.00    +0.000 A 
ATOM      8  C   UNL     1       4.978   5.711  18.557  0.00  0.00    +0.000 A 
BRANCH   2   9
ATOM      9  O   UNL     1       4.326   6.816  16.536  0.00  0.00    +0.000 OA
ATOM     10  H   UNL     1       3.668   7.375  16.983  0.00  0.00    +0.000 HD
ENDBRANCH   2   9
ENDBRANCH   1   8
BRANCH   1  11
ATOM     11  N   UNL     1       2.914   4.553  17.652  0.00  0.00    +0.000 NA
ATOM     12  C   UNL     1       1.488   4.194  17.882  0.00  0.00    +0.000 C 
ATOM     13  C   UNL     1       1.289   3.073  18.916  0.00  0.00    +0.000 C 
ATOM     14  O   UNL     1       1.953   1.875  18.497  0.00  0.00    +0.000 OA
ATOM     15  C   UNL     1       3.350   2.116  18.283  0.00  0.00    +0.000 C 
ATOM     16  C   UNL     1       3.592   3.278  17.297  0.00  0.00    +0.000 C 
ENDBRANCH   1  11
BRANCH   1  17
ATOM     17  C   UNL     1       2.718   6.425  19.227  0.00  0.00    +0.000 C 
ATOM     18  C   UNL     1       2.102   7.366  19.657  0.00  0.00    +0.000 C 
BRANCH  18  19
ATOM     19  C   UNL     1       1.425   8.470  20.272  0.00  0.00    +0.000 A 
ATOM     20  C   UNL     1       1.235   8.488  21.658  0.00  0.00    +0.000 A 
ATOM     21  C   UNL     1       0.602   9.578  22.267  0.00  0.00    +0.000 A 
ATOM     22  C   UNL     1       0.156  10.645  21.489  0.00  0.00    +0.000 A 
ATOM     23  C   UNL     1       0.349  10.631  20.106  0.00  0.00    +0.000 A 
ATOM     24  C   UNL     1       0.984   9.546  19.498  0.00  0.00    +0.000 A 
ENDBRANCH  18  19
ENDBRANCH   1  17
TORSDOF 5
ENDMDL
MODEL 6
REMARK VINA RESULT:      -7.5      2.446      2.758
REMARK  Name = 
REMARK  5 active torsions:
REMARK  status: ('A' for Active; 'I' for Inactive)
REMARK    1  A    between atoms: O_1  and  C_2
REMARK    2  A    between atoms: C_8  and  C_9
REMARK    3  A    between atoms: C_9  and  C_10
REMARK    4  A    between atoms: C_9  and  N_18
REMARK    5  A    between atoms: C_11  and  C_12
REMARK                            x       y       z     vdW  Elec       q    Type
REMARK                         _______ _______ _______ _____ _____    ______ ____
ROOT
ATOM      1  C   UNL     1       3.580   5.193  18.769  0.00  0.00    +0.000 C 
ENDROOT
BRANCH   1   8
ATOM      2  C   UNL     1       5.336   6.523  17.441  0.00  0.00    +0.000 A 
ATOM      3  C   UNL     1       6.634   6.996  17.231  0.00  0.00    +0.000 A 
ATOM      4  C   UNL     1       7.660   6.614  18.094  0.00  0.00    +0.000 A 
ATOM      5  C   UNL     1       7.376   5.781  19.169  0.00  0.00    +0.000 A 
ATOM      6 CL   UNL     1       8.652   5.258  20.199  0.00  0.00    +0.000 Cl
ATOM      7  C   UNL     1       6.069   5.351  19.409  0.00  0.00    +0.000 A 
ATOM      8  C   UNL     1       5.015   5.704  18.536  0.00  0.00    +0.000 A 
BRANCH   2   9
ATOM      9  O   UNL     1       4.355   6.874  16.555  0.00  0.00    +0.000 OA
ATOM     10  H   UNL     1       3.674   6.180  16.542  0.00  0.00    +0.000 HD
ENDBRANCH   2   9
ENDBRANCH   1   8
BRANCH   1  11
ATOM     11  N   UNL     1       2.989   4.530  17.568  0.00  0.00    +0.000 NA
ATOM     12  C   UNL     1       1.546   4.208  17.738  0.00  0.00    +0.000 C 
ATOM     13  C   UNL     1       1.275   3.084  18.753  0.00  0.00    +0.000 C 
ATOM     14  O   UNL     1       1.923   1.872  18.349  0.00  0.00    +0.000 OA
ATOM     15  C   UNL     1       3.333   2.076  18.194  0.00  0.00    +0.000 C 
ATOM     16  C   UNL     1       3.646   3.239  17.229  0.00  0.00    +0.000 C 
ENDBRANCH   1  11
BRANCH   1  17
ATOM     17  C   UNL     1       2.731   6.340  19.205  0.00  0.00    +0.000 C 
ATOM     18  C   UNL     1       2.126   7.288  19.634  0.00  0.00    +0.000 C 
BRANCH  18  19
ATOM     19  C   UNL     1       1.497   8.438  20.217  0.00  0.00    +0.000 A 
ATOM     20  C   UNL     1       1.107   9.507  19.403  0.00  0.00    +0.000 A 
ATOM     21  C   UNL     1       0.465  10.618  19.963  0.00  0.00    +0.000 A 
ATOM     22  C   UNL     1       0.218  10.660  21.334  0.00  0.00    +0.000 A 
ATOM     23  C   UNL     1       0.602   9.592  22.146  0.00  0.00    +0.000 A 
ATOM     24  C   UNL     1       1.239   8.481  21.589  0.00  0.00    +0.000 A 
ENDBRANCH  18  19
ENDBRANCH   1  17
TORSDOF 5
ENDMDL
MODEL 7
REMARK VINA RESULT:      -7.4      2.739      4.617
REMARK  Name = 
REMARK  5 active torsions:
REMARK  status: ('A' for Active; 'I' for Inactive)
REMARK    1  A    between atoms: O_1  and  C_2
REMARK    2  A    between atoms: C_8  and  C_9
REMARK    3  A    between atoms: C_9  and  C_10
REMARK    4  A    between atoms: C_9  and  N_18
REMARK    5  A    between atoms: C_11  and  C_12
REMARK                            x       y       z     vdW  Elec       q    Type
REMARK                         _______ _______ _______ _____ _____    ______ ____
ROOT
ATOM      1  C   UNL     1       3.485   5.569  17.695  0.00  0.00    +0.000 C 
ENDROOT
BRANCH   1   8
ATOM      2  C   UNL     1       2.234   3.322  17.740  0.00  0.00    +0.000 A 
ATOM      3  C   UNL     1       1.662   2.235  18.406  0.00  0.00    +0.000 A 
ATOM      4  C   UNL     1       1.647   2.205  19.800  0.00  0.00    +0.000 A 
ATOM      5  C   UNL     1       2.222   3.250  20.514  0.00  0.00    +0.000 A 
ATOM      6 CL   UNL     1       2.150   3.245  22.233  0.00  0.00    +0.000 Cl
ATOM      7  C   UNL     1       2.839   4.310  19.847  0.00  0.00    +0.000 A 
ATOM      8  C   UNL     1       2.847   4.377  18.435  0.00  0.00    +0.000 A 
BRANCH   2   9
ATOM      9  O   UNL     1       2.194   3.352  16.373  0.00  0.00    +0.000 OA
ATOM     10  H   UNL     1       2.521   2.504  16.027  0.00  0.00    +0.000 HD
ENDBRANCH   2   9
ENDBRANCH   1   8
BRANCH   1  11
ATOM     11  N   UNL     1       4.969   5.632  17.848  0.00  0.00    +0.000 NA
ATOM     12  C   UNL     1       5.599   6.649  16.962  0.00  0.00    +0.000 C 
ATOM     13  C   UNL     1       5.556   6.283  15.468  0.00  0.00    +0.000 C 
ATOM     14  O   UNL     1       6.243   5.048  15.232  0.00  0.00    +0.000 OA
ATOM     15  C   UNL     1       5.679   3.993  16.020  0.00  0.00    +0.000 C 
ATOM     16  C   UNL     1       5.646   4.348  17.522  0.00  0.00    +0.000 C 
ENDBRANCH   1  11
BRANCH   1  17
ATOM     17  C   UNL     1       2.853   6.828  18.189  0.00  0.00    +0.000 C 
ATOM     18  C   UNL     1       2.250   7.782  18.606  0.00  0.00    +0.000 C 
BRANCH  18  19
ATOM     19  C   UNL     1       1.442   8.847  19.127  0.00  0.00    +0.000 A 
ATOM     20  C   UNL     1       0.943   9.830  18.266  0.00  0.00    +0.000 A 
ATOM     21  C   UNL     1       0.128  10.854  18.764  0.00  0.00    +0.000 A 
ATOM     22  C   UNL     1      -0.181  10.895  20.123  0.00  0.00    +0.000 A 
ATOM     23  C   UNL     1       0.312   9.912  20.983  0.00  0.00    +0.000 A 
ATOM     24  C   UNL     1       1.121   8.888  20.486  0.00  0.00    +0.000 A 
ENDBRANCH  18  19
ENDBRANCH   1  17
TORSDOF 5
ENDMDL
MODEL 8
REMARK VINA RESULT:      -7.3      0.908      1.018
REMARK  Name = 
REMARK  5 active torsions:
REMARK  status: ('A' for Active; 'I' for Inactive)
REMARK    1  A    between atoms: O_1  and  C_2
REMARK    2  A    between atoms: C_8  and  C_9
REMARK    3  A    between atoms: C_9  and  C_10
REMARK    4  A    between atoms: C_9  and  N_18
REMARK    5  A    between atoms: C_11  and  C_12
REMARK                            x       y       z     vdW  Elec       q    Type
REMARK                         _______ _______ _______ _____ _____    ______ ____
ROOT
ATOM      1  C   UNL     1       4.341   4.608  18.278  0.00  0.00    +0.000 C 
ENDROOT
BRANCH   1   8
ATOM      2  C   UNL     1       6.596   5.109  17.147  0.00  0.00    +0.000 A 
ATOM      3  C   UNL     1       7.451   5.128  16.042  0.00  0.00    +0.000 A 
ATOM      4  C   UNL     1       6.984   4.714  14.796  0.00  0.00    +0.000 A 
ATOM      5  C   UNL     1       5.673   4.267  14.669  0.00  0.00    +0.000 A 
ATOM      6 CL   UNL     1       5.076   3.816  13.120  0.00  0.00    +0.000 Cl
ATOM      7  C   UNL     1       4.836   4.200  15.784  0.00  0.00    +0.000 A 
ATOM      8  C   UNL     1       5.277   4.635  17.054  0.00  0.00    +0.000 A 
BRANCH   2   9
ATOM      9  O   UNL     1       7.063   5.563  18.349  0.00  0.00    +0.000 OA
ATOM     10  H   UNL     1       7.983   5.861  18.242  0.00  0.00    +0.000 HD
ENDBRANCH   2   9
ENDBRANCH   1   8
BRANCH   1  11
ATOM     11  N   UNL     1       3.397   3.450  18.272  0.00  0.00    +0.000 NA
ATOM     12  C   UNL     1       2.225   3.656  19.167  0.00  0.00    +0.000 C 
ATOM     13  C   UNL     1       2.575   3.633  20.664  0.00  0.00    +0.000 C 
ATOM     14  O   UNL     1       3.156   2.375  21.028  0.00  0.00    +0.000 OA
ATOM     15  C   UNL     1       4.321   2.105  20.238  0.00  0.00    +0.000 C 
ATOM     16  C   UNL     1       4.024   2.181  18.726  0.00  0.00    +0.000 C 
ENDBRANCH   1  11
BRANCH   1  17
ATOM     17  C   UNL     1       3.591   5.897  18.331  0.00  0.00    +0.000 C 
ATOM     18  C   UNL     1       2.959   6.910  18.479  0.00  0.00    +0.000 C 
BRANCH  18  19
ATOM     19  C   UNL     1       2.192   8.087  18.769  0.00  0.00    +0.000 A 
ATOM     20  C   UNL     1       2.029   9.073  17.789  0.00  0.00    +0.000 A 
ATOM     21  C   UNL     1       1.256  10.208  18.056  0.00  0.00    +0.000 A 
ATOM     22  C   UNL     1       0.651  10.359  19.303  0.00  0.00    +0.000 A 
ATOM     23  C   UNL     1       0.808   9.374  20.280  0.00  0.00    +0.000 A 
ATOM     24  C   UNL     1       1.576   8.238  20.013  0.00  0.00    +0.000 A 
ENDBRANCH  18  19
ENDBRANCH   1  17
TORSDOF 5
ENDMDL
MODEL 9
REMARK VINA RESULT:      -7.3      2.767      4.765
REMARK  Name = 
REMARK  5 active torsions:
REMARK  status: ('A' for Active; 'I' for Inactive)
REMARK    1  A    between atoms: O_1  and  C_2
REMARK    2  A    between atoms: C_8  and  C_9
REMARK    3  A    between atoms: C_9  and  C_10
REMARK    4  A    between atoms: C_9  and  N_18
REMARK    5  A    between atoms: C_11  and  C_12
REMARK                            x       y       z     vdW  Elec       q    Type
REMARK                         _______ _______ _______ _____ _____    ______ ____
ROOT
ATOM      1  C   UNL     1       3.440   5.588  17.713  0.00  0.00    +0.000 C 
ENDROOT
BRANCH   1   8
ATOM      2  C   UNL     1       2.227   3.319  17.750  0.00  0.00    +0.000 A 
ATOM      3  C   UNL     1       1.675   2.220  18.413  0.00  0.00    +0.000 A 
ATOM      4  C   UNL     1       1.662   2.185  19.807  0.00  0.00    +0.000 A 
ATOM      5  C   UNL     1       2.219   3.237  20.524  0.00  0.00    +0.000 A 
ATOM      6 CL   UNL     1       2.149   3.224  22.243  0.00  0.00    +0.000 Cl
ATOM      7  C   UNL     1       2.818   4.310  19.861  0.00  0.00    +0.000 A 
ATOM      8  C   UNL     1       2.823   4.382  18.449  0.00  0.00    +0.000 A 
BRANCH   2   9
ATOM      9  O   UNL     1       2.186   3.354  16.384  0.00  0.00    +0.000 OA
ATOM     10  H   UNL     1       1.677   2.590  16.062  0.00  0.00    +0.000 HD
ENDBRANCH   2   9
ENDBRANCH   1   8
BRANCH   1  11
ATOM     11  N   UNL     1       4.926   5.659  17.842  0.00  0.00    +0.000 NA
ATOM     12  C   UNL     1       5.515   6.806  17.099  0.00  0.00    +0.000 C 
ATOM     13  C   UNL     1       5.444   6.657  15.569  0.00  0.00    +0.000 C 
ATOM     14  O   UNL     1       6.148   5.485  15.143  0.00  0.00    +0.000 OA
ATOM     15  C   UNL     1       5.622   4.315  15.784  0.00  0.00    +0.000 C 
ATOM     16  C   UNL     1       5.618   4.451  17.321  0.00  0.00    +0.000 C 
ENDBRANCH   1  11
BRANCH   1  17
ATOM     17  C   UNL     1       2.807   6.835  18.233  0.00  0.00    +0.000 C 
ATOM     18  C   UNL     1       2.232   7.776  18.716  0.00  0.00    +0.000 C 
BRANCH  18  19
ATOM     19  C   UNL     1       1.490   8.819  19.362  0.00  0.00    +0.000 A 
ATOM     20  C   UNL     1       1.131   8.690  20.708  0.00  0.00    +0.000 A 
ATOM     21  C   UNL     1       0.433   9.719  21.352  0.00  0.00    +0.000 A 
ATOM     22  C   UNL     1       0.092  10.873  20.647  0.00  0.00    +0.000 A 
ATOM     23  C   UNL     1       0.454  11.005  19.305  0.00  0.00    +0.000 A 
ATOM     24  C   UNL     1       1.153   9.981  18.663  0.00  0.00    +0.000 A 
ENDBRANCH  18  19
ENDBRANCH   1  17
TORSDOF 5
ENDMDL
