MODEL 1
REMARK VINA RESULT:      -8.2      0.000      0.000
REMARK  Name = 
REMARK  7 active torsions:
REMARK  status: ('A' for Active; 'I' for Inactive)
REMARK    1  A    between atoms: C_1  and  O_2
REMARK    2  A    between atoms: O_2  and  C_3
REMARK    3  A    between atoms: C_6  and  C_7
REMARK    4  A    between atoms: N_19  and  C_20
REMARK    5  A    between atoms: C_20  and  C_21
REMARK    6  A    between atoms: C_33  and  O_34
REMARK    7  A    between atoms: O_34  and  C_35
REMARK                            x       y       z     vdW  Elec       q    Type
REMARK                         _______ _______ _______ _____ _____    ______ ____
ROOT
ATOM      1  C   UNL     1       2.222   6.314  20.035  0.00  0.00    +0.000 A 
ATOM      2  C   UNL     1       1.654   5.577  21.059  0.00  0.00    +0.000 A 
ATOM      3  N   UNL     1       2.113   4.362  21.439  0.00  0.00    +0.000 NA
ATOM      4  C   UNL     1       3.160   3.857  20.777  0.00  0.00    +0.000 A 
ATOM      5  N   UNL     1       3.584   2.659  21.169  0.00  0.00    +0.000 NA
ATOM      6  C   UNL     1       4.591   2.133  20.494  0.00  0.00    +0.000 A 
ATOM      7  N   UNL     1       5.064   0.891  20.895  0.00  0.00    +0.000 N 
ATOM      8  N   UNL     1       5.235   2.728  19.507  0.00  0.00    +0.000 NA
ATOM      9  C   UNL     1       4.839   3.961  19.138  0.00  0.00    +0.000 A 
ATOM     10  N   UNL     1       5.619   4.552  18.162  0.00  0.00    +0.000 N 
ATOM     11  C   UNL     1       5.803   6.003  18.041  0.00  0.00    +0.000 C 
ATOM     12  C   UNL     1       7.203   6.290  17.422  0.00  0.00    +0.000 C 
ATOM     13  N   UNL     1       7.519   5.553  16.165  0.00  0.00    +0.000 NA
ATOM     14  C   UNL     1       7.267   4.108  16.414  0.00  0.00    +0.000 C 
ATOM     15  C   UNL     1       5.858   3.777  16.945  0.00  0.00    +0.000 C 
ATOM     16  C   UNL     1       3.753   4.593  19.746  0.00  0.00    +0.000 A 
ATOM     17  N   UNL     1       3.278   5.816  19.364  0.00  0.00    +0.000 NA
ATOM     18  H   UNL     1       4.838   0.735  21.864  0.00  0.00    +0.000 HD
ATOM     19  H   UNL     1       6.033   0.804  20.620  0.00  0.00    +0.000 HD
ENDROOT
BRANCH   1  23
ATOM     20  C   UNL     1       0.786  10.176  18.808  0.00  0.00    +0.000 A 
ATOM     21  C   UNL     1       1.462   9.343  17.904  0.00  0.00    +0.000 A 
ATOM     22  C   UNL     1       1.921   8.083  18.294  0.00  0.00    +0.000 A 
ATOM     23  C   UNL     1       1.766   7.640  19.615  0.00  0.00    +0.000 A 
ATOM     24  C   UNL     1       1.182   8.527  20.528  0.00  0.00    +0.000 A 
ATOM     25  C   UNL     1       0.696   9.787  20.150  0.00  0.00    +0.000 A 
BRANCH  20  27
ATOM     26  C   UNL     1      -1.176  11.328  18.181  0.00  0.00    +0.000 C 
ATOM     27  O   UNL     1       0.236  11.360  18.397  0.00  0.00    +0.000 OA
ENDBRANCH  20  27
BRANCH  25  28
ATOM     28  O   UNL     1       0.168  10.448  21.223  0.00  0.00    +0.000 OA
ATOM     29  C   UNL     1      -0.203   9.720  22.380  0.00  0.00    +0.000 C 
ENDBRANCH  25  28
ENDBRANCH   1  23
BRANCH  13  30
ATOM     30  C   UNL     1       6.717   6.094  15.049  0.00  0.00    +0.000 C 
BRANCH  30  31
ATOM     31  C   UNL     1       6.542   5.151  13.882  0.00  0.00    +0.000 A 
ATOM     32  C   UNL     1       5.383   4.374  13.740  0.00  0.00    +0.000 A 
ATOM     33  C   UNL     1       5.246   3.497  12.659  0.00  0.00    +0.000 A 
ATOM     34  C   UNL     1       6.260   3.393  11.706  0.00  0.00    +0.000 A 
ATOM     35  C   UNL     1       7.418   4.153  11.842  0.00  0.00    +0.000 A 
ATOM     36  C   UNL     1       7.554   5.014  12.926  0.00  0.00    +0.000 A 
ATOM     37  F   UNL     1       8.688   5.720  13.045  0.00  0.00    +0.000 F 
ENDBRANCH  30  31
ENDBRANCH  13  30
TORSDOF 5
ENDMDL
MODEL 2
REMARK VINA RESULT:      -8.1      5.766      9.214
REMARK  Name = 
REMARK  7 active torsions:
REMARK  status: ('A' for Active; 'I' for Inactive)
REMARK    1  A    between atoms: C_1  and  O_2
REMARK    2  A    between atoms: O_2  and  C_3
REMARK    3  A    between atoms: C_6  and  C_7
REMARK    4  A    between atoms: N_19  and  C_20
REMARK    5  A    between atoms: C_20  and  C_21
REMARK    6  A    between atoms: C_33  and  O_34
REMARK    7  A    between atoms: O_34  and  C_35
REMARK                            x       y       z     vdW  Elec       q    Type
REMARK                         _______ _______ _______ _____ _____    ______ ____
ROOT
ATOM      1  C   UNL     1       1.003   8.807  20.727  0.00  0.00    +0.000 A 
ATOM      2  C   UNL     1       0.057   8.427  21.664  0.00  0.00    +0.000 A 
ATOM      3  N   UNL     1      -0.639   9.314  22.413  0.00  0.00    +0.000 NA
ATOM      4  C   UNL     1      -0.384  10.614  22.235  0.00  0.00    +0.000 A 
ATOM      5  N   UNL     1      -1.079  11.461  22.989  0.00  0.00    +0.000 NA
ATOM      6  C   UNL     1      -0.805  12.746  22.852  0.00  0.00    +0.000 A 
ATOM      7  N   UNL     1      -1.530  13.651  23.614  0.00  0.00    +0.000 N 
ATOM      8  N   UNL     1       0.060  13.249  21.989  0.00  0.00    +0.000 NA
ATOM      9  C   UNL     1       0.732  12.397  21.191  0.00  0.00    +0.000 A 
ATOM     10  N   UNL     1       1.550  13.006  20.256  0.00  0.00    +0.000 N 
ATOM     11  C   UNL     1       1.868  12.412  18.952  0.00  0.00    +0.000 C 
ATOM     12  C   UNL     1       2.126  13.551  17.922  0.00  0.00    +0.000 C 
ATOM     13  N   UNL     1       3.102  14.597  18.343  0.00  0.00    +0.000 NA
ATOM     14  C   UNL     1       2.681  15.093  19.681  0.00  0.00    +0.000 C 
ATOM     15  C   UNL     1       2.501  13.999  20.752  0.00  0.00    +0.000 C 
ATOM     16  C   UNL     1       0.561  11.016  21.285  0.00  0.00    +0.000 A 
ATOM     17  N   UNL     1       1.265  10.114  20.539  0.00  0.00    +0.000 NA
ATOM     18  H   UNL     1      -2.413  13.246  23.879  0.00  0.00    +0.000 HD
ATOM     19  H   UNL     1      -1.547  14.543  23.139  0.00  0.00    +0.000 HD
ENDROOT
BRANCH   1  23
ATOM     20  C   UNL     1       3.297   6.088  18.313  0.00  0.00    +0.000 A 
ATOM     21  C   UNL     1       2.900   7.335  17.807  0.00  0.00    +0.000 A 
ATOM     22  C   UNL     1       2.164   8.226  18.591  0.00  0.00    +0.000 A 
ATOM     23  C   UNL     1       1.756   7.876  19.885  0.00  0.00    +0.000 A 
ATOM     24  C   UNL     1       2.073   6.588  20.334  0.00  0.00    +0.000 A 
ATOM     25  C   UNL     1       2.829   5.687  19.570  0.00  0.00    +0.000 A 
BRANCH  20  27
ATOM     26  C   UNL     1       4.968   5.928  16.654  0.00  0.00    +0.000 C 
ATOM     27  O   UNL     1       4.115   5.263  17.588  0.00  0.00    +0.000 OA
ENDBRANCH  20  27
BRANCH  25  28
ATOM     28  O   UNL     1       3.004   4.508  20.238  0.00  0.00    +0.000 OA
ATOM     29  C   UNL     1       2.058   4.110  21.214  0.00  0.00    +0.000 C 
ENDBRANCH  25  28
ENDBRANCH   1  23
BRANCH  13  30
ATOM     30  C   UNL     1       4.469  14.040  18.339  0.00  0.00    +0.000 C 
BRANCH  30  31
ATOM     31  C   UNL     1       5.572  15.072  18.383  0.00  0.00    +0.000 A 
ATOM     32  C   UNL     1       5.369  16.332  18.963  0.00  0.00    +0.000 A 
ATOM     33  C   UNL     1       6.398  17.278  18.981  0.00  0.00    +0.000 A 
ATOM     34  C   UNL     1       7.642  16.974  18.427  0.00  0.00    +0.000 A 
ATOM     35  C   UNL     1       7.852  15.729  17.839  0.00  0.00    +0.000 A 
ATOM     36  C   UNL     1       6.820  14.797  17.814  0.00  0.00    +0.000 A 
ATOM     37  F   UNL     1       7.041  13.613  17.224  0.00  0.00    +0.000 F 
ENDBRANCH  30  31
ENDBRANCH  13  30
TORSDOF 5
ENDMDL
MODEL 3
REMARK VINA RESULT:      -7.7      6.025      9.708
REMARK  Name = 
REMARK  7 active torsions:
REMARK  status: ('A' for Active; 'I' for Inactive)
REMARK    1  A    between atoms: C_1  and  O_2
REMARK    2  A    between atoms: O_2  and  C_3
REMARK    3  A    between atoms: C_6  and  C_7
REMARK    4  A    between atoms: N_19  and  C_20
REMARK    5  A    between atoms: C_20  and  C_21
REMARK    6  A    between atoms: C_33  and  O_34
REMARK    7  A    between atoms: O_34  and  C_35
REMARK                            x       y       z     vdW  Elec       q    Type
REMARK                         _______ _______ _______ _____ _____    ______ ____
ROOT
ATOM      1  C   UNL     1       0.878   9.022  20.714  0.00  0.00    +0.000 A 
ATOM      2  C   UNL     1      -0.096   8.552  21.579  0.00  0.00    +0.000 A 
ATOM      3  N   UNL     1      -0.848   9.364  22.358  0.00  0.00    +0.000 NA
ATOM      4  C   UNL     1      -0.621  10.680  22.285  0.00  0.00    +0.000 A 
ATOM      5  N   UNL     1      -1.371  11.452  23.067  0.00  0.00    +0.000 NA
ATOM      6  C   UNL     1      -1.127  12.751  23.034  0.00  0.00    +0.000 A 
ATOM      7  N   UNL     1      -1.908  13.580  23.827  0.00  0.00    +0.000 N 
ATOM      8  N   UNL     1      -0.241  13.336  22.248  0.00  0.00    +0.000 NA
ATOM      9  C   UNL     1       0.488  12.562  21.421  0.00  0.00    +0.000 A 
ATOM     10  N   UNL     1       1.326  13.256  20.569  0.00  0.00    +0.000 N 
ATOM     11  C   UNL     1       1.716  12.766  19.241  0.00  0.00    +0.000 C 
ATOM     12  C   UNL     1       1.985  13.983  18.307  0.00  0.00    +0.000 C 
ATOM     13  N   UNL     1       2.913  15.019  18.845  0.00  0.00    +0.000 NA
ATOM     14  C   UNL     1       2.422  15.407  20.195  0.00  0.00    +0.000 C 
ATOM     15  C   UNL     1       2.229  14.234  21.176  0.00  0.00    +0.000 C 
ATOM     16  C   UNL     1       0.352  11.173  21.409  0.00  0.00    +0.000 A 
ATOM     17  N   UNL     1       1.111  10.345  20.632  0.00  0.00    +0.000 NA
ATOM     18  H   UNL     1      -2.790  13.135  24.022  0.00  0.00    +0.000 HD
ATOM     19  H   UNL     1      -1.930  14.503  23.416  0.00  0.00    +0.000 HD
ENDROOT
BRANCH   1  23
ATOM     20  C   UNL     1       3.348   6.551  18.210  0.00  0.00    +0.000 A 
ATOM     21  C   UNL     1       2.835   7.767  17.734  0.00  0.00    +0.000 A 
ATOM     22  C   UNL     1       2.041   8.579  18.547  0.00  0.00    +0.000 A 
ATOM     23  C   UNL     1       1.691   8.173  19.841  0.00  0.00    +0.000 A 
ATOM     24  C   UNL     1       2.127   6.910  20.262  0.00  0.00    +0.000 A 
ATOM     25  C   UNL     1       2.942   6.090  19.468  0.00  0.00    +0.000 A 
BRANCH  20  27
ATOM     26  C   UNL     1       4.962   6.557  16.487  0.00  0.00    +0.000 C 
ATOM     27  O   UNL     1       4.219   5.812  17.455  0.00  0.00    +0.000 OA
ENDBRANCH  20  27
BRANCH  25  28
ATOM     28  O   UNL     1       3.230   4.921  20.111  0.00  0.00    +0.000 OA
ATOM     29  C   UNL     1       2.254   4.320  20.943  0.00  0.00    +0.000 C 
ENDBRANCH  25  28
ENDBRANCH   1  23
BRANCH  13  30
ATOM     30  C   UNL     1       4.294  14.499  18.861  0.00  0.00    +0.000 C 
BRANCH  30  31
ATOM     31  C   UNL     1       5.319  15.443  19.445  0.00  0.00    +0.000 A 
ATOM     32  C   UNL     1       5.744  16.581  18.745  0.00  0.00    +0.000 A 
ATOM     33  C   UNL     1       6.704  17.435  19.297  0.00  0.00    +0.000 A 
ATOM     34  C   UNL     1       7.245  17.165  20.556  0.00  0.00    +0.000 A 
ATOM     35  C   UNL     1       6.837  16.032  21.255  0.00  0.00    +0.000 A 
ATOM     36  C   UNL     1       5.890  15.180  20.694  0.00  0.00    +0.000 A 
ATOM     37  F   UNL     1       5.529  14.085  21.379  0.00  0.00    +0.000 F 
ENDBRANCH  30  31
ENDBRANCH  13  30
TORSDOF 5
ENDMDL
MODEL 4
REMARK VINA RESULT:      -7.7      5.973      9.692
REMARK  Name = 
REMARK  7 active torsions:
REMARK  status: ('A' for Active; 'I' for Inactive)
REMARK    1  A    between atoms: C_1  and  O_2
REMARK    2  A    between atoms: O_2  and  C_3
REMARK    3  A    between atoms: C_6  and  C_7
REMARK    4  A    between atoms: N_19  and  C_20
REMARK    5  A    between atoms: C_20  and  C_21
REMARK    6  A    between atoms: C_33  and  O_34
REMARK    7  A    between atoms: O_34  and  C_35
REMARK                            x       y       z     vdW  Elec       q    Type
REMARK                         _______ _______ _______ _____ _____    ______ ____
ROOT
ATOM      1  C   UNL     1       0.923   8.892  20.716  0.00  0.00    +0.000 A 
ATOM      2  C   UNL     1      -0.017   8.403  21.607  0.00  0.00    +0.000 A 
ATOM      3  N   UNL     1      -0.779   9.201  22.391  0.00  0.00    +0.000 NA
ATOM      4  C   UNL     1      -0.596  10.523  22.297  0.00  0.00    +0.000 A 
ATOM      5  N   UNL     1      -1.354  11.280  23.085  0.00  0.00    +0.000 NA
ATOM      6  C   UNL     1      -1.151  12.585  23.032  0.00  0.00    +0.000 A 
ATOM      7  N   UNL     1      -1.943  13.399  23.830  0.00  0.00    +0.000 N 
ATOM      8  N   UNL     1      -0.301  13.188  22.221  0.00  0.00    +0.000 NA
ATOM      9  C   UNL     1       0.435  12.427  21.388  0.00  0.00    +0.000 A 
ATOM     10  N   UNL     1       1.234  13.136  20.511  0.00  0.00    +0.000 N 
ATOM     11  C   UNL     1       1.612  12.642  19.181  0.00  0.00    +0.000 C 
ATOM     12  C   UNL     1       1.824  13.855  18.228  0.00  0.00    +0.000 C 
ATOM     13  N   UNL     1       2.729  14.927  18.733  0.00  0.00    +0.000 NA
ATOM     14  C   UNL     1       2.254  15.316  20.088  0.00  0.00    +0.000 C 
ATOM     15  C   UNL     1       2.117  14.149  21.087  0.00  0.00    +0.000 C 
ATOM     16  C   UNL     1       0.343  11.035  21.395  0.00  0.00    +0.000 A 
ATOM     17  N   UNL     1       1.113  10.221  20.613  0.00  0.00    +0.000 NA
ATOM     18  H   UNL     1      -2.806  12.930  24.049  0.00  0.00    +0.000 HD
ATOM     19  H   UNL     1      -2.002  14.317  23.409  0.00  0.00    +0.000 HD
ENDROOT
BRANCH   1  23
ATOM     20  C   UNL     1       3.417   6.461  18.197  0.00  0.00    +0.000 A 
ATOM     21  C   UNL     1       2.955   7.710  17.756  0.00  0.00    +0.000 A 
ATOM     22  C   UNL     1       2.154   8.509  18.575  0.00  0.00    +0.000 A 
ATOM     23  C   UNL     1       1.745   8.059  19.837  0.00  0.00    +0.000 A 
ATOM     24  C   UNL     1       2.131   6.767  20.217  0.00  0.00    +0.000 A 
ATOM     25  C   UNL     1       2.952   5.959  19.419  0.00  0.00    +0.000 A 
BRANCH  20  27
ATOM     26  C   UNL     1       5.123   6.498  16.566  0.00  0.00    +0.000 C 
ATOM     27  O   UNL     1       4.295   5.730  17.442  0.00  0.00    +0.000 OA
ENDBRANCH  20  27
BRANCH  25  28
ATOM     28  O   UNL     1       3.185   4.755  20.020  0.00  0.00    +0.000 OA
ATOM     29  C   UNL     1       2.285   4.279  21.004  0.00  0.00    +0.000 C 
ENDBRANCH  25  28
ENDBRANCH   1  23
BRANCH  13  30
ATOM     30  C   UNL     1       4.126  14.450  18.727  0.00  0.00    +0.000 C 
BRANCH  30  31
ATOM     31  C   UNL     1       5.104  15.349  19.447  0.00  0.00    +0.000 A 
ATOM     32  C   UNL     1       5.796  14.910  20.585  0.00  0.00    +0.000 A 
ATOM     33  C   UNL     1       6.687  15.762  21.245  0.00  0.00    +0.000 A 
ATOM     34  C   UNL     1       6.901  17.058  20.773  0.00  0.00    +0.000 A 
ATOM     35  C   UNL     1       6.212  17.507  19.649  0.00  0.00    +0.000 A 
ATOM     36  C   UNL     1       5.318  16.658  19.004  0.00  0.00    +0.000 A 
ATOM     37  F   UNL     1       4.652  17.122  17.936  0.00  0.00    +0.000 F 
ENDBRANCH  30  31
ENDBRANCH  13  30
TORSDOF 5
ENDMDL
MODEL 5
REMARK VINA RESULT:      -7.6      0.791      1.135
REMARK  Name = 
REMARK  7 active torsions:
REMARK  status: ('A' for Active; 'I' for Inactive)
REMARK    1  A    between atoms: C_1  and  O_2
REMARK    2  A    between atoms: O_2  and  C_3
REMARK    3  A    between atoms: C_6  and  C_7
REMARK    4  A    between atoms: N_19  and  C_20
REMARK    5  A    between atoms: C_20  and  C_21
REMARK    6  A    between atoms: C_33  and  O_34
REMARK    7  A    between atoms: O_34  and  C_35
REMARK                            x       y       z     vdW  Elec       q    Type
REMARK                         _______ _______ _______ _____ _____    ______ ____
ROOT
ATOM      1  C   UNL     1       2.215   6.313  20.022  0.00  0.00    +0.000 A 
ATOM      2  C   UNL     1       1.644   5.583  21.050  0.00  0.00    +0.000 A 
ATOM      3  N   UNL     1       2.105   4.373  21.443  0.00  0.00    +0.000 NA
ATOM      4  C   UNL     1       3.157   3.866  20.792  0.00  0.00    +0.000 A 
ATOM      5  N   UNL     1       3.583   2.673  21.197  0.00  0.00    +0.000 NA
ATOM      6  C   UNL     1       4.595   2.144  20.532  0.00  0.00    +0.000 A 
ATOM      7  N   UNL     1       5.071   0.908  20.947  0.00  0.00    +0.000 N 
ATOM      8  N   UNL     1       5.244   2.733  19.544  0.00  0.00    +0.000 NA
ATOM      9  C   UNL     1       4.845   3.961  19.161  0.00  0.00    +0.000 A 
ATOM     10  N   UNL     1       5.628   4.545  18.183  0.00  0.00    +0.000 N 
ATOM     11  C   UNL     1       5.809   5.996  18.051  0.00  0.00    +0.000 C 
ATOM     12  C   UNL     1       7.211   6.282  17.437  0.00  0.00    +0.000 C 
ATOM     13  N   UNL     1       7.536   5.534  16.188  0.00  0.00    +0.000 NA
ATOM     14  C   UNL     1       7.288   4.091  16.449  0.00  0.00    +0.000 C 
ATOM     15  C   UNL     1       5.877   3.760  16.975  0.00  0.00    +0.000 C 
ATOM     16  C   UNL     1       3.754   4.594  19.757  0.00  0.00    +0.000 A 
ATOM     17  N   UNL     1       3.277   5.812  19.361  0.00  0.00    +0.000 NA
ATOM     18  H   UNL     1       4.840   0.759  21.916  0.00  0.00    +0.000 HD
ATOM     19  H   UNL     1       6.042   0.821  20.679  0.00  0.00    +0.000 HD
ENDROOT
BRANCH   1  23
ATOM     20  C   UNL     1       0.773  10.159  18.756  0.00  0.00    +0.000 A 
ATOM     21  C   UNL     1       1.418   9.303  17.851  0.00  0.00    +0.000 A 
ATOM     22  C   UNL     1       1.879   8.048  18.254  0.00  0.00    +0.000 A 
ATOM     23  C   UNL     1       1.757   7.633  19.587  0.00  0.00    +0.000 A 
ATOM     24  C   UNL     1       1.205   8.543  20.498  0.00  0.00    +0.000 A 
ATOM     25  C   UNL     1       0.717   9.799  20.108  0.00  0.00    +0.000 A 
BRANCH  20  27
ATOM     26  C   UNL     1      -1.194  11.305  18.131  0.00  0.00    +0.000 C 
ATOM     27  O   UNL     1       0.220  11.339  18.335  0.00  0.00    +0.000 OA
ENDBRANCH  20  27
BRANCH  25  28
ATOM     28  O   UNL     1       0.225  10.485  21.181  0.00  0.00    +0.000 OA
ATOM     29  C   UNL     1      -0.176   9.778  22.340  0.00  0.00    +0.000 C 
ENDBRANCH  25  28
ENDBRANCH   1  23
BRANCH  13  30
ATOM     30  C   UNL     1       6.739   6.062  15.064  0.00  0.00    +0.000 C 
BRANCH  30  31
ATOM     31  C   UNL     1       6.629   5.135  13.876  0.00  0.00    +0.000 A 
ATOM     32  C   UNL     1       7.638   5.071  12.904  0.00  0.00    +0.000 A 
ATOM     33  C   UNL     1       7.510   4.216  11.805  0.00  0.00    +0.000 A 
ATOM     34  C   UNL     1       6.378   3.411  11.668  0.00  0.00    +0.000 A 
ATOM     35  C   UNL     1       5.366   3.474  12.622  0.00  0.00    +0.000 A 
ATOM     36  C   UNL     1       5.493   4.336  13.707  0.00  0.00    +0.000 A 
ATOM     37  F   UNL     1       4.495   4.392  14.600  0.00  0.00    +0.000 F 
ENDBRANCH  30  31
ENDBRANCH  13  30
TORSDOF 5
ENDMDL
MODEL 6
REMARK VINA RESULT:      -7.5      6.733      9.814
REMARK  Name = 
REMARK  7 active torsions:
REMARK  status: ('A' for Active; 'I' for Inactive)
REMARK    1  A    between atoms: C_1  and  O_2
REMARK    2  A    between atoms: O_2  and  C_3
REMARK    3  A    between atoms: C_6  and  C_7
REMARK    4  A    between atoms: N_19  and  C_20
REMARK    5  A    between atoms: C_20  and  C_21
REMARK    6  A    between atoms: C_33  and  O_34
REMARK    7  A    between atoms: O_34  and  C_35
REMARK                            x       y       z     vdW  Elec       q    Type
REMARK                         _______ _______ _______ _____ _____    ______ ____
ROOT
ATOM      1  C   UNL     1       1.018  12.444  18.973  0.00  0.00    +0.000 A 
ATOM      2  C   UNL     1      -0.266  12.963  18.969  0.00  0.00    +0.000 A 
ATOM      3  N   UNL     1      -0.526  14.292  18.962  0.00  0.00    +0.000 NA
ATOM      4  C   UNL     1       0.515  15.130  18.970  0.00  0.00    +0.000 A 
ATOM      5  N   UNL     1       0.228  16.428  18.970  0.00  0.00    +0.000 NA
ATOM      6  C   UNL     1       1.249  17.266  19.021  0.00  0.00    +0.000 A 
ATOM      7  N   UNL     1       0.976  18.626  19.003  0.00  0.00    +0.000 N 
ATOM      8  N   UNL     1       2.521  16.911  19.014  0.00  0.00    +0.000 NA
ATOM      9  C   UNL     1       2.817  15.598  18.968  0.00  0.00    +0.000 A 
ATOM     10  N   UNL     1       4.166  15.312  18.873  0.00  0.00    +0.000 N 
ATOM     11  C   UNL     1       4.695  14.114  18.210  0.00  0.00    +0.000 C 
ATOM     12  C   UNL     1       6.105  14.432  17.630  0.00  0.00    +0.000 C 
ATOM     13  N   UNL     1       7.073  15.051  18.581  0.00  0.00    +0.000 NA
ATOM     14  C   UNL     1       6.407  16.229  19.198  0.00  0.00    +0.000 C 
ATOM     15  C   UNL     1       5.047  15.933  19.861  0.00  0.00    +0.000 C 
ATOM     16  C   UNL     1       1.819  14.623  18.964  0.00  0.00    +0.000 A 
ATOM     17  N   UNL     1       2.073  13.280  18.978  0.00  0.00    +0.000 NA
ATOM     18  H   UNL     1       0.080  18.790  18.574  0.00  0.00    +0.000 HD
ATOM     19  H   UNL     1       1.774  19.118  18.624  0.00  0.00    +0.000 HD
ENDROOT
BRANCH   1  23
ATOM     20  C   UNL     1       2.021   8.264  18.993  0.00  0.00    +0.000 A 
ATOM     21  C   UNL     1       2.293   9.060  17.870  0.00  0.00    +0.000 A 
ATOM     22  C   UNL     1       1.979  10.421  17.863  0.00  0.00    +0.000 A 
ATOM     23  C   UNL     1       1.335  11.015  18.956  0.00  0.00    +0.000 A 
ATOM     24  C   UNL     1       0.978  10.182  20.024  0.00  0.00    +0.000 A 
ATOM     25  C   UNL     1       1.303   8.819  20.059  0.00  0.00    +0.000 A 
BRANCH  20  27
ATOM     26  C   UNL     1       3.329   6.566  18.003  0.00  0.00    +0.000 C 
ATOM     27  O   UNL     1       2.432   6.959  19.045  0.00  0.00    +0.000 OA
ENDBRANCH  20  27
BRANCH  25  28
ATOM     28  O   UNL     1       0.851   8.239  21.210  0.00  0.00    +0.000 OA
ATOM     29  C   UNL     1      -0.186   8.861  21.946  0.00  0.00    +0.000 C 
ENDBRANCH  25  28
ENDBRANCH   1  23
BRANCH  13  30
ATOM     30  C   UNL     1       7.511  14.051  19.574  0.00  0.00    +0.000 C 
BRANCH  30  31
ATOM     31  C   UNL     1       8.914  13.530  19.370  0.00  0.00    +0.000 A 
ATOM     32  C   UNL     1       9.999  14.057  20.085  0.00  0.00    +0.000 A 
ATOM     33  C   UNL     1      11.292  13.570  19.871  0.00  0.00    +0.000 A 
ATOM     34  C   UNL     1      11.516  12.549  18.947  0.00  0.00    +0.000 A 
ATOM     35  C   UNL     1      10.447  12.025  18.224  0.00  0.00    +0.000 A 
ATOM     36  C   UNL     1       9.164  12.522  18.432  0.00  0.00    +0.000 A 
ATOM     37  F   UNL     1       8.156  12.015  17.708  0.00  0.00    +0.000 F 
ENDBRANCH  30  31
ENDBRANCH  13  30
TORSDOF 5
ENDMDL
MODEL 7
REMARK VINA RESULT:      -7.4      6.893     10.460
REMARK  Name = 
REMARK  7 active torsions:
REMARK  status: ('A' for Active; 'I' for Inactive)
REMARK    1  A    between atoms: C_1  and  O_2
REMARK    2  A    between atoms: O_2  and  C_3
REMARK    3  A    between atoms: C_6  and  C_7
REMARK    4  A    between atoms: N_19  and  C_20
REMARK    5  A    between atoms: C_20  and  C_21
REMARK    6  A    between atoms: C_33  and  O_34
REMARK    7  A    between atoms: O_34  and  C_35
REMARK                            x       y       z     vdW  Elec       q    Type
REMARK                         _______ _______ _______ _____ _____    ______ ____
ROOT
ATOM      1  C   UNL     1       4.230  15.815  18.917  0.00  0.00    +0.000 A 
ATOM      2  C   UNL     1       4.002  17.179  18.851  0.00  0.00    +0.000 A 
ATOM      3  N   UNL     1       2.763  17.723  18.866  0.00  0.00    +0.000 NA
ATOM      4  C   UNL     1       1.719  16.891  18.937  0.00  0.00    +0.000 A 
ATOM      5  N   UNL     1       0.515  17.455  18.943  0.00  0.00    +0.000 NA
ATOM      6  C   UNL     1      -0.526  16.640  18.970  0.00  0.00    +0.000 A 
ATOM      7  N   UNL     1      -1.793  17.204  18.996  0.00  0.00    +0.000 N 
ATOM      8  N   UNL     1      -0.455  15.323  19.050  0.00  0.00    +0.000 NA
ATOM      9  C   UNL     1       0.763  14.751  19.091  0.00  0.00    +0.000 A 
ATOM     10  N   UNL     1       0.752  13.379  19.264  0.00  0.00    +0.000 N 
ATOM     11  C   UNL     1       1.827  12.640  19.937  0.00  0.00    +0.000 C 
ATOM     12  C   UNL     1       1.229  11.369  20.609  0.00  0.00    +0.000 C 
ATOM     13  N   UNL     1       0.386  10.508  19.731  0.00  0.00    +0.000 NA
ATOM     14  C   UNL     1      -0.639  11.378  19.095  0.00  0.00    +0.000 C 
ATOM     15  C   UNL     1      -0.076  12.601  18.343  0.00  0.00    +0.000 C 
ATOM     16  C   UNL     1       1.931  15.510  19.015  0.00  0.00    +0.000 A 
ATOM     17  N   UNL     1       3.186  14.969  18.992  0.00  0.00    +0.000 NA
ATOM     18  H   UNL     1      -1.746  18.137  19.372  0.00  0.00    +0.000 HD
ATOM     19  H   UNL     1      -2.434  16.555  19.433  0.00  0.00    +0.000 HD
ENDROOT
BRANCH   1  23
ATOM     20  C   UNL     1       8.167  14.088  18.956  0.00  0.00    +0.000 A 
ATOM     21  C   UNL     1       7.382  14.055  17.794  0.00  0.00    +0.000 A 
ATOM     22  C   UNL     1       6.107  14.624  17.772  0.00  0.00    +0.000 A 
ATOM     23  C   UNL     1       5.557  15.195  18.928  0.00  0.00    +0.000 A 
ATOM     24  C   UNL     1       6.313  15.126  20.105  0.00  0.00    +0.000 A 
ATOM     25  C   UNL     1       7.603  14.577  20.141  0.00  0.00    +0.000 A 
BRANCH  20  27
ATOM     26  C   UNL     1       9.991  13.359  17.647  0.00  0.00    +0.000 C 
ATOM     27  O   UNL     1       9.458  13.633  18.945  0.00  0.00    +0.000 OA
ENDBRANCH  20  27
BRANCH  25  28
ATOM     28  O   UNL     1       8.124  14.639  21.402  0.00  0.00    +0.000 OA
ATOM     29  C   UNL     1       8.148  13.475  22.207  0.00  0.00    +0.000 C 
ENDBRANCH  25  28
ENDBRANCH   1  23
BRANCH  13  30
ATOM     30  C   UNL     1       1.236   9.806  18.749  0.00  0.00    +0.000 C 
BRANCH  30  31
ATOM     31  C   UNL     1       1.676   8.422  19.167  0.00  0.00    +0.000 A 
ATOM     32  C   UNL     1       1.317   7.889  20.413  0.00  0.00    +0.000 A 
ATOM     33  C   UNL     1       1.745   6.611  20.787  0.00  0.00    +0.000 A 
ATOM     34  C   UNL     1       2.531   5.851  19.919  0.00  0.00    +0.000 A 
ATOM     35  C   UNL     1       2.901   6.375  18.683  0.00  0.00    +0.000 A 
ATOM     36  C   UNL     1       2.481   7.652  18.322  0.00  0.00    +0.000 A 
ATOM     37  F   UNL     1       2.869   8.141  17.135  0.00  0.00    +0.000 F 
ENDBRANCH  30  31
ENDBRANCH  13  30
TORSDOF 5
ENDMDL
MODEL 8
REMARK VINA RESULT:      -7.4      6.721      9.800
REMARK  Name = 
REMARK  7 active torsions:
REMARK  status: ('A' for Active; 'I' for Inactive)
REMARK    1  A    between atoms: C_1  and  O_2
REMARK    2  A    between atoms: O_2  and  C_3
REMARK    3  A    between atoms: C_6  and  C_7
REMARK    4  A    between atoms: N_19  and  C_20
REMARK    5  A    between atoms: C_20  and  C_21
REMARK    6  A    between atoms: C_33  and  O_34
REMARK    7  A    between atoms: O_34  and  C_35
REMARK                            x       y       z     vdW  Elec       q    Type
REMARK                         _______ _______ _______ _____ _____    ______ ____
ROOT
ATOM      1  C   UNL     1       0.971  12.367  18.887  0.00  0.00    +0.000 A 
ATOM      2  C   UNL     1      -0.321  12.855  18.801  0.00  0.00    +0.000 A 
ATOM      3  N   UNL     1      -0.609  14.174  18.704  0.00  0.00    +0.000 NA
ATOM      4  C   UNL     1       0.414  15.035  18.703  0.00  0.00    +0.000 A 
ATOM      5  N   UNL     1       0.099  16.324  18.614  0.00  0.00    +0.000 NA
ATOM      6  C   UNL     1       1.100  17.187  18.655  0.00  0.00    +0.000 A 
ATOM      7  N   UNL     1       0.799  18.537  18.544  0.00  0.00    +0.000 N 
ATOM      8  N   UNL     1       2.378  16.862  18.720  0.00  0.00    +0.000 NA
ATOM      9  C   UNL     1       2.703  15.556  18.765  0.00  0.00    +0.000 A 
ATOM     10  N   UNL     1       4.061  15.297  18.741  0.00  0.00    +0.000 N 
ATOM     11  C   UNL     1       4.642  14.074  18.173  0.00  0.00    +0.000 C 
ATOM     12  C   UNL     1       6.067  14.390  17.632  0.00  0.00    +0.000 C 
ATOM     13  N   UNL     1       6.982  15.086  18.582  0.00  0.00    +0.000 NA
ATOM     14  C   UNL     1       6.267  16.284  19.100  0.00  0.00    +0.000 C 
ATOM     15  C   UNL     1       4.887  15.996  19.725  0.00  0.00    +0.000 C 
ATOM     16  C   UNL     1       1.727  14.559  18.780  0.00  0.00    +0.000 A 
ATOM     17  N   UNL     1       2.008  13.226  18.885  0.00  0.00    +0.000 NA
ATOM     18  H   UNL     1      -0.081  18.654  18.070  0.00  0.00    +0.000 HD
ATOM     19  H   UNL     1       1.602  19.024  18.169  0.00  0.00    +0.000 HD
ENDROOT
BRANCH   1  23
ATOM     20  C   UNL     1       2.058   8.220  19.201  0.00  0.00    +0.000 A 
ATOM     21  C   UNL     1       2.396   8.964  18.061  0.00  0.00    +0.000 A 
ATOM     22  C   UNL     1       2.055  10.314  17.959  0.00  0.00    +0.000 A 
ATOM     23  C   UNL     1       1.319  10.947  18.969  0.00  0.00    +0.000 A 
ATOM     24  C   UNL     1       0.901  10.161  20.051  0.00  0.00    +0.000 A 
ATOM     25  C   UNL     1       1.252   8.810  20.182  0.00  0.00    +0.000 A 
BRANCH  20  27
ATOM     26  C   UNL     1       2.383   6.115  18.182  0.00  0.00    +0.000 C 
ATOM     27  O   UNL     1       2.491   6.929  19.352  0.00  0.00    +0.000 OA
ENDBRANCH  20  27
BRANCH  25  28
ATOM     28  O   UNL     1       0.727   8.279  21.325  0.00  0.00    +0.000 OA
ATOM     29  C   UNL     1      -0.245   9.007  22.054  0.00  0.00    +0.000 C 
ENDBRANCH  25  28
ENDBRANCH   1  23
BRANCH  13  30
ATOM     30  C   UNL     1       7.399  14.157  19.650  0.00  0.00    +0.000 C 
BRANCH  30  31
ATOM     31  C   UNL     1       8.662  13.382  19.356  0.00  0.00    +0.000 A 
ATOM     32  C   UNL     1       9.259  13.414  18.087  0.00  0.00    +0.000 A 
ATOM     33  C   UNL     1      10.420  12.678  17.832  0.00  0.00    +0.000 A 
ATOM     34  C   UNL     1      11.002  11.909  18.840  0.00  0.00    +0.000 A 
ATOM     35  C   UNL     1      10.412  11.862  20.101  0.00  0.00    +0.000 A 
ATOM     36  C   UNL     1       9.250  12.587  20.346  0.00  0.00    +0.000 A 
ATOM     37  F   UNL     1       8.691  12.509  21.562  0.00  0.00    +0.000 F 
ENDBRANCH  30  31
ENDBRANCH  13  30
TORSDOF 5
ENDMDL
MODEL 9
REMARK VINA RESULT:      -7.2      6.608      9.925
REMARK  Name = 
REMARK  7 active torsions:
REMARK  status: ('A' for Active; 'I' for Inactive)
REMARK    1  A    between atoms: C_1  and  O_2
REMARK    2  A    between atoms: O_2  and  C_3
REMARK    3  A    between atoms: C_6  and  C_7
REMARK    4  A    between atoms: N_19  and  C_20
REMARK    5  A    between atoms: C_20  and  C_21
REMARK    6  A    between atoms: C_33  and  O_34
REMARK    7  A    between atoms: O_34  and  C_35
REMARK                            x       y       z     vdW  Elec       q    Type
REMARK                         _______ _______ _______ _____ _____    ______ ____
ROOT
ATOM      1  C   UNL     1       0.618  10.257  20.718  0.00  0.00    +0.000 A 
ATOM      2  C   UNL     1      -0.502  10.021  21.496  0.00  0.00    +0.000 A 
ATOM      3  N   UNL     1      -1.107  10.982  22.233  0.00  0.00    +0.000 NA
ATOM      4  C   UNL     1      -0.579  12.210  22.208  0.00  0.00    +0.000 A 
ATOM      5  N   UNL     1      -1.190  13.131  22.947  0.00  0.00    +0.000 NA
ATOM      6  C   UNL     1      -0.652  14.338  22.962  0.00  0.00    +0.000 A 
ATOM      7  N   UNL     1      -1.282  15.322  23.712  0.00  0.00    +0.000 N 
ATOM      8  N   UNL     1       0.404  14.706  22.259  0.00  0.00    +0.000 NA
ATOM      9  C   UNL     1       0.998  13.788  21.473  0.00  0.00    +0.000 A 
ATOM     10  N   UNL     1       2.039  14.274  20.703  0.00  0.00    +0.000 N 
ATOM     11  C   UNL     1       2.409  13.714  19.398  0.00  0.00    +0.000 C 
ATOM     12  C   UNL     1       3.024  14.839  18.516  0.00  0.00    +0.000 C 
ATOM     13  N   UNL     1       4.120  15.631  19.145  0.00  0.00    +0.000 NA
ATOM     14  C   UNL     1       3.626  16.115  20.462  0.00  0.00    +0.000 C 
ATOM     15  C   UNL     1       3.091  15.014  21.399  0.00  0.00    +0.000 C 
ATOM     16  C   UNL     1       0.548  12.469  21.419  0.00  0.00    +0.000 A 
ATOM     17  N   UNL     1       1.156  11.491  20.684  0.00  0.00    +0.000 NA
ATOM     18  H   UNL     1      -2.256  15.092  23.829  0.00  0.00    +0.000 HD
ATOM     19  H   UNL     1      -1.059  16.227  23.321  0.00  0.00    +0.000 HD
ENDROOT
BRANCH   1  23
ATOM     20  C   UNL     1       2.653   7.310  18.341  0.00  0.00    +0.000 A 
ATOM     21  C   UNL     1       2.234   8.523  17.773  0.00  0.00    +0.000 A 
ATOM     22  C   UNL     1       1.582   9.488  18.544  0.00  0.00    +0.000 A 
ATOM     23  C   UNL     1       1.282   9.248  19.891  0.00  0.00    +0.000 A 
ATOM     24  C   UNL     1       1.616   7.991  20.412  0.00  0.00    +0.000 A 
ATOM     25  C   UNL     1       2.289   7.018  19.660  0.00  0.00    +0.000 A 
BRANCH  20  27
ATOM     26  C   UNL     1       4.591   6.942  17.044  0.00  0.00    +0.000 C 
ATOM     27  O   UNL     1       3.392   6.414  17.616  0.00  0.00    +0.000 OA
ENDBRANCH  20  27
BRANCH  25  28
ATOM     28  O   UNL     1       2.502   5.890  20.402  0.00  0.00    +0.000 OA
ATOM     29  C   UNL     1       1.475   4.922  20.514  0.00  0.00    +0.000 C 
ENDBRANCH  25  28
ENDBRANCH   1  23
BRANCH  13  30
ATOM     30  C   UNL     1       5.339  14.805  19.255  0.00  0.00    +0.000 C 
BRANCH  30  31
ATOM     31  C   UNL     1       6.632  15.586  19.282  0.00  0.00    +0.000 A 
ATOM     32  C   UNL     1       6.742  16.836  18.654  0.00  0.00    +0.000 A 
ATOM     33  C   UNL     1       7.952  17.536  18.679  0.00  0.00    +0.000 A 
ATOM     34  C   UNL     1       9.061  17.001  19.335  0.00  0.00    +0.000 A 
ATOM     35  C   UNL     1       8.966  15.757  19.954  0.00  0.00    +0.000 A 
ATOM     36  C   UNL     1       7.762  15.059  19.915  0.00  0.00    +0.000 A 
ATOM     37  F   UNL     1       7.702  13.854  20.500  0.00  0.00    +0.000 F 
ENDBRANCH  30  31
ENDBRANCH  13  30
TORSDOF 5
ENDMDL
