MODEL 1
REMARK VINA RESULT:      -7.0      0.000      0.000
REMARK  Name = 
REMARK  5 active torsions:
REMARK  status: ('A' for Active; 'I' for Inactive)
REMARK    1  A    between atoms: O_1  and  C_2
REMARK    2  A    between atoms: C_5  and  C_6
REMARK    3  A    between atoms: C_6  and  C_7
REMARK    4  A    between atoms: C_7  and  C_8
REMARK    5  A    between atoms: C_16  and  O_17
REMARK                            x       y       z     vdW  Elec       q    Type
REMARK                         _______ _______ _______ _____ _____    ______ ____
ROOT
ATOM      1  C   UNL     1       7.923   6.900  18.419  0.00  0.00    +0.000 A 
ATOM      2  C   UNL     1       7.277   7.211  17.225  0.00  0.00    +0.000 A 
ATOM      3  C   UNL     1       6.489   6.243  16.589  0.00  0.00    +0.000 A 
ATOM      4  C   UNL     1       6.339   4.963  17.145  0.00  0.00    +0.000 A 
ATOM      5  C   UNL     1       7.006   4.661  18.342  0.00  0.00    +0.000 A 
ATOM      6  C   UNL     1       7.789   5.630  18.975  0.00  0.00    +0.000 A 
ENDROOT
BRANCH   1   7
ATOM      7  O   UNL     1       8.687   7.835  19.059  0.00  0.00    +0.000 OA
ATOM      8  H   UNL     1       8.108   8.444  19.539  0.00  0.00    +0.000 HD
ENDBRANCH   1   7
BRANCH   6   9
ATOM      9  O   UNL     1       8.427   5.342  20.150  0.00  0.00    +0.000 OA
ATOM     10  H   UNL     1       7.776   5.029  20.796  0.00  0.00    +0.000 HD
ENDBRANCH   6   9
BRANCH   4  11
ATOM     11  C   UNL     1       5.468   3.923  16.474  0.00  0.00    +0.000 C 
BRANCH  11  12
ATOM     12  C   UNL     1       3.977   4.278  16.518  0.00  0.00    +0.000 C 
BRANCH  12  13
ATOM     13  C   UNL     1       3.322   3.860  17.817  0.00  0.00    +0.000 A 
ATOM     14  C   UNL     1       3.143   4.780  18.860  0.00  0.00    +0.000 A 
ATOM     15  C   UNL     1       2.531   4.387  20.055  0.00  0.00    +0.000 A 
ATOM     16  C   UNL     1       2.099   3.073  20.215  0.00  0.00    +0.000 A 
ATOM     17 CL   UNL     1       1.341   2.591  21.683  0.00  0.00    +0.000 Cl
ATOM     18  C   UNL     1       2.277   2.145  19.191  0.00  0.00    +0.000 A 
ATOM     19  C   UNL     1       2.890   2.538  17.997  0.00  0.00    +0.000 A 
ENDBRANCH  12  13
ENDBRANCH  11  12
ENDBRANCH   4  11
TORSDOF 5
ENDMDL
MODEL 2
REMARK VINA RESULT:      -6.9      0.164      1.173
REMARK  Name = 
REMARK  5 active torsions:
REMARK  status: ('A' for Active; 'I' for Inactive)
REMARK    1  A    between atoms: O_1  and  C_2
REMARK    2  A    between atoms: C_5  and  C_6
REMARK    3  A    between atoms: C_6  and  C_7
REMARK    4  A    between atoms: C_7  and  C_8
REMARK    5  A    between atoms: C_16  and  O_17
REMARK                            x       y       z     vdW  Elec       q    Type
REMARK                         _______ _______ _______ _____ _____    ______ ____
ROOT
ATOM      1  C   UNL     1       7.931   6.931  18.320  0.00  0.00    +0.000 A 
ATOM      2  C   UNL     1       7.273   7.205  17.123  0.00  0.00    +0.000 A 
ATOM      3  C   UNL     1       6.504   6.208  16.509  0.00  0.00    +0.000 A 
ATOM      4  C   UNL     1       6.384   4.936  17.089  0.00  0.00    +0.000 A 
ATOM      5  C   UNL     1       7.062   4.671  18.288  0.00  0.00    +0.000 A 
ATOM      6  C   UNL     1       7.826   5.668  18.900  0.00  0.00    +0.000 A 
ENDROOT
BRANCH   1   7
ATOM      7  O   UNL     1       8.677   7.894  18.939  0.00  0.00    +0.000 OA
ATOM      8  H   UNL     1       9.196   8.370  18.274  0.00  0.00    +0.000 HD
ENDBRANCH   1   7
BRANCH   6   9
ATOM      9  O   UNL     1       8.474   5.417  20.078  0.00  0.00    +0.000 OA
ATOM     10  H   UNL     1       9.307   4.959  19.890  0.00  0.00    +0.000 HD
ENDBRANCH   6   9
BRANCH   4  11
ATOM     11  C   UNL     1       5.533   3.865  16.441  0.00  0.00    +0.000 C 
BRANCH  11  12
ATOM     12  C   UNL     1       4.042   4.221  16.422  0.00  0.00    +0.000 C 
BRANCH  12  13
ATOM     13  C   UNL     1       3.336   3.819  17.699  0.00  0.00    +0.000 A 
ATOM     14  C   UNL     1       2.674   2.587  17.797  0.00  0.00    +0.000 A 
ATOM     15  C   UNL     1       2.029   2.220  18.983  0.00  0.00    +0.000 A 
ATOM     16  C   UNL     1       2.040   3.084  20.075  0.00  0.00    +0.000 A 
ATOM     17 CL   UNL     1       1.253   2.631  21.537  0.00  0.00    +0.000 Cl
ATOM     18  C   UNL     1       2.688   4.315  19.991  0.00  0.00    +0.000 A 
ATOM     19  C   UNL     1       3.330   4.682  18.805  0.00  0.00    +0.000 A 
ENDBRANCH  12  13
ENDBRANCH  11  12
ENDBRANCH   4  11
TORSDOF 5
ENDMDL
MODEL 3
REMARK VINA RESULT:      -6.9      3.473      6.006
REMARK  Name = 
REMARK  5 active torsions:
REMARK  status: ('A' for Active; 'I' for Inactive)
REMARK    1  A    between atoms: O_1  and  C_2
REMARK    2  A    between atoms: C_5  and  C_6
REMARK    3  A    between atoms: C_6  and  C_7
REMARK    4  A    between atoms: C_7  and  C_8
REMARK    5  A    between atoms: C_16  and  O_17
REMARK                            x       y       z     vdW  Elec       q    Type
REMARK                         _______ _______ _______ _____ _____    ______ ____
ROOT
ATOM      1  C   UNL     1       1.843   2.876  21.068  0.00  0.00    +0.000 A 
ATOM      2  C   UNL     1       0.955   3.510  20.202  0.00  0.00    +0.000 A 
ATOM      3  C   UNL     1       1.378   3.872  18.916  0.00  0.00    +0.000 A 
ATOM      4  C   UNL     1       2.687   3.597  18.489  0.00  0.00    +0.000 A 
ATOM      5  C   UNL     1       3.572   2.969  19.377  0.00  0.00    +0.000 A 
ATOM      6  C   UNL     1       3.146   2.607  20.658  0.00  0.00    +0.000 A 
ENDROOT
BRANCH   1   7
ATOM      7  O   UNL     1       1.444   2.507  22.322  0.00  0.00    +0.000 OA
ATOM      8  H   UNL     1       0.872   3.196  22.690  0.00  0.00    +0.000 HD
ENDBRANCH   1   7
BRANCH   6   9
ATOM      9  O   UNL     1       4.004   1.980  21.519  0.00  0.00    +0.000 OA
ATOM     10  H   UNL     1       4.905   2.039  21.169  0.00  0.00    +0.000 HD
ENDBRANCH   6   9
BRANCH   4  11
ATOM     11  C   UNL     1       3.139   3.963  17.092  0.00  0.00    +0.000 C 
BRANCH  11  12
ATOM     12  C   UNL     1       4.617   3.644  16.842  0.00  0.00    +0.000 C 
BRANCH  12  13
ATOM     13  C   UNL     1       5.521   4.820  17.145  0.00  0.00    +0.000 A 
ATOM     14  C   UNL     1       6.713   4.644  17.863  0.00  0.00    +0.000 A 
ATOM     15  C   UNL     1       7.546   5.736  18.132  0.00  0.00    +0.000 A 
ATOM     16  C   UNL     1       7.190   7.007  17.690  0.00  0.00    +0.000 A 
ATOM     17 CL   UNL     1       8.218   8.348  18.016  0.00  0.00    +0.000 Cl
ATOM     18  C   UNL     1       6.006   7.199  16.982  0.00  0.00    +0.000 A 
ATOM     19  C   UNL     1       5.173   6.108  16.714  0.00  0.00    +0.000 A 
ENDBRANCH  12  13
ENDBRANCH  11  12
ENDBRANCH   4  11
TORSDOF 5
ENDMDL
MODEL 4
REMARK VINA RESULT:      -6.9      1.985      2.973
REMARK  Name = 
REMARK  5 active torsions:
REMARK  status: ('A' for Active; 'I' for Inactive)
REMARK    1  A    between atoms: O_1  and  C_2
REMARK    2  A    between atoms: C_5  and  C_6
REMARK    3  A    between atoms: C_6  and  C_7
REMARK    4  A    between atoms: C_7  and  C_8
REMARK    5  A    between atoms: C_16  and  O_17
REMARK                            x       y       z     vdW  Elec       q    Type
REMARK                         _______ _______ _______ _____ _____    ______ ____
ROOT
ATOM      1  C   UNL     1       7.152   4.835  17.360  0.00  0.00    +0.000 A 
ATOM      2  C   UNL     1       6.504   4.896  18.591  0.00  0.00    +0.000 A 
ATOM      3  C   UNL     1       5.377   5.715  18.742  0.00  0.00    +0.000 A 
ATOM      4  C   UNL     1       4.890   6.471  17.664  0.00  0.00    +0.000 A 
ATOM      5  C   UNL     1       5.561   6.407  16.434  0.00  0.00    +0.000 A 
ATOM      6  C   UNL     1       6.683   5.587  16.286  0.00  0.00    +0.000 A 
ENDROOT
BRANCH   1   7
ATOM      7  O   UNL     1       8.247   4.034  17.192  0.00  0.00    +0.000 OA
ATOM      8  H   UNL     1       8.451   3.969  16.248  0.00  0.00    +0.000 HD
ENDBRANCH   1   7
BRANCH   6   9
ATOM      9  O   UNL     1       7.330   5.512  15.083  0.00  0.00    +0.000 OA
ATOM     10  H   UNL     1       7.059   4.701  14.627  0.00  0.00    +0.000 HD
ENDBRANCH   6   9
BRANCH   4  11
ATOM     11  C   UNL     1       3.658   7.336  17.817  0.00  0.00    +0.000 C 
BRANCH  11  12
ATOM     12  C   UNL     1       2.355   6.563  17.581  0.00  0.00    +0.000 C 
BRANCH  12  13
ATOM     13  C   UNL     1       2.101   5.520  18.649  0.00  0.00    +0.000 A 
ATOM     14  C   UNL     1       1.830   4.188  18.303  0.00  0.00    +0.000 A 
ATOM     15  C   UNL     1       1.603   3.230  19.296  0.00  0.00    +0.000 A 
ATOM     16  C   UNL     1       1.641   3.598  20.639  0.00  0.00    +0.000 A 
ATOM     17 CL   UNL     1       1.367   2.417  21.861  0.00  0.00    +0.000 Cl
ATOM     18  C   UNL     1       1.901   4.919  20.998  0.00  0.00    +0.000 A 
ATOM     19  C   UNL     1       2.127   5.877  20.005  0.00  0.00    +0.000 A 
ENDBRANCH  12  13
ENDBRANCH  11  12
ENDBRANCH   4  11
TORSDOF 5
ENDMDL
MODEL 5
REMARK VINA RESULT:      -6.9      3.452      5.907
REMARK  Name = 
REMARK  5 active torsions:
REMARK  status: ('A' for Active; 'I' for Inactive)
REMARK    1  A    between atoms: O_1  and  C_2
REMARK    2  A    between atoms: C_5  and  C_6
REMARK    3  A    between atoms: C_6  and  C_7
REMARK    4  A    between atoms: C_7  and  C_8
REMARK    5  A    between atoms: C_16  and  O_17
REMARK                            x       y       z     vdW  Elec       q    Type
REMARK                         _______ _______ _______ _____ _____    ______ ____
ROOT
ATOM      1  C   UNL     1       2.007   2.930  21.064  0.00  0.00    +0.000 A 
ATOM      2  C   UNL     1       1.120   3.580  20.210  0.00  0.00    +0.000 A 
ATOM      3  C   UNL     1       1.515   3.887  18.901  0.00  0.00    +0.000 A 
ATOM      4  C   UNL     1       2.794   3.542  18.439  0.00  0.00    +0.000 A 
ATOM      5  C   UNL     1       3.681   2.898  19.316  0.00  0.00    +0.000 A 
ATOM      6  C   UNL     1       3.283   2.591  20.619  0.00  0.00    +0.000 A 
ENDROOT
BRANCH   1   7
ATOM      7  O   UNL     1       1.635   2.613  22.341  0.00  0.00    +0.000 OA
ATOM      8  H   UNL     1       1.947   1.721  22.551  0.00  0.00    +0.000 HD
ENDBRANCH   1   7
BRANCH   6   9
ATOM      9  O   UNL     1       4.140   1.949  21.470  0.00  0.00    +0.000 OA
ATOM     10  H   UNL     1       3.773   1.969  22.366  0.00  0.00    +0.000 HD
ENDBRANCH   6   9
BRANCH   4  11
ATOM     11  C   UNL     1       3.215   3.850  17.018  0.00  0.00    +0.000 C 
BRANCH  11  12
ATOM     12  C   UNL     1       4.704   3.583  16.767  0.00  0.00    +0.000 C 
BRANCH  12  13
ATOM     13  C   UNL     1       5.565   4.792  17.063  0.00  0.00    +0.000 A 
ATOM     14  C   UNL     1       5.170   6.073  16.653  0.00  0.00    +0.000 A 
ATOM     15  C   UNL     1       5.970   7.186  16.936  0.00  0.00    +0.000 A 
ATOM     16  C   UNL     1       7.168   7.023  17.627  0.00  0.00    +0.000 A 
ATOM     17 CL   UNL     1       8.148   8.393  17.980  0.00  0.00    +0.000 Cl
ATOM     18  C   UNL     1       7.577   5.756  18.034  0.00  0.00    +0.000 A 
ATOM     19  C   UNL     1       6.779   4.644  17.750  0.00  0.00    +0.000 A 
ENDBRANCH  12  13
ENDBRANCH  11  12
ENDBRANCH   4  11
TORSDOF 5
ENDMDL
MODEL 6
REMARK VINA RESULT:      -6.9      1.957      2.721
REMARK  Name = 
REMARK  5 active torsions:
REMARK  status: ('A' for Active; 'I' for Inactive)
REMARK    1  A    between atoms: O_1  and  C_2
REMARK    2  A    between atoms: C_5  and  C_6
REMARK    3  A    between atoms: C_6  and  C_7
REMARK    4  A    between atoms: C_7  and  C_8
REMARK    5  A    between atoms: C_16  and  O_17
REMARK                            x       y       z     vdW  Elec       q    Type
REMARK                         _______ _______ _______ _____ _____    ______ ____
ROOT
ATOM      1  C   UNL     1       7.175   4.853  17.433  0.00  0.00    +0.000 A 
ATOM      2  C   UNL     1       6.487   4.911  18.643  0.00  0.00    +0.000 A 
ATOM      3  C   UNL     1       5.350   5.721  18.757  0.00  0.00    +0.000 A 
ATOM      4  C   UNL     1       4.892   6.472  17.663  0.00  0.00    +0.000 A 
ATOM      5  C   UNL     1       5.602   6.411  16.455  0.00  0.00    +0.000 A 
ATOM      6  C   UNL     1       6.734   5.600  16.344  0.00  0.00    +0.000 A 
ENDROOT
BRANCH   1   7
ATOM      7  O   UNL     1       8.280   4.060  17.301  0.00  0.00    +0.000 OA
ATOM      8  H   UNL     1       8.023   3.134  17.418  0.00  0.00    +0.000 HD
ENDBRANCH   1   7
BRANCH   6   9
ATOM      9  O   UNL     1       7.419   5.528  15.161  0.00  0.00    +0.000 OA
ATOM     10  H   UNL     1       6.973   6.080  14.502  0.00  0.00    +0.000 HD
ENDBRANCH   6   9
BRANCH   4  11
ATOM     11  C   UNL     1       3.649   7.327  17.776  0.00  0.00    +0.000 C 
BRANCH  11  12
ATOM     12  C   UNL     1       2.357   6.532  17.556  0.00  0.00    +0.000 C 
BRANCH  12  13
ATOM     13  C   UNL     1       2.120   5.503  18.641  0.00  0.00    +0.000 A 
ATOM     14  C   UNL     1       2.130   5.871  19.995  0.00  0.00    +0.000 A 
ATOM     15  C   UNL     1       1.904   4.915  20.991  0.00  0.00    +0.000 A 
ATOM     16  C   UNL     1       1.671   3.588  20.640  0.00  0.00    +0.000 A 
ATOM     17 CL   UNL     1       1.387   2.414  21.866  0.00  0.00    +0.000 Cl
ATOM     18  C   UNL     1       1.665   3.206  19.301  0.00  0.00    +0.000 A 
ATOM     19  C   UNL     1       1.893   4.161  18.305  0.00  0.00    +0.000 A 
ENDBRANCH  12  13
ENDBRANCH  11  12
ENDBRANCH   4  11
TORSDOF 5
ENDMDL
MODEL 7
REMARK VINA RESULT:      -6.8      1.538      2.155
REMARK  Name = 
REMARK  5 active torsions:
REMARK  status: ('A' for Active; 'I' for Inactive)
REMARK    1  A    between atoms: O_1  and  C_2
REMARK    2  A    between atoms: C_5  and  C_6
REMARK    3  A    between atoms: C_6  and  C_7
REMARK    4  A    between atoms: C_7  and  C_8
REMARK    5  A    between atoms: C_16  and  O_17
REMARK                            x       y       z     vdW  Elec       q    Type
REMARK                         _______ _______ _______ _____ _____    ______ ____
ROOT
ATOM      1  C   UNL     1       7.186   4.705  17.724  0.00  0.00    +0.000 A 
ATOM      2  C   UNL     1       6.387   4.756  16.584  0.00  0.00    +0.000 A 
ATOM      3  C   UNL     1       5.199   5.498  16.601  0.00  0.00    +0.000 A 
ATOM      4  C   UNL     1       4.807   6.197  17.753  0.00  0.00    +0.000 A 
ATOM      5  C   UNL     1       5.616   6.126  18.897  0.00  0.00    +0.000 A 
ATOM      6  C   UNL     1       6.801   5.387  18.876  0.00  0.00    +0.000 A 
ENDROOT
BRANCH   1   7
ATOM      7  O   UNL     1       8.353   3.994  17.722  0.00  0.00    +0.000 OA
ATOM      8  H   UNL     1       8.153   3.054  17.605  0.00  0.00    +0.000 HD
ENDBRANCH   1   7
BRANCH   6   9
ATOM      9  O   UNL     1       7.600   5.330  19.986  0.00  0.00    +0.000 OA
ATOM     10  H   UNL     1       7.644   4.414  20.298  0.00  0.00    +0.000 HD
ENDBRANCH   6   9
BRANCH   4  11
ATOM     11  C   UNL     1       3.537   7.021  17.766  0.00  0.00    +0.000 C 
BRANCH  11  12
ATOM     12  C   UNL     1       2.275   6.171  17.580  0.00  0.00    +0.000 C 
BRANCH  12  13
ATOM     13  C   UNL     1       2.064   5.193  18.717  0.00  0.00    +0.000 A 
ATOM     14  C   UNL     1       2.143   5.615  20.052  0.00  0.00    +0.000 A 
ATOM     15  C   UNL     1       1.941   4.705  21.096  0.00  0.00    +0.000 A 
ATOM     16  C   UNL     1       1.662   3.371  20.810  0.00  0.00    +0.000 A 
ATOM     17 CL   UNL     1       1.407   2.254  22.095  0.00  0.00    +0.000 Cl
ATOM     18  C   UNL     1       1.588   2.936  19.489  0.00  0.00    +0.000 A 
ATOM     19  C   UNL     1       1.792   3.844  18.446  0.00  0.00    +0.000 A 
ENDBRANCH  12  13
ENDBRANCH  11  12
ENDBRANCH   4  11
TORSDOF 5
ENDMDL
MODEL 8
REMARK VINA RESULT:      -6.7      1.672      2.412
REMARK  Name = 
REMARK  5 active torsions:
REMARK  status: ('A' for Active; 'I' for Inactive)
REMARK    1  A    between atoms: O_1  and  C_2
REMARK    2  A    between atoms: C_5  and  C_6
REMARK    3  A    between atoms: C_6  and  C_7
REMARK    4  A    between atoms: C_7  and  C_8
REMARK    5  A    between atoms: C_16  and  O_17
REMARK                            x       y       z     vdW  Elec       q    Type
REMARK                         _______ _______ _______ _____ _____    ______ ____
ROOT
ATOM      1  C   UNL     1       7.428   4.731  17.530  0.00  0.00    +0.000 A 
ATOM      2  C   UNL     1       6.486   4.287  16.604  0.00  0.00    +0.000 A 
ATOM      3  C   UNL     1       5.373   5.085  16.310  0.00  0.00    +0.000 A 
ATOM      4  C   UNL     1       5.198   6.329  16.933  0.00  0.00    +0.000 A 
ATOM      5  C   UNL     1       6.148   6.757  17.872  0.00  0.00    +0.000 A 
ATOM      6  C   UNL     1       7.259   5.960  18.162  0.00  0.00    +0.000 A 
ENDROOT
BRANCH   1   7
ATOM      7  O   UNL     1       8.525   3.971  17.823  0.00  0.00    +0.000 OA
ATOM      8  H   UNL     1       9.000   4.370  18.567  0.00  0.00    +0.000 HD
ENDBRANCH   1   7
BRANCH   6   9
ATOM      9  O   UNL     1       8.195   6.383  19.066  0.00  0.00    +0.000 OA
ATOM     10  H   UNL     1       8.491   5.627  19.594  0.00  0.00    +0.000 HD
ENDBRANCH   6   9
BRANCH   4  11
ATOM     11  C   UNL     1       4.010   7.205  16.597  0.00  0.00    +0.000 C 
BRANCH  11  12
ATOM     12  C   UNL     1       3.157   7.547  17.825  0.00  0.00    +0.000 C 
BRANCH  12  13
ATOM     13  C   UNL     1       2.647   6.313  18.537  0.00  0.00    +0.000 A 
ATOM     14  C   UNL     1       2.766   6.185  19.928  0.00  0.00    +0.000 A 
ATOM     15  C   UNL     1       2.286   5.043  20.579  0.00  0.00    +0.000 A 
ATOM     16  C   UNL     1       1.689   4.023  19.843  0.00  0.00    +0.000 A 
ATOM     17 CL   UNL     1       1.094   2.621  20.644  0.00  0.00    +0.000 Cl
ATOM     18  C   UNL     1       1.571   4.132  18.459  0.00  0.00    +0.000 A 
ATOM     19  C   UNL     1       2.052   5.272  17.809  0.00  0.00    +0.000 A 
ENDBRANCH  12  13
ENDBRANCH  11  12
ENDBRANCH   4  11
TORSDOF 5
ENDMDL
MODEL 9
REMARK VINA RESULT:      -6.6      3.491      6.106
REMARK  Name = 
REMARK  5 active torsions:
REMARK  status: ('A' for Active; 'I' for Inactive)
REMARK    1  A    between atoms: O_1  and  C_2
REMARK    2  A    between atoms: C_5  and  C_6
REMARK    3  A    between atoms: C_6  and  C_7
REMARK    4  A    between atoms: C_7  and  C_8
REMARK    5  A    between atoms: C_16  and  O_17
REMARK                            x       y       z     vdW  Elec       q    Type
REMARK                         _______ _______ _______ _____ _____    ______ ____
ROOT
ATOM      1  C   UNL     1       1.510   3.193  20.074  0.00  0.00    +0.000 A 
ATOM      2  C   UNL     1       1.451   2.416  18.920  0.00  0.00    +0.000 A 
ATOM      3  C   UNL     1       2.233   2.761  17.809  0.00  0.00    +0.000 A 
ATOM      4  C   UNL     1       3.079   3.880  17.849  0.00  0.00    +0.000 A 
ATOM      5  C   UNL     1       3.118   4.660  19.015  0.00  0.00    +0.000 A 
ATOM      6  C   UNL     1       2.339   4.311  20.121  0.00  0.00    +0.000 A 
ENDROOT
BRANCH   1   7
ATOM      7  O   UNL     1       0.762   2.866  21.170  0.00  0.00    +0.000 OA
ATOM      8  H   UNL     1       1.024   1.988  21.484  0.00  0.00    +0.000 HD
ENDBRANCH   1   7
BRANCH   6   9
ATOM      9  O   UNL     1       2.388   5.061  21.264  0.00  0.00    +0.000 OA
ATOM     10  H   UNL     1       3.288   5.038  21.620  0.00  0.00    +0.000 HD
ENDBRANCH   6   9
BRANCH   4  11
ATOM     11  C   UNL     1       3.944   4.240  16.661  0.00  0.00    +0.000 C 
BRANCH  11  12
ATOM     12  C   UNL     1       5.424   3.903  16.878  0.00  0.00    +0.000 C 
BRANCH  12  13
ATOM     13  C   UNL     1       6.234   5.108  17.306  0.00  0.00    +0.000 A 
ATOM     14  C   UNL     1       6.073   6.346  16.667  0.00  0.00    +0.000 A 
ATOM     15  C   UNL     1       6.822   7.456  17.075  0.00  0.00    +0.000 A 
ATOM     16  C   UNL     1       7.735   7.333  18.118  0.00  0.00    +0.000 A 
ATOM     17 CL   UNL     1       8.651   8.700  18.622  0.00  0.00    +0.000 Cl
ATOM     18  C   UNL     1       7.912   6.108  18.757  0.00  0.00    +0.000 A 
ATOM     19  C   UNL     1       7.165   4.999  18.349  0.00  0.00    +0.000 A 
ENDBRANCH  12  13
ENDBRANCH  11  12
ENDBRANCH   4  11
TORSDOF 5
ENDMDL
