MODEL 1
REMARK VINA RESULT:      -7.4      0.000      0.000
REMARK  Name = 
REMARK  5 active torsions:
REMARK  status: ('A' for Active; 'I' for Inactive)
REMARK    1  A    between atoms: C_1  and  O_2
REMARK    2  A    between atoms: O_2  and  C_3
REMARK    3  A    between atoms: C_7  and  C_8
REMARK    4  A    between atoms: C_8  and  N_9
REMARK    5  A    between atoms: C_16  and  N_17
REMARK                            x       y       z     vdW  Elec       q    Type
REMARK                         _______ _______ _______ _____ _____    ______ ____
ROOT
ATOM      1  N   UNL     1       6.205   4.875  16.813  0.00  0.00    +0.000 N 
ATOM      2  C   UNL     1       6.752   4.409  17.967  0.00  0.00    +0.000 C 
ATOM      3  O   UNL     1       7.922   4.598  18.286  0.00  0.00    +0.000 OA
ATOM      4  N   UNL     1       5.914   3.720  18.804  0.00  0.00    +0.000 N 
ATOM      5  C   UNL     1       4.598   3.467  18.540  0.00  0.00    +0.000 A 
ATOM      6  N   UNL     1       3.964   3.696  17.412  0.00  0.00    +0.000 NA
ATOM      7  C   UNL     1       2.629   3.397  17.568  0.00  0.00    +0.000 A 
ATOM      8  C   UNL     1       2.287   2.984  18.833  0.00  0.00    +0.000 A 
ATOM      9  S   UNL     1       3.666   2.855  19.829  0.00  0.00    +0.000 S 
ATOM     10  H   UNL     1       5.204   4.764  16.693  0.00  0.00    +0.000 HD
ATOM     11  H   UNL     1       6.304   3.441  19.692  0.00  0.00    +0.000 HD
ENDROOT
BRANCH   8  12
ATOM     12  N   UNL     1       0.970   2.709  19.302  0.00  0.00    +0.000 N 
ATOM     13  O   UNL     1       0.729   3.019  20.473  0.00  0.00    +0.000 OA
ATOM     14  O   UNL     1       0.176   2.169  18.521  0.00  0.00    +0.000 OA
ENDBRANCH   8  12
BRANCH   1  15
ATOM     15  C   UNL     1       6.891   5.708  15.864  0.00  0.00    +0.000 C 
BRANCH  15  20
ATOM     16  C   UNL     1       5.795   3.635  12.848  0.00  0.00    +0.000 A 
ATOM     17  C   UNL     1       6.779   3.978  11.919  0.00  0.00    +0.000 A 
ATOM     18  C   UNL     1       7.809   4.853  12.267  0.00  0.00    +0.000 A 
ATOM     19  C   UNL     1       7.850   5.401  13.547  0.00  0.00    +0.000 A 
ATOM     20  C   UNL     1       6.862   5.083  14.491  0.00  0.00    +0.000 A 
ATOM     21  C   UNL     1       5.843   4.185  14.133  0.00  0.00    +0.000 A 
BRANCH  16  23
ATOM     22  C   UNL     1       4.191   3.122  11.173  0.00  0.00    +0.000 C 
ATOM     23  O   UNL     1       4.847   2.765  12.384  0.00  0.00    +0.000 OA
ENDBRANCH  16  23
ENDBRANCH  15  20
ENDBRANCH   1  15
TORSDOF 4
ENDMDL
MODEL 2
REMARK VINA RESULT:      -7.0      2.703      7.234
REMARK  Name = 
REMARK  5 active torsions:
REMARK  status: ('A' for Active; 'I' for Inactive)
REMARK    1  A    between atoms: C_1  and  O_2
REMARK    2  A    between atoms: O_2  and  C_3
REMARK    3  A    between atoms: C_7  and  C_8
REMARK    4  A    between atoms: C_8  and  N_9
REMARK    5  A    between atoms: C_16  and  N_17
REMARK                            x       y       z     vdW  Elec       q    Type
REMARK                         _______ _______ _______ _____ _____    ______ ____
ROOT
ATOM      1  N   UNL     1       5.356   3.638  18.597  0.00  0.00    +0.000 N 
ATOM      2  C   UNL     1       6.283   4.631  18.649  0.00  0.00    +0.000 C 
ATOM      3  O   UNL     1       6.712   5.103  19.698  0.00  0.00    +0.000 OA
ATOM      4  N   UNL     1       6.761   5.083  17.447  0.00  0.00    +0.000 N 
ATOM      5  C   UNL     1       6.353   4.615  16.231  0.00  0.00    +0.000 A 
ATOM      6  N   UNL     1       5.357   3.789  16.000  0.00  0.00    +0.000 NA
ATOM      7  C   UNL     1       5.320   3.480  14.658  0.00  0.00    +0.000 A 
ATOM      8  C   UNL     1       6.323   4.058  13.918  0.00  0.00    +0.000 A 
ATOM      9  S   UNL     1       7.273   5.098  14.879  0.00  0.00    +0.000 S 
ATOM     10  H   UNL     1       5.150   3.239  17.687  0.00  0.00    +0.000 HD
ATOM     11  H   UNL     1       7.503   5.766  17.492  0.00  0.00    +0.000 HD
ENDROOT
BRANCH   8  12
ATOM     12  N   UNL     1       6.586   3.832  12.535  0.00  0.00    +0.000 N 
ATOM     13  O   UNL     1       5.933   2.935  11.993  0.00  0.00    +0.000 OA
ATOM     14  O   UNL     1       7.452   4.528  11.987  0.00  0.00    +0.000 OA
ENDBRANCH   8  12
BRANCH   1  15
ATOM     15  C   UNL     1       4.820   2.963  19.747  0.00  0.00    +0.000 C 
BRANCH  15  20
ATOM     16  C   UNL     1       1.820   5.213  20.475  0.00  0.00    +0.000 A 
ATOM     17  C   UNL     1       0.781   4.280  20.468  0.00  0.00    +0.000 A 
ATOM     18  C   UNL     1       1.045   2.927  20.257  0.00  0.00    +0.000 A 
ATOM     19  C   UNL     1       2.353   2.501  20.037  0.00  0.00    +0.000 A 
ATOM     20  C   UNL     1       3.410   3.424  20.023  0.00  0.00    +0.000 A 
ATOM     21  C   UNL     1       3.131   4.781  20.257  0.00  0.00    +0.000 A 
BRANCH  16  23
ATOM     22  C   UNL     1       2.081   7.511  19.934  0.00  0.00    +0.000 C 
ATOM     23  O   UNL     1       1.429   6.504  20.700  0.00  0.00    +0.000 OA
ENDBRANCH  16  23
ENDBRANCH  15  20
ENDBRANCH   1  15
TORSDOF 4
ENDMDL
MODEL 3
REMARK VINA RESULT:      -7.0      2.768      6.908
REMARK  Name = 
REMARK  5 active torsions:
REMARK  status: ('A' for Active; 'I' for Inactive)
REMARK    1  A    between atoms: C_1  and  O_2
REMARK    2  A    between atoms: O_2  and  C_3
REMARK    3  A    between atoms: C_7  and  C_8
REMARK    4  A    between atoms: C_8  and  N_9
REMARK    5  A    between atoms: C_16  and  N_17
REMARK                            x       y       z     vdW  Elec       q    Type
REMARK                         _______ _______ _______ _____ _____    ______ ____
ROOT
ATOM      1  N   UNL     1       5.784   5.733  17.279  0.00  0.00    +0.000 N 
ATOM      2  C   UNL     1       6.977   6.261  16.897  0.00  0.00    +0.000 C 
ATOM      3  O   UNL     1       7.664   6.975  17.621  0.00  0.00    +0.000 OA
ATOM      4  N   UNL     1       7.414   5.934  15.640  0.00  0.00    +0.000 N 
ATOM      5  C   UNL     1       6.725   5.142  14.766  0.00  0.00    +0.000 A 
ATOM      6  N   UNL     1       5.498   4.695  14.910  0.00  0.00    +0.000 NA
ATOM      7  C   UNL     1       5.193   3.852  13.865  0.00  0.00    +0.000 A 
ATOM      8  C   UNL     1       6.223   3.657  12.977  0.00  0.00    +0.000 A 
ATOM      9  S   UNL     1       7.569   4.623  13.379  0.00  0.00    +0.000 S 
ATOM     10  H   UNL     1       5.347   5.066  16.651  0.00  0.00    +0.000 HD
ATOM     11  H   UNL     1       8.334   6.267  15.389  0.00  0.00    +0.000 HD
ENDROOT
BRANCH   8  12
ATOM     12  N   UNL     1       6.221   2.762  11.867  0.00  0.00    +0.000 N 
ATOM     13  O   UNL     1       5.114   2.390  11.466  0.00  0.00    +0.000 OA
ATOM     14  O   UNL     1       7.313   2.410  11.402  0.00  0.00    +0.000 OA
ENDBRANCH   8  12
BRANCH   1  15
ATOM     15  C   UNL     1       5.214   5.871  18.590  0.00  0.00    +0.000 C 
BRANCH  15  20
ATOM     16  C   UNL     1       2.050   4.261  19.999  0.00  0.00    +0.000 A 
ATOM     17  C   UNL     1       1.427   3.830  18.826  0.00  0.00    +0.000 A 
ATOM     18  C   UNL     1       2.033   4.031  17.586  0.00  0.00    +0.000 A 
ATOM     19  C   UNL     1       3.264   4.680  17.513  0.00  0.00    +0.000 A 
ATOM     20  C   UNL     1       3.899   5.136  18.678  0.00  0.00    +0.000 A 
ATOM     21  C   UNL     1       3.286   4.909  19.921  0.00  0.00    +0.000 A 
BRANCH  16  23
ATOM     22  C   UNL     1       1.336   2.643  21.585  0.00  0.00    +0.000 C 
ATOM     23  O   UNL     1       1.354   3.997  21.147  0.00  0.00    +0.000 OA
ENDBRANCH  16  23
ENDBRANCH  15  20
ENDBRANCH   1  15
TORSDOF 4
ENDMDL
MODEL 4
REMARK VINA RESULT:      -6.9      1.568      2.185
REMARK  Name = 
REMARK  5 active torsions:
REMARK  status: ('A' for Active; 'I' for Inactive)
REMARK    1  A    between atoms: C_1  and  O_2
REMARK    2  A    between atoms: O_2  and  C_3
REMARK    3  A    between atoms: C_7  and  C_8
REMARK    4  A    between atoms: C_8  and  N_9
REMARK    5  A    between atoms: C_16  and  N_17
REMARK                            x       y       z     vdW  Elec       q    Type
REMARK                         _______ _______ _______ _____ _____    ______ ____
ROOT
ATOM      1  N   UNL     1       6.075   4.240  15.337  0.00  0.00    +0.000 N 
ATOM      2  C   UNL     1       6.780   4.281  16.498  0.00  0.00    +0.000 C 
ATOM      3  O   UNL     1       7.974   4.558  16.555  0.00  0.00    +0.000 OA
ATOM      4  N   UNL     1       6.079   4.022  17.647  0.00  0.00    +0.000 N 
ATOM      5  C   UNL     1       4.750   3.713  17.685  0.00  0.00    +0.000 A 
ATOM      6  N   UNL     1       3.969   3.468  16.656  0.00  0.00    +0.000 NA
ATOM      7  C   UNL     1       2.676   3.292  17.095  0.00  0.00    +0.000 A 
ATOM      8  C   UNL     1       2.512   3.449  18.450  0.00  0.00    +0.000 A 
ATOM      9  S   UNL     1       4.010   3.713  19.221  0.00  0.00    +0.000 S 
ATOM     10  H   UNL     1       5.071   4.112  15.405  0.00  0.00    +0.000 HD
ATOM     11  H   UNL     1       6.589   4.128  18.512  0.00  0.00    +0.000 HD
ENDROOT
BRANCH   8  12
ATOM     12  N   UNL     1       1.276   3.425  19.158  0.00  0.00    +0.000 N 
ATOM     13  O   UNL     1       1.128   4.283  20.033  0.00  0.00    +0.000 OA
ATOM     14  O   UNL     1       0.455   2.545  18.864  0.00  0.00    +0.000 OA
ENDBRANCH   8  12
BRANCH   1  15
ATOM     15  C   UNL     1       6.606   4.587  14.048  0.00  0.00    +0.000 C 
BRANCH  15  20
ATOM     16  C   UNL     1       5.997   1.862  11.441  0.00  0.00    +0.000 A 
ATOM     17  C   UNL     1       4.713   2.195  11.005  0.00  0.00    +0.000 A 
ATOM     18  C   UNL     1       4.053   3.308  11.526  0.00  0.00    +0.000 A 
ATOM     19  C   UNL     1       4.672   4.087  12.501  0.00  0.00    +0.000 A 
ATOM     20  C   UNL     1       5.955   3.761  12.965  0.00  0.00    +0.000 A 
ATOM     21  C   UNL     1       6.615   2.649  12.417  0.00  0.00    +0.000 A 
BRANCH  16  23
ATOM     22  C   UNL     1       6.065  -0.509  11.308  0.00  0.00    +0.000 C 
ATOM     23  O   UNL     1       6.534   0.753  10.847  0.00  0.00    +0.000 OA
ENDBRANCH  16  23
ENDBRANCH  15  20
ENDBRANCH   1  15
TORSDOF 4
ENDMDL
MODEL 5
REMARK VINA RESULT:      -6.9      1.061      1.435
REMARK  Name = 
REMARK  5 active torsions:
REMARK  status: ('A' for Active; 'I' for Inactive)
REMARK    1  A    between atoms: C_1  and  O_2
REMARK    2  A    between atoms: O_2  and  C_3
REMARK    3  A    between atoms: C_7  and  C_8
REMARK    4  A    between atoms: C_8  and  N_9
REMARK    5  A    between atoms: C_16  and  N_17
REMARK                            x       y       z     vdW  Elec       q    Type
REMARK                         _______ _______ _______ _____ _____    ______ ____
ROOT
ATOM      1  N   UNL     1       6.097   4.398  15.697  0.00  0.00    +0.000 N 
ATOM      2  C   UNL     1       6.767   4.283  16.874  0.00  0.00    +0.000 C 
ATOM      3  O   UNL     1       7.964   4.527  16.998  0.00  0.00    +0.000 OA
ATOM      4  N   UNL     1       6.028   3.900  17.962  0.00  0.00    +0.000 N 
ATOM      5  C   UNL     1       4.693   3.616  17.925  0.00  0.00    +0.000 A 
ATOM      6  N   UNL     1       3.940   3.514  16.853  0.00  0.00    +0.000 NA
ATOM      7  C   UNL     1       2.631   3.312  17.230  0.00  0.00    +0.000 A 
ATOM      8  C   UNL     1       2.430   3.306  18.590  0.00  0.00    +0.000 A 
ATOM      9  S   UNL     1       3.908   3.444  19.428  0.00  0.00    +0.000 S 
ATOM     10  H   UNL     1       5.089   4.283  15.721  0.00  0.00    +0.000 HD
ATOM     11  H   UNL     1       6.513   3.889  18.847  0.00  0.00    +0.000 HD
ENDROOT
BRANCH   8  12
ATOM     12  N   UNL     1       1.172   3.221  19.254  0.00  0.00    +0.000 N 
ATOM     13  O   UNL     1       1.004   3.985  20.209  0.00  0.00    +0.000 OA
ATOM     14  O   UNL     1       0.355   2.384  18.847  0.00  0.00    +0.000 OA
ENDBRANCH   8  12
BRANCH   1  15
ATOM     15  C   UNL     1       6.673   4.889  14.475  0.00  0.00    +0.000 C 
BRANCH  15  20
ATOM     16  C   UNL     1       4.587   3.189  11.764  0.00  0.00    +0.000 A 
ATOM     17  C   UNL     1       5.565   2.434  11.112  0.00  0.00    +0.000 A 
ATOM     18  C   UNL     1       6.886   2.450  11.557  0.00  0.00    +0.000 A 
ATOM     19  C   UNL     1       7.240   3.234  12.653  0.00  0.00    +0.000 A 
ATOM     20  C   UNL     1       6.277   4.012  13.312  0.00  0.00    +0.000 A 
ATOM     21  C   UNL     1       4.946   3.972  12.865  0.00  0.00    +0.000 A 
BRANCH  16  23
ATOM     22  C   UNL     1       3.126   3.672   9.954  0.00  0.00    +0.000 C 
ATOM     23  O   UNL     1       3.331   3.081  11.232  0.00  0.00    +0.000 OA
ENDBRANCH  16  23
ENDBRANCH  15  20
ENDBRANCH   1  15
TORSDOF 4
ENDMDL
MODEL 6
REMARK VINA RESULT:      -6.8      2.668      6.721
REMARK  Name = 
REMARK  5 active torsions:
REMARK  status: ('A' for Active; 'I' for Inactive)
REMARK    1  A    between atoms: C_1  and  O_2
REMARK    2  A    between atoms: O_2  and  C_3
REMARK    3  A    between atoms: C_7  and  C_8
REMARK    4  A    between atoms: C_8  and  N_9
REMARK    5  A    between atoms: C_16  and  N_17
REMARK                            x       y       z     vdW  Elec       q    Type
REMARK                         _______ _______ _______ _____ _____    ______ ____
ROOT
ATOM      1  N   UNL     1       6.199   5.296  17.922  0.00  0.00    +0.000 N 
ATOM      2  C   UNL     1       7.206   6.073  17.441  0.00  0.00    +0.000 C 
ATOM      3  O   UNL     1       7.893   6.804  18.147  0.00  0.00    +0.000 OA
ATOM      4  N   UNL     1       7.453   5.986  16.096  0.00  0.00    +0.000 N 
ATOM      5  C   UNL     1       6.749   5.195  15.233  0.00  0.00    +0.000 A 
ATOM      6  N   UNL     1       5.653   4.521  15.499  0.00  0.00    +0.000 NA
ATOM      7  C   UNL     1       5.299   3.771  14.401  0.00  0.00    +0.000 A 
ATOM      8  C   UNL     1       6.168   3.874  13.342  0.00  0.00    +0.000 A 
ATOM      9  S   UNL     1       7.398   5.010  13.667  0.00  0.00    +0.000 S 
ATOM     10  H   UNL     1       5.765   4.644  17.279  0.00  0.00    +0.000 HD
ATOM     11  H   UNL     1       8.249   6.506  15.756  0.00  0.00    +0.000 HD
ENDROOT
BRANCH   8  12
ATOM     12  N   UNL     1       6.105   3.135  12.124  0.00  0.00    +0.000 N 
ATOM     13  O   UNL     1       4.975   2.905  11.682  0.00  0.00    +0.000 OA
ATOM     14  O   UNL     1       7.169   2.764  11.613  0.00  0.00    +0.000 OA
ENDBRANCH   8  12
BRANCH   1  15
ATOM     15  C   UNL     1       5.862   5.169  19.314  0.00  0.00    +0.000 C 
BRANCH  15  20
ATOM     16  C   UNL     1       2.425   3.556  19.730  0.00  0.00    +0.000 A 
ATOM     17  C   UNL     1       1.617   4.687  19.870  0.00  0.00    +0.000 A 
ATOM     18  C   UNL     1       2.169   5.965  19.804  0.00  0.00    +0.000 A 
ATOM     19  C   UNL     1       3.540   6.120  19.611  0.00  0.00    +0.000 A 
ATOM     20  C   UNL     1       4.373   4.997  19.485  0.00  0.00    +0.000 A 
ATOM     21  C   UNL     1       3.799   3.716  19.534  0.00  0.00    +0.000 A 
BRANCH  16  23
ATOM     22  C   UNL     1       0.789   2.108  18.799  0.00  0.00    +0.000 C 
ATOM     23  O   UNL     1       1.759   2.363  19.808  0.00  0.00    +0.000 OA
ENDBRANCH  16  23
ENDBRANCH  15  20
ENDBRANCH   1  15
TORSDOF 4
ENDMDL
MODEL 7
REMARK VINA RESULT:      -6.8      4.615      6.006
REMARK  Name = 
REMARK  5 active torsions:
REMARK  status: ('A' for Active; 'I' for Inactive)
REMARK    1  A    between atoms: C_1  and  O_2
REMARK    2  A    between atoms: O_2  and  C_3
REMARK    3  A    between atoms: C_7  and  C_8
REMARK    4  A    between atoms: C_8  and  N_9
REMARK    5  A    between atoms: C_16  and  N_17
REMARK                            x       y       z     vdW  Elec       q    Type
REMARK                         _______ _______ _______ _____ _____    ______ ____
ROOT
ATOM      1  N   UNL     1       3.326   5.299  19.353  0.00  0.00    +0.000 N 
ATOM      2  C   UNL     1       2.562   5.369  20.475  0.00  0.00    +0.000 C 
ATOM      3  O   UNL     1       2.517   4.481  21.320  0.00  0.00    +0.000 OA
ATOM      4  N   UNL     1       1.839   6.520  20.649  0.00  0.00    +0.000 N 
ATOM      5  C   UNL     1       1.830   7.566  19.771  0.00  0.00    +0.000 A 
ATOM      6  N   UNL     1       2.371   7.591  18.573  0.00  0.00    +0.000 NA
ATOM      7  C   UNL     1       2.234   8.851  18.035  0.00  0.00    +0.000 A 
ATOM      8  C   UNL     1       1.622   9.757  18.868  0.00  0.00    +0.000 A 
ATOM      9  S   UNL     1       1.103   9.010  20.310  0.00  0.00    +0.000 S 
ATOM     10  H   UNL     1       3.381   6.130  18.773  0.00  0.00    +0.000 HD
ATOM     11  H   UNL     1       1.333   6.600  21.519  0.00  0.00    +0.000 HD
ENDROOT
BRANCH   8  12
ATOM     12  N   UNL     1       1.443  11.148  18.612  0.00  0.00    +0.000 N 
ATOM     13  O   UNL     1       0.359  11.631  18.952  0.00  0.00    +0.000 OA
ATOM     14  O   UNL     1       2.364  11.761  18.058  0.00  0.00    +0.000 OA
ENDBRANCH   8  12
BRANCH   1  15
ATOM     15  C   UNL     1       4.232   4.226  19.049  0.00  0.00    +0.000 C 
BRANCH  15  20
ATOM     16  C   UNL     1       6.778   5.844  16.707  0.00  0.00    +0.000 A 
ATOM     17  C   UNL     1       6.586   5.091  15.546  0.00  0.00    +0.000 A 
ATOM     18  C   UNL     1       5.623   4.084  15.506  0.00  0.00    +0.000 A 
ATOM     19  C   UNL     1       4.854   3.814  16.636  0.00  0.00    +0.000 A 
ATOM     20  C   UNL     1       5.041   4.547  17.817  0.00  0.00    +0.000 A 
ATOM     21  C   UNL     1       6.002   5.572  17.837  0.00  0.00    +0.000 A 
BRANCH  16  23
ATOM     22  C   UNL     1       7.680   7.873  17.550  0.00  0.00    +0.000 C 
ATOM     23  O   UNL     1       7.748   6.805  16.613  0.00  0.00    +0.000 OA
ENDBRANCH  16  23
ENDBRANCH  15  20
ENDBRANCH   1  15
TORSDOF 4
ENDMDL
MODEL 8
REMARK VINA RESULT:      -6.8      1.452      1.757
REMARK  Name = 
REMARK  5 active torsions:
REMARK  status: ('A' for Active; 'I' for Inactive)
REMARK    1  A    between atoms: C_1  and  O_2
REMARK    2  A    between atoms: O_2  and  C_3
REMARK    3  A    between atoms: C_7  and  C_8
REMARK    4  A    between atoms: C_8  and  N_9
REMARK    5  A    between atoms: C_16  and  N_17
REMARK                            x       y       z     vdW  Elec       q    Type
REMARK                         _______ _______ _______ _____ _____    ______ ____
ROOT
ATOM      1  N   UNL     1       6.062   4.938  16.662  0.00  0.00    +0.000 N 
ATOM      2  C   UNL     1       5.331   6.080  16.560  0.00  0.00    +0.000 C 
ATOM      3  O   UNL     1       5.716   7.079  15.961  0.00  0.00    +0.000 OA
ATOM      4  N   UNL     1       4.093   6.066  17.147  0.00  0.00    +0.000 N 
ATOM      5  C   UNL     1       3.575   5.000  17.827  0.00  0.00    +0.000 A 
ATOM      6  N   UNL     1       4.206   3.897  18.160  0.00  0.00    +0.000 NA
ATOM      7  C   UNL     1       3.321   3.024  18.752  0.00  0.00    +0.000 A 
ATOM      8  C   UNL     1       2.028   3.485  18.813  0.00  0.00    +0.000 A 
ATOM      9  S   UNL     1       1.919   5.082  18.225  0.00  0.00    +0.000 S 
ATOM     10  H   UNL     1       5.611   4.132  17.081  0.00  0.00    +0.000 HD
ATOM     11  H   UNL     1       3.524   6.887  17.005  0.00  0.00    +0.000 HD
ENDROOT
BRANCH   8  12
ATOM     12  N   UNL     1       0.895   2.756  19.277  0.00  0.00    +0.000 N 
ATOM     13  O   UNL     1       0.271   2.113  18.427  0.00  0.00    +0.000 OA
ATOM     14  O   UNL     1       0.607   2.831  20.479  0.00  0.00    +0.000 OA
ENDBRANCH   8  12
BRANCH   1  15
ATOM     15  C   UNL     1       7.331   4.723  16.024  0.00  0.00    +0.000 C 
BRANCH  15  20
ATOM     16  C   UNL     1       6.064   3.495  12.637  0.00  0.00    +0.000 A 
ATOM     17  C   UNL     1       6.787   4.317  11.769  0.00  0.00    +0.000 A 
ATOM     18  C   UNL     1       7.700   5.245  12.269  0.00  0.00    +0.000 A 
ATOM     19  C   UNL     1       7.884   5.366  13.644  0.00  0.00    +0.000 A 
ATOM     20  C   UNL     1       7.156   4.562  14.534  0.00  0.00    +0.000 A 
ATOM     21  C   UNL     1       6.254   3.618  14.016  0.00  0.00    +0.000 A 
BRANCH  16  23
ATOM     22  C   UNL     1       4.149   3.198  11.263  0.00  0.00    +0.000 C 
ATOM     23  O   UNL     1       5.208   2.624  12.020  0.00  0.00    +0.000 OA
ENDBRANCH  16  23
ENDBRANCH  15  20
ENDBRANCH   1  15
TORSDOF 4
ENDMDL
MODEL 9
REMARK VINA RESULT:      -6.8      5.251      6.840
REMARK  Name = 
REMARK  5 active torsions:
REMARK  status: ('A' for Active; 'I' for Inactive)
REMARK    1  A    between atoms: C_1  and  O_2
REMARK    2  A    between atoms: O_2  and  C_3
REMARK    3  A    between atoms: C_7  and  C_8
REMARK    4  A    between atoms: C_8  and  N_9
REMARK    5  A    between atoms: C_16  and  N_17
REMARK                            x       y       z     vdW  Elec       q    Type
REMARK                         _______ _______ _______ _____ _____    ______ ____
ROOT
ATOM      1  N   UNL     1       2.878   6.281  18.797  0.00  0.00    +0.000 N 
ATOM      2  C   UNL     1       2.502   5.849  20.030  0.00  0.00    +0.000 C 
ATOM      3  O   UNL     1       2.772   4.735  20.469  0.00  0.00    +0.000 OA
ATOM      4  N   UNL     1       1.812   6.744  20.805  0.00  0.00    +0.000 N 
ATOM      5  C   UNL     1       1.473   8.006  20.409  0.00  0.00    +0.000 A 
ATOM      6  N   UNL     1       1.608   8.515  19.205  0.00  0.00    +0.000 NA
ATOM      7  C   UNL     1       1.243   9.843  19.226  0.00  0.00    +0.000 A 
ATOM      8  C   UNL     1       0.877  10.309  20.466  0.00  0.00    +0.000 A 
ATOM      9  S   UNL     1       0.877   9.051  21.617  0.00  0.00    +0.000 S 
ATOM     10  H   UNL     1       2.704   7.254  18.571  0.00  0.00    +0.000 HD
ATOM     11  H   UNL     1       1.601   6.446  21.747  0.00  0.00    +0.000 HD
ENDROOT
BRANCH   8  12
ATOM     12  N   UNL     1       0.554  11.656  20.797  0.00  0.00    +0.000 N 
ATOM     13  O   UNL     1      -0.602  12.018  20.554  0.00  0.00    +0.000 OA
ATOM     14  O   UNL     1       1.446  12.366  21.280  0.00  0.00    +0.000 OA
ENDBRANCH   8  12
BRANCH   1  15
ATOM     15  C   UNL     1       3.697   5.531  17.885  0.00  0.00    +0.000 C 
BRANCH  15  20
ATOM     16  C   UNL     1       7.115   7.221  17.656  0.00  0.00    +0.000 A 
ATOM     17  C   UNL     1       7.849   6.458  18.566  0.00  0.00    +0.000 A 
ATOM     18  C   UNL     1       7.257   5.386  19.233  0.00  0.00    +0.000 A 
ATOM     19  C   UNL     1       5.918   5.080  19.002  0.00  0.00    +0.000 A 
ATOM     20  C   UNL     1       5.157   5.843  18.104  0.00  0.00    +0.000 A 
ATOM     21  C   UNL     1       5.772   6.908  17.425  0.00  0.00    +0.000 A 
BRANCH  16  23
ATOM     22  C   UNL     1       8.267   9.281  17.921  0.00  0.00    +0.000 C 
ATOM     23  O   UNL     1       7.814   8.238  17.066  0.00  0.00    +0.000 OA
ENDBRANCH  16  23
ENDBRANCH  15  20
ENDBRANCH   1  15
TORSDOF 4
ENDMDL
